REMARK  Name = 1bmk_ligand
REMARK  4 active torsions:
REMARK  status: ('A' for Active; 'I' for Inactive)
REMARK    1  A    between atoms: CA5_6  and  CC3_17
REMARK    2  A    between atoms: CB5_12  and  CC2_16
REMARK    3  A    between atoms: NC1_15  and  CD1_20
REMARK    4  A    between atoms: CD1_20  and  CE1_21
REMARK                            x       y       z     vdW  Elec       q    Type
REMARK                         _______ _______ _______ _____ _____    ______ ____
ROOT
ATOM      7  C   UNL     1       2.946  13.094  29.027  0.00  0.00    +0.046 A 
ATOM      8  C   UNL     1       1.578  12.466  28.945  0.00  0.00    +0.115 A 
ATOM     18  N   UNL     1       0.666  13.454  28.386  0.00  0.00    -0.235 N 
ATOM     23  C   UNL     1       1.556  14.509  28.230  0.00  0.00    +0.239 A 
ATOM     24  N   UNL     1       2.872  14.416  28.563  0.00  0.00    -0.303 NA
ENDROOT
BRANCH   8   9
ATOM      9  C   UNL     1       1.210  11.067  29.136  0.00  0.00    +0.071 A 
ATOM     10  N   UNL     1       0.276  10.494  28.302  0.00  0.00    -0.258 NA
ATOM     11  C   UNL     1      -0.061   9.220  28.487  0.00  0.00    +0.179 A 
ATOM     12  N   UNL     1       0.424   8.416  29.422  0.00  0.00    -0.263 NA
ATOM     13  C   UNL     1       1.349   8.914  30.280  0.00  0.00    +0.094 A 
ATOM     14  N   UNL     1      -0.952   8.708  27.683  0.00  0.00    -0.304 N 
ATOM     15  H   UNL     1      -1.243   7.726  27.795  0.00  0.00    +0.182 HD
ATOM     16  H   UNL     1      -1.365   9.286  26.937  0.00  0.00    +0.182 HD
ATOM     17  C   UNL     1       1.797  10.262  30.198  0.00  0.00    +0.043 A 
ENDBRANCH   8   9
BRANCH   7   5
ATOM      1  F   UNL     1       7.973  10.854  30.287  0.00  0.00    -0.184 F 
ATOM      2  C   UNL     1       6.756  11.394  29.995  0.00  0.00    +0.131 A 
ATOM      3  C   UNL     1       6.139  11.100  28.755  0.00  0.00    +0.031 A 
ATOM      4  C   UNL     1       4.885  11.662  28.450  0.00  0.00    +0.001 A 
ATOM      5  C   UNL     1       4.211  12.533  29.376  0.00  0.00    -0.021 A 
ATOM      6  C   UNL     1       4.853  12.814  30.623  0.00  0.00    +0.001 A 
ATOM     25  C   UNL     1       6.115  12.249  30.931  0.00  0.00    +0.031 A 
ENDBRANCH   7   5
BRANCH  18  19
ATOM     19  C   UNL     1      -0.775  13.379  27.876  0.00  0.00    +0.188 C 
BRANCH  19  20
ATOM     20  C   UNL     1      -1.090  14.370  26.722  0.00  0.00    +0.020 C 
ATOM     21  C   UNL     1      -2.056  13.922  25.620  0.00  0.00    +0.006 C 
ATOM     22  C   UNL     1      -0.568  14.023  25.321  0.00  0.00    +0.006 C 
ENDBRANCH  19  20
ENDBRANCH  18  19
TORSDOF 4
