REMARK  Name = 4MXY
REMARK  13 active torsions:
REMARK  status: ('A' for Active; 'I' for Inactive)
REMARK    1  A    between atoms: C_1  and  O_22
REMARK    2  A    between atoms: O_2  and  C_24
REMARK    3  A    between atoms: O_2  and  C_36
REMARK    4  A    between atoms: C_3  and  C_13
REMARK    5  A    between atoms: C_3  and  N_34
REMARK    6  A    between atoms: C_7  and  C_27
REMARK    7  A    between atoms: C_13  and  C_14
REMARK    8  A    between atoms: C_14  and  O_23
REMARK    9  A    between atoms: C_15  and  N_35
REMARK   10  A    between atoms: N_21  and  C_28
REMARK   11  A    between atoms: N_21  and  C_31
REMARK   12  A    between atoms: O_22  and  C_29
REMARK   13  A    between atoms: O_23  and  C_30
REMARK                            x       y       z     vdW  Elec       q    Type
REMARK                         _______ _______ _______ _____ _____    ______ ____
ROOT
ATOM      3  C   UNL     1      12.469 -38.763  -5.625  0.00  0.00    +0.162 A 
ATOM      4  C   UNL     1      13.858 -38.270  -5.881  0.00  0.00    +0.164 A 
ATOM     16  C   UNL     1      14.086 -37.012  -6.661  0.00  0.00    +0.077 A 
ATOM     17  C   UNL     1      12.897 -36.238  -7.200  0.00  0.00    +0.076 A 
ATOM     18  C   UNL     1      11.490 -36.755  -6.936  0.00  0.00    +0.026 A 
ATOM     19  C   UNL     1      10.272 -35.990  -7.473  0.00  0.00    +0.060 A 
ATOM     20  C   UNL     1      10.575 -34.717  -8.260  0.00  0.00    +0.091 A 
ATOM     21  C   UNL     1      11.999 -34.290  -8.465  0.00  0.00    +0.132 A 
ATOM     36  N   UNL     1      13.105 -35.032  -7.954  0.00  0.00    -0.254 NA
ATOM     37  C   UNL     1      11.279 -38.017  -6.146  0.00  0.00    +0.061 A 
ENDROOT
BRANCH   3   2
ATOM      1  C   UNL     1      10.959 -40.485  -5.074  0.00  0.00    +0.277 C 
ATOM      2  O   UNL     1      12.215 -39.912  -4.917  0.00  0.00    -0.491 OA
ENDBRANCH   3   2
BRANCH  20  22
ATOM     22  C   UNL     1       9.495 -33.753  -8.648  0.00  0.00    +0.103 C 
ATOM     23  N   UNL     1       8.679 -33.022  -8.950  0.00  0.00    -0.191 NA
ENDBRANCH  20  22
BRANCH  19  24
ATOM     24  N   UNL     1       8.914 -36.511  -7.188  0.00  0.00    -0.312 N 
ATOM     25  H   UNL     1       8.886 -37.507  -7.578  0.00  0.00    +0.152 HD
BRANCH  24  26
ATOM     26  C   UNL     1       7.720 -35.844  -7.683  0.00  0.00    +0.053 A 
ATOM     27  C   UNL     1       6.696 -35.216  -6.765  0.00  0.00    +0.064 A 
ATOM     28  C   UNL     1       5.497 -34.542  -7.335  0.00  0.00    +0.045 A 
ATOM     29  C   UNL     1       5.296 -34.478  -8.804  0.00  0.00    +0.084 A 
ATOM     30  C   UNL     1       6.310 -35.103  -9.726  0.00  0.00    +0.140 A 
ATOM     33 CL   UNL     1       3.881 -33.676  -9.394  0.00  0.00    -0.080 Cl
ATOM     34 CL   UNL     1       6.827 -35.234  -5.032  0.00  0.00    -0.082 Cl
ATOM     35  C   UNL     1       7.517 -35.788  -9.172  0.00  0.00    +0.072 A 
BRANCH  30  31
ATOM     31  O   UNL     1       6.167 -35.066 -11.091  0.00  0.00    -0.494 OA
ATOM     32  C   UNL     1       7.310 -34.937 -11.878  0.00  0.00    +0.277 C 
ENDBRANCH  30  31
ENDBRANCH  24  26
ENDBRANCH  19  24
BRANCH   4   5
ATOM      5  O   UNL     1      14.981 -38.954  -5.397  0.00  0.00    -0.488 OA
BRANCH   5   6
ATOM      6  C   UNL     1      16.258 -38.484  -5.742  0.00  0.00    +0.230 C 
BRANCH   6   7
ATOM      7  C   UNL     1      17.215 -38.772  -4.587  0.00  0.00    +0.056 C 
BRANCH   7   8
ATOM      8  C   UNL     1      16.558 -39.759  -3.631  0.00  0.00    +0.088 C 
BRANCH   8   9
ATOM      9  N   UNL     1      17.525 -40.105  -2.530  0.00  0.00    -0.300 NA
ATOM     10  C   UNL     1      18.910 -39.761  -2.771  0.00  0.00    +0.100 C 
ATOM     11  C   UNL     1      19.801 -40.673  -1.981  0.00  0.00    +0.099 C 
ATOM     12  N   UNL     1      19.552 -40.499  -0.576  0.00  0.00    -0.303 NA
ATOM     13  C   UNL     1      18.174 -40.783  -0.237  0.00  0.00    +0.099 C 
ATOM     14  C   UNL     1      20.550 -40.880   0.419  0.00  0.00    +0.105 C 
ATOM     15  C   UNL     1      17.204 -39.949  -1.103  0.00  0.00    +0.100 C 
ENDBRANCH   8   9
ENDBRANCH   7   8
ENDBRANCH   6   7
ENDBRANCH   5   6
ENDBRANCH   4   5
TORSDOF 10
