REMARK  Name = NP8
REMARK  3 active torsions:
REMARK  status: ('A' for Active; 'I' for Inactive)
REMARK    1  A    between atoms: O05_2  and  C06_3
REMARK    2  A    between atoms: C12_7  and  C15_9
REMARK    3  A    between atoms: N20_13  and  C22_14
REMARK                            x       y       z     vdW  Elec       q    Type
REMARK                         _______ _______ _______ _____ _____    ______ ____
ROOT
ATOM      6  C   UNL     1     -15.630  -9.096   5.844  0.00  0.00    +0.036 C 
ATOM      7  C   UNL     1     -14.899 -10.021   6.613  0.00  0.00    +0.093 C 
ATOM      8  C   UNL     1     -14.099  -9.706   7.775  0.00  0.00    -0.016 C 
ATOM      9  C   UNL     1     -13.450 -10.679   8.449  0.00  0.00    +0.030 C 
ATOM     10  C   UNL     1     -12.622 -10.309   9.648  0.00  0.00    +0.035 C 
ATOM     11  C   UNL     1     -13.513 -12.070   8.047  0.00  0.00    +0.265 C 
ATOM     12  O   UNL     1     -12.940 -12.993   8.625  0.00  0.00    -0.268 OA
ATOM     13  N   UNL     1     -14.274 -12.311   6.957  0.00  0.00    -0.172 NA
ATOM     14  C   UNL     1     -14.971 -11.374   6.212  0.00  0.00    +0.145 C 
ATOM     15  C   UNL     1     -15.720 -11.808   5.089  0.00  0.00    +0.373 C 
ATOM     16  N   UNL     1     -15.819 -13.092   4.680  0.00  0.00    -0.035 NA
ATOM     23  N   UNL     1     -16.399 -10.882   4.388  0.00  0.00    -0.032 NA
ATOM     24  C   UNL     1     -16.332  -9.593   4.756  0.00  0.00    +0.232 C 
ENDROOT
BRANCH   6   5
ATOM      3  C   UNL     1     -15.967  -5.714   7.535  0.00  0.00    +0.158 A 
ATOM      4  C   UNL     1     -15.970  -7.089   7.355  0.00  0.00    +0.040 A 
ATOM      5  C   UNL     1     -15.633  -7.629   6.116  0.00  0.00    +0.023 A 
ATOM     25  C   UNL     1     -15.320  -6.723   5.108  0.00  0.00    +0.099 A 
ATOM     26  N   UNL     1     -15.314  -5.394   5.262  0.00  0.00    -0.239 NA
ATOM     27  C   UNL     1     -15.631  -4.903   6.464  0.00  0.00    +0.136 A 
BRANCH   3   2
ATOM      1  C   UNL     1     -16.610  -3.821   8.863  0.00  0.00    +0.253 C 
ATOM      2  O   UNL     1     -16.289  -5.211   8.769  0.00  0.00    -0.470 OA
ENDBRANCH   3   2
ENDBRANCH   6   5
BRANCH  16  17
ATOM     17  C   UNL     1     -16.380 -13.510   3.396  0.00  0.00    +0.208 C 
ATOM     18  C   UNL     1     -16.568 -15.015   3.386  0.00  0.00    +0.070 C 
ATOM     19  C   UNL     1     -17.070 -15.502   2.047  0.00  0.00    +0.093 C 
ATOM     20  N   UNL     1     -16.162 -15.059   0.980  0.00  0.00    -0.218 NA
ATOM     21  C   UNL     1     -16.060 -13.593   0.940  0.00  0.00    +0.093 C 
ATOM     22  C   UNL     1     -15.489 -13.079   2.245  0.00  0.00    +0.070 C 
ENDBRANCH  16  17
TORSDOF 3
