REMARK  Name = 1unl_ligand
REMARK  10 active torsions:
REMARK  status: ('A' for Active; 'I' for Inactive)
REMARK    1  A    between atoms: OAP_1  and  CAQ_2
REMARK    2  A    between atoms: CAQ_2  and  CAR_3
REMARK    3  A    between atoms: CAR_3  and  CAK_4
REMARK    4  A    between atoms: CAR_3  and  NAS_6
REMARK    5  A    between atoms: CAK_4  and  CAI_5
REMARK    6  A    between atoms: NAW_10  and  CAZ_11
REMARK    7  A    between atoms: CAZ_11  and  CAY_12
REMARK    8  A    between atoms: CAZ_11  and  CBA_13
REMARK    9  A    between atoms: NAJ_19  and  CAD_20
REMARK   10  A    between atoms: CAD_20  and  CAE_21
REMARK                            x       y       z     vdW  Elec       q    Type
REMARK                         _______ _______ _______ _____ _____    ______ ____
ROOT
ATOM      5  N   UNL     1      59.365  28.720  29.317  0.00  0.00    -0.292 N 
ATOM      6  H   UNL     1      59.217  27.958  29.994  0.00  0.00    +0.185 HD
ATOM      7  C   UNL     1      59.154  28.424  28.009  0.00  0.00    +0.154 A 
ATOM      8  N   UNL     1      59.342  29.306  27.010  0.00  0.00    -0.256 NA
ATOM      9  C   UNL     1      59.136  28.993  25.724  0.00  0.00    +0.122 A 
ATOM     10  N   UNL     1      59.282  29.886  24.736  0.00  0.00    -0.292 N 
ATOM     11  H   UNL     1      59.333  29.551  23.763  0.00  0.00    +0.188 HD
ATOM     19  C   UNL     1      58.726  27.715  25.383  0.00  0.00    +0.092 A 
ATOM     20  N   UNL     1      58.450  27.088  24.165  0.00  0.00    -0.304 NA
ATOM     21  C   UNL     1      58.035  25.832  24.567  0.00  0.00    +0.236 A 
ATOM     22  N   UNL     1      58.130  25.697  25.920  0.00  0.00    -0.225 N 
ATOM     26  C   UNL     1      58.538  26.849  26.400  0.00  0.00    +0.142 A 
ATOM     27  N   UNL     1      58.754  27.170  27.687  0.00  0.00    -0.265 NA
ENDROOT
BRANCH  22  23
ATOM     23  C   UNL     1      57.891  24.628  26.903  0.00  0.00    +0.129 C 
ATOM     24  C   UNL     1      58.876  23.510  26.687  0.00  0.00    +0.043 C 
ATOM     25  C   UNL     1      56.390  24.341  26.894  0.00  0.00    +0.043 C 
ENDBRANCH  22  23
BRANCH   5   4
ATOM      4  CA  UNL     1      59.779  30.006  29.860  0.00  0.00    +0.122 C 
BRANCH   4  28
ATOM     28  C   UNL     1      60.936  29.911  30.856  0.00  0.00    +0.027 C 
ATOM     29  C   UNL     1      61.540  28.530  31.002  0.00  0.00    +0.006 C 
ENDBRANCH   4  28
BRANCH   4   3
ATOM      3  C   UNL     1      58.543  30.470  30.637  0.00  0.00    +0.183 C 
BRANCH   3   1
ATOM      1  O   UNL     1      57.526  30.712  29.696  0.00  0.00    -0.393 OA
ATOM      2  H   UNL     1      56.742  31.003  30.147  0.00  0.00    +0.209 HD
ENDBRANCH   3   1
ENDBRANCH   4   3
ENDBRANCH   5   4
BRANCH  10  12
ATOM     12  C   UNL     1      59.371  31.321  24.996  0.00  0.00    +0.201 C 
BRANCH  12  13
ATOM     13  C   UNL     1      60.784  31.842  25.117  0.00  0.00    -0.021 A 
ATOM     14  C   UNL     1      61.752  31.484  24.173  0.00  0.00    -0.003 A 
ATOM     15  C   UNL     1      63.052  31.990  24.270  0.00  0.00    -0.009 A 
ATOM     16  C   UNL     1      63.389  32.854  25.314  0.00  0.00    -0.013 A 
ATOM     17  C   UNL     1      62.423  33.218  26.256  0.00  0.00    -0.009 A 
ATOM     18  C   UNL     1      61.116  32.727  26.149  0.00  0.00    -0.003 A 
ENDBRANCH  12  13
ENDBRANCH  10  12
TORSDOF 7
