REMARK  Name = 3rk9_ligand
REMARK  7 active torsions:
REMARK  status: ('A' for Active; 'I' for Inactive)
REMARK    1  A    between atoms: C1_1  and  C2_2
REMARK    2  A    between atoms: C2_2  and  C3_3
REMARK    3  A    between atoms: C2_2  and  N4_4
REMARK    4  A    between atoms: C7_7  and  N10_10
REMARK    5  A    between atoms: C8_8  and  C11_11
REMARK    6  A    between atoms: C11_11  and  C12_12
REMARK    7  A    between atoms: C11_11  and  O18_18
REMARK                            x       y       z     vdW  Elec       q    Type
REMARK                         _______ _______ _______ _____ _____    ______ ____
ROOT
ATOM      3  N   UNL     1     -37.274 -82.828 -84.906  0.00  0.00    -0.286 N 
ATOM      4  H   UNL     1     -36.886 -83.633 -85.418  0.00  0.00    +0.188 HD
ATOM      5  C   UNL     1     -38.313 -82.101 -85.472  0.00  0.00    +0.169 A 
ATOM      6  S   UNL     1     -39.263 -80.969 -84.640  0.00  0.00    -0.002 S 
ATOM      7  C   UNL     1     -40.119 -80.687 -86.082  0.00  0.00    +0.058 A 
ATOM     17  C   UNL     1     -39.659 -81.463 -87.112  0.00  0.00    +0.052 A 
ATOM     21  N   UNL     1     -38.638 -82.262 -86.783  0.00  0.00    -0.308 NA
ENDROOT
BRANCH   3   2
ATOM      1  C   UNL     1     -35.873 -83.681 -83.085  0.00  0.00    +0.034 C 
ATOM      2  C   UNL     1     -36.713 -82.473 -83.588  0.00  0.00    +0.093 C 
ATOM     22  C   UNL     1     -35.803 -81.222 -83.698  0.00  0.00    +0.034 C 
ENDBRANCH   3   2
BRANCH  17  18
ATOM     18  N   UNL     1     -40.142 -81.432 -88.310  0.00  0.00    -0.352 N 
ATOM     19  H   UNL     1     -39.740 -82.034 -89.043  0.00  0.00    +0.162 HD
ATOM     20  H   UNL     1     -40.929 -80.806 -88.532  0.00  0.00    +0.162 HD
ENDBRANCH  17  18
BRANCH   7   8
ATOM      8  C   UNL     1     -41.251 -79.691 -86.206  0.00  0.00    +0.207 C 
BRANCH   8  11
ATOM     11  C   UNL     1     -41.707 -78.820 -85.094  0.00  0.00    +0.018 A 
ATOM     12  C   UNL     1     -43.112 -78.640 -84.790  0.00  0.00    +0.092 A 
ATOM     13  N   UNL     1     -43.465 -77.776 -83.710  0.00  0.00    -0.305 NA
ATOM     14  C   UNL     1     -42.520 -77.091 -82.932  0.00  0.00    +0.080 A 
ATOM     15  C   UNL     1     -41.131 -77.239 -83.208  0.00  0.00    +0.029 A 
ATOM     16  C   UNL     1     -40.726 -78.102 -84.291  0.00  0.00    +0.030 A 
ENDBRANCH   8  11
BRANCH   8   9
ATOM      9  O   UNL     1     -41.864 -79.570 -87.405  0.00  0.00    -0.372 OA
ATOM     10  H   UNL     1     -41.477 -80.181 -88.020  0.00  0.00    +0.215 HD
ENDBRANCH   8   9
ENDBRANCH   7   8
TORSDOF 5
