REMARK  Name = 1aq1_ligand
REMARK  5 active torsions:
REMARK  status: ('A' for Active; 'I' for Inactive)
REMARK    1  A    between atoms: C23_4  and  N4_34
REMARK    2  A    between atoms: C22_5  and  O6_32
REMARK    3  A    between atoms: C21_6  and  C26_7
REMARK    4  A    between atoms: O6_32  and  C27_33
REMARK    5  A    between atoms: N4_34  and  C28_35
REMARK                            x       y       z     vdW  Elec       q    Type
REMARK                         _______ _______ _______ _____ _____    ______ ____
ROOT
ATOM      1  O   UNL     1      -0.058  24.605   8.915  0.00  0.00    -0.314 OA
ATOM      2  C   UNL     1       1.330  24.642   8.620  0.00  0.00    +0.263 C 
ATOM      3  C   UNL     1       2.190  24.163   9.817  0.00  0.00    +0.121 C 
ATOM      4  C   UNL     1       1.285  23.864  11.015  0.00  0.00    +0.102 C 
ATOM      5  C   UNL     1       0.399  25.107  11.317  0.00  0.00    +0.227 C 
ATOM     12  N   UNL     1       1.709  25.971   8.152  0.00  0.00    -0.228 N 
ATOM     13  C   UNL     1       2.741  26.197   7.309  0.00  0.00    +0.073 A 
ATOM     14  C   UNL     1       3.755  25.317   6.923  0.00  0.00    +0.016 A 
ATOM     15  C   UNL     1       4.704  25.792   6.047  0.00  0.00    -0.015 A 
ATOM     16  C   UNL     1       4.628  27.116   5.555  0.00  0.00    -0.022 A 
ATOM     17  C   UNL     1       3.610  27.946   5.921  0.00  0.00    -0.008 A 
ATOM     18  C   UNL     1       2.646  27.528   6.811  0.00  0.00    +0.000 A 
ATOM     19  C   UNL     1       1.478  28.081   7.370  0.00  0.00    +0.016 A 
ATOM     20  C   UNL     1       0.774  29.374   7.329  0.00  0.00    +0.041 A 
ATOM     21  C   UNL     1      -0.312  29.613   8.017  0.00  0.00    +0.007 A 
ATOM     22  C   UNL     1      -0.901  28.645   8.863  0.00  0.00    +0.010 A 
ATOM     23  C   UNL     1      -2.037  28.599   9.702  0.00  0.00    -0.001 A 
ATOM     24  C   UNL     1      -2.108  27.305  10.303  0.00  0.00    +0.072 A 
ATOM     25  C   UNL     1      -3.112  27.011  11.173  0.00  0.00    +0.016 A 
ATOM     26  C   UNL     1      -4.061  27.944  11.468  0.00  0.00    -0.014 A 
ATOM     27  C   UNL     1      -4.015  29.250  10.895  0.00  0.00    -0.021 A 
ATOM     28  N   UNL     1      -1.018  26.573   9.809  0.00  0.00    -0.226 N 
ATOM     29  C   UNL     1      -2.987  29.537  10.029  0.00  0.00    -0.008 A 
ATOM     30  C   UNL     1      -0.249  27.353   8.907  0.00  0.00    +0.111 A 
ATOM     31  C   UNL     1      -0.787  31.061   7.794  0.00  0.00    +0.126 C 
ATOM     32  N   UNL     1       0.246  31.488   6.873  0.00  0.00    -0.263 NA
ATOM     33  C   UNL     1       1.191  30.590   6.560  0.00  0.00    +0.209 C 
ATOM     34  O   UNL     1       2.145  30.733   5.820  0.00  0.00    -0.330 OA
ATOM     35  C   UNL     1       0.860  27.101   8.206  0.00  0.00    +0.113 A 
ATOM     36  C   UNL     1      -0.583  25.179  10.100  0.00  0.00    +0.202 C 
ATOM     37  C   UNL     1      -1.782  24.315  10.445  0.00  0.00    +0.079 C 
ENDROOT
BRANCH   4   8
ATOM      8  N   UNL     1       2.190  23.510  12.249  0.00  0.00    +0.229 N 
ATOM      9  H   UNL     1       3.127  23.840  12.079  0.00  0.00    +0.201 HD
ATOM     10  H   UNL     1       1.820  23.959  13.072  0.00  0.00    +0.201 HD
ATOM     11  C   UNL     1       2.219  22.036  12.464  0.00  0.00    +0.189 C 
ENDBRANCH   4   8
BRANCH   5   6
ATOM      6  O   UNL     1       1.283  26.245  11.296  0.00  0.00    -0.369 OA
ATOM      7  C   UNL     1       0.708  27.365  11.940  0.00  0.00    +0.195 C 
ENDBRANCH   5   6
TORSDOF 2
