REMARK  Name = 4idt_ligand
REMARK  0 active torsions:
REMARK  status: ('A' for Active; 'I' for Inactive)
REMARK                            x       y       z     vdW  Elec       q    Type
REMARK                         _______ _______ _______ _____ _____    ______ ____
ROOT
ATOM      1 BR   UNL     1      95.056  51.190 118.523  0.00  0.00    -0.061 Br
ATOM      2  C   UNL     1      96.079  50.164 119.754  0.00  0.00    -0.006 A 
ATOM      3  C   UNL     1      96.615  50.804 120.870  0.00  0.00    -0.015 A 
ATOM      4  C   UNL     1      97.371  50.099 121.799  0.00  0.00    +0.012 A 
ATOM      5  C   UNL     1      97.600  48.742 121.614  0.00  0.00    +0.069 A 
ATOM      6  N   UNL     1      98.282  47.830 122.337  0.00  0.00    -0.259 N 
ATOM      7  H   UNL     1      98.786  48.021 123.215  0.00  0.00    +0.233 HD
ATOM      8  C   UNL     1      98.199  46.625 121.728  0.00  0.00    +0.072 A 
ATOM      9  C   UNL     1      98.845  45.366 122.237  0.00  0.00    +0.121 C 
ATOM     10  C   UNL     1      99.573  44.775 121.055  0.00  0.00    +0.035 C 
ATOM     11  C   UNL     1      98.674  43.801 120.331  0.00  0.00    +0.067 C 
ATOM     12  C   UNL     1      97.650  44.449 119.415  0.00  0.00    -0.013 A 
ATOM     13  C   UNL     1      97.212  43.649 118.364  0.00  0.00    +0.079 A 
ATOM     14  N   UNL     1      96.309  44.088 117.484  0.00  0.00    -0.279 NA
ATOM     15  C   UNL     1      95.797  45.325 117.609  0.00  0.00    +0.164 A 
ATOM     16  N   UNL     1      94.880  45.777 116.726  0.00  0.00    -0.309 N 
ATOM     17  H   UNL     1      94.569  45.173 115.952  0.00  0.00    +0.180 HD
ATOM     18  H   UNL     1      94.492  46.726 116.827  0.00  0.00    +0.180 HD
ATOM     19  N   UNL     1      96.194  46.118 118.617  0.00  0.00    -0.279 NA
ATOM     20  C   UNL     1      97.097  45.724 119.540  0.00  0.00    +0.025 A 
ATOM     21  C   UNL     1      97.443  46.755 120.569  0.00  0.00    +0.010 A 
ATOM     22  C   UNL     1      97.074  48.100 120.504  0.00  0.00    -0.016 A 
ATOM     23  C   UNL     1      96.310  48.803 119.565  0.00  0.00    -0.011 A 
ENDROOT
TORSDOF 0
