REMARK  Name = 4rj4_ligand
REMARK  7 active torsions:
REMARK  status: ('A' for Active; 'I' for Inactive)
REMARK    1  A    between atoms: C12_8  and  C13_9
REMARK    2  A    between atoms: C3_10  and  C2_12
REMARK    3  A    between atoms: C1_11  and  C2_12
REMARK    4  A    between atoms: C2_12  and  N4_13
REMARK    5  A    between atoms: N19_18  and  C20_19
REMARK    6  A    between atoms: C29_28  and  O32_31
REMARK    7  A    between atoms: O32_31  and  C33_32
REMARK                            x       y       z     vdW  Elec       q    Type
REMARK                         _______ _______ _______ _____ _____    ______ ____
ROOT
ATOM      7  C   UNL     1     -51.217   0.006 -18.977  0.00  0.00    +0.051 A 
ATOM      8  N   UNL     1     -51.454  -0.259 -20.334  0.00  0.00    -0.259 N 
ATOM     12  C   UNL     1     -52.484   0.551 -20.786  0.00  0.00    +0.071 A 
ATOM     13  C   UNL     1     -52.909   1.345 -19.687  0.00  0.00    -0.015 A 
ATOM     14  C   UNL     1     -53.939   2.272 -19.882  0.00  0.00    +0.058 A 
ATOM     15  N   UNL     1     -54.519   2.398 -21.066  0.00  0.00    -0.299 NA
ATOM     16  C   UNL     1     -54.152   1.679 -22.128  0.00  0.00    +0.118 A 
ATOM     17  N   UNL     1     -54.811   1.951 -23.335  0.00  0.00    -0.249 N 
ATOM     18  H   UNL     1     -55.269   2.872 -23.398  0.00  0.00    +0.217 HD
ATOM     33  C   UNL     1     -53.129   0.739 -22.018  0.00  0.00    +0.055 A 
ATOM     34  C   UNL     1     -52.073   0.969 -18.548  0.00  0.00    -0.040 A 
ENDROOT
BRANCH  17  19
ATOM     19  C   UNL     1     -54.928   1.136 -24.464  0.00  0.00    +0.134 A 
ATOM     20  N   UNL     1     -53.981   0.256 -24.818  0.00  0.00    -0.238 NA
ATOM     21  C   UNL     1     -54.117  -0.518 -25.898  0.00  0.00    +0.177 A 
ATOM     22  N   UNL     1     -53.106  -1.427 -26.228  0.00  0.00    -0.278 N 
ATOM     23  C   UNL     1     -51.917  -1.269 -25.350  0.00  0.00    +0.141 C 
ATOM     24  C   UNL     1     -50.764  -2.198 -25.749  0.00  0.00    +0.056 C 
ATOM     25  C   UNL     1     -50.450  -2.109 -27.260  0.00  0.00    +0.122 C 
ATOM     28  C   UNL     1     -51.721  -2.432 -28.065  0.00  0.00    +0.056 C 
ATOM     29  C   UNL     1     -52.815  -1.436 -27.689  0.00  0.00    +0.141 C 
ATOM     30  N   UNL     1     -55.214  -0.416 -26.668  0.00  0.00    -0.273 NA
ATOM     31  C   UNL     1     -56.198   0.436 -26.385  0.00  0.00    +0.085 A 
ATOM     32  C   UNL     1     -56.084   1.247 -25.263  0.00  0.00    +0.056 A 
BRANCH  25  26
ATOM     26  O   UNL     1     -49.467  -3.091 -27.615  0.00  0.00    -0.380 OA
ATOM     27  C   UNL     1     -48.100  -2.724 -27.421  0.00  0.00    +0.194 C 
ENDBRANCH  25  26
ENDBRANCH  17  19
BRANCH   7   6
ATOM      1  C   UNL     1     -50.120  -0.474 -16.732  0.00  0.00    +0.077 A 
ATOM      2  N   UNL     1     -48.971  -1.044 -16.305  0.00  0.00    -0.215 NA
ATOM      3  N   UNL     1     -48.255  -1.491 -17.422  0.00  0.00    -0.216 N 
ATOM      4  H   UNL     1     -47.346  -1.976 -17.406  0.00  0.00    +0.260 HD
ATOM      5  C   UNL     1     -48.946  -1.183 -18.489  0.00  0.00    +0.168 A 
ATOM      6  C   UNL     1     -50.159  -0.565 -18.095  0.00  0.00    +0.025 A 
ENDBRANCH   7   6
BRANCH   8   9
ATOM      9  C   UNL     1     -50.719  -1.245 -21.163  0.00  0.00    +0.119 C 
ATOM     10  C   UNL     1     -51.603  -2.343 -21.770  0.00  0.00    +0.041 C 
ATOM     11  C   UNL     1     -49.799  -0.598 -22.198  0.00  0.00    +0.041 C 
ENDBRANCH   8   9
TORSDOF 4
