REMARK  Name = 3VVH
REMARK  8 active torsions:
REMARK  status: ('A' for Active; 'I' for Inactive)
REMARK    1  A    between atoms: N_7  and  C_8
REMARK    2  A    between atoms: C_9  and  C_14
REMARK    3  A    between atoms: N_15  and  O_17
REMARK    4  A    between atoms: O_17  and  C_18
REMARK    5  A    between atoms: C_18  and  C_19
REMARK    6  A    between atoms: C_19  and  C_20
REMARK    7  A    between atoms: C_19  and  O_21
REMARK    8  A    between atoms: C_20  and  O_22
REMARK                            x       y       z     vdW  Elec       q    Type
REMARK                         _______ _______ _______ _____ _____    ______ ____
ROOT
ATOM      3  C   UNL     1      48.184 123.777  15.140  0.00  0.00    +0.114 A 
ATOM      4  C   UNL     1      49.029 124.771  15.815  0.00  0.00    +0.184 A 
ATOM      5  F   UNL     1      49.076 126.031  15.369  0.00  0.00    -0.200 F 
ATOM      6  C   UNL     1      49.819 124.334  16.975  0.00  0.00    +0.161 A 
ATOM      7  F   UNL     1      50.584 125.252  17.563  0.00  0.00    -0.202 F 
ATOM      8  C   UNL     1      49.755 123.011  17.436  0.00  0.00    +0.042 A 
ATOM      9  C   UNL     1      48.939 122.069  16.807  0.00  0.00    +0.018 A 
ATOM     10  C   UNL     1      48.165 122.401  15.690  0.00  0.00    +0.067 A 
ENDROOT
BRANCH   3   2
ATOM      1  C   UNL     1      47.845 124.773  12.949  0.00  0.00    +0.081 C 
ATOM      2  N   UNL     1      47.434 124.131  14.076  0.00  0.00    -0.245 NA
ATOM     23  C   UNL     1      46.806 124.935  11.921  0.00  0.00    +0.146 C 
ATOM     24  F   UNL     1      45.606 124.431  12.188  0.00  0.00    -0.204 F 
ATOM     25  C   UNL     1      47.078 125.568  10.720  0.00  0.00    +0.054 C 
ATOM     26  C   UNL     1      48.358 126.058  10.493  0.00  0.00    +0.013 C 
ATOM     27  I   UNL     1      48.708 126.998   8.660  0.00  0.00    -0.044 I 
ATOM     28  C   UNL     1      49.369 125.915  11.459  0.00  0.00    -0.006 C 
ATOM     29  C   UNL     1      49.128 125.283  12.679  0.00  0.00    +0.086 C 
ENDBRANCH   3   2
BRANCH  10  11
ATOM     11  C   UNL     1      47.281 121.388  15.041  0.00  0.00    +0.269 C 
ATOM     12  O   UNL     1      46.199 121.760  14.590  0.00  0.00    -0.268 OA
ATOM     13  N   UNL     1      47.670 120.122  15.000  0.00  0.00    -0.190 N 
ATOM     14  H   UNL     1      48.587 119.856  14.517  0.00  0.00    +0.183 HD
BRANCH  13  15
ATOM     15  O   UNL     1      46.908 119.178  15.567  0.00  0.00    -0.277 OA
BRANCH  15  16
ATOM     16  C   UNL     1      45.765 118.625  14.906  0.00  0.00    +0.223 C 
BRANCH  16  17
ATOM     17  C   UNL     1      44.830 118.053  15.958  0.00  0.00    +0.168 C 
BRANCH  17  18
ATOM     18  O   UNL     1      45.100 116.657  16.122  0.00  0.00    -0.387 OA
ATOM     19  H   UNL     1      44.947 116.161  15.209  0.00  0.00    +0.210 HD
ENDBRANCH  17  18
BRANCH  17  20
ATOM     20  C   UNL     1      43.390 118.268  15.530  0.00  0.00    +0.189 C 
BRANCH  20  21
ATOM     21  O   UNL     1      42.749 116.985  15.505  0.00  0.00    -0.392 OA
ATOM     22  H   UNL     1      43.244 116.359  14.822  0.00  0.00    +0.209 HD
ENDBRANCH  20  21
ENDBRANCH  17  20
ENDBRANCH  16  17
ENDBRANCH  15  16
ENDBRANCH  13  15
ENDBRANCH  10  11
TORSDOF 8
