REMARK  Name = 5F4N
REMARK  8 active torsions:
REMARK  status: ('A' for Active; 'I' for Inactive)
REMARK    1  A    between atoms: O_4  and  C_18
REMARK    2  A    between atoms: O_4  and  C_19
REMARK    3  A    between atoms: C_6  and  N_11
REMARK    4  A    between atoms: C_7  and  C_8
REMARK    5  A    between atoms: C_7  and  N_11
REMARK    6  A    between atoms: C_14  and  N_24
REMARK    7  A    between atoms: C_16  and  C_17
REMARK    8  A    between atoms: C_18  and  C_21
REMARK                            x       y       z     vdW  Elec       q    Type
REMARK                         _______ _______ _______ _____ _____    ______ ____
ROOT
ATOM      1  C   UNL     1      17.948   0.353   8.577  0.00  0.00    +0.129 A 
ATOM      2  N   UNL     1      16.660   0.622   8.793  0.00  0.00    -0.239 NA
ATOM      3  C   UNL     1      15.938  -0.292   9.439  0.00  0.00    +0.126 A 
ATOM      4  N   UNL     1      14.628   0.067   9.647  0.00  0.00    -0.283 N 
ATOM      5  H   UNL     1      14.288   0.889   9.052  0.00  0.00    +0.155 HD
ATOM     14  C   UNL     1      16.469  -1.505   9.877  0.00  0.00    +0.067 A 
ATOM     15  C   UNL     1      17.810  -1.791   9.642  0.00  0.00    +0.046 A 
ATOM     26  C   UNL     1      18.582  -0.821   8.975  0.00  0.00    +0.098 A 
ENDROOT
BRANCH   4   6
ATOM      6  C   UNL     1      13.684  -0.458  10.495  0.00  0.00    +0.142 A 
ATOM      7  N   UNL     1      13.888  -1.665  11.013  0.00  0.00    -0.236 NA
ATOM      8  C   UNL     1      12.950  -2.145  11.831  0.00  0.00    +0.151 A 
ATOM      9  C   UNL     1      11.807  -1.422  12.135  0.00  0.00    +0.158 A 
ATOM     10  N   UNL     1      11.590  -0.198  11.618  0.00  0.00    -0.240 NA
ATOM     13  C   UNL     1      12.532   0.278  10.799  0.00  0.00    +0.156 A 
BRANCH   9  11
ATOM     11  C   UNL     1      10.790  -1.962  13.013  0.00  0.00    +0.121 C 
ATOM     12  N   UNL     1      10.004  -2.414  13.701  0.00  0.00    -0.189 NA
ENDBRANCH   9  11
ENDBRANCH   4   6
BRANCH  15  16
ATOM     16  N   UNL     1      18.349  -2.988  10.048  0.00  0.00    -0.341 N 
ATOM     17  H   UNL     1      19.391  -3.159   9.877  0.00  0.00    +0.146 HD
BRANCH  16  18
ATOM     18  C   UNL     1      17.577  -4.034  10.698  0.00  0.00    +0.134 C 
BRANCH  18  19
ATOM     19  C   UNL     1      17.735  -4.150  12.198  0.00  0.00    +0.149 C 
ATOM     20  O   UNL     1      17.062  -5.372  12.505  0.00  0.00    -0.373 OA
ATOM     21  C   UNL     1      17.109  -5.689  13.906  0.00  0.00    +0.175 C 
ATOM     22  C   UNL     1      16.497  -4.580  14.724  0.00  0.00    +0.109 C 
ATOM     23  N   UNL     1      17.111  -3.284  14.403  0.00  0.00    -0.311 NA
ATOM     24  H   UNL     1      18.127  -3.291  14.740  0.00  0.00    +0.122 HD
ATOM     25  C   UNL     1      17.092  -3.007  12.966  0.00  0.00    +0.114 C 
ENDBRANCH  18  19
ENDBRANCH  16  18
ENDBRANCH  15  16
BRANCH  26  27
ATOM     27  C   UNL     1      20.018  -1.053   8.665  0.00  0.00    +0.342 C 
ATOM     30  O   UNL     1      20.676  -1.944   9.140  0.00  0.00    -0.245 OA
BRANCH  27  28
ATOM     28  O   UNL     1      20.486  -0.156   7.792  0.00  0.00    -0.464 OA
ATOM     29  C   UNL     1      21.883  -0.261   7.427  0.00  0.00    +0.280 C 
ENDBRANCH  27  28
ENDBRANCH  26  27
TORSDOF 7
