REMARK  Name = 5P9F
REMARK  9 active torsions:
REMARK  status: ('A' for Active; 'I' for Inactive)
REMARK    1  A    between atoms: C_1  and  C_2
REMARK    2  A    between atoms: C_3  and  C_20
REMARK    3  A    between atoms: C_7  and  N_8
REMARK    4  A    between atoms: C_9  and  C_11
REMARK    5  A    between atoms: N_22  and  C_43
REMARK    6  A    between atoms: N_27  and  C_28
REMARK    7  A    between atoms: C_31  and  C_34
REMARK    8  A    between atoms: N_37  and  C_42
REMARK    9  A    between atoms: N_40  and  C_41
REMARK                            x       y       z     vdW  Elec       q    Type
REMARK                         _______ _______ _______ _____ _____    ______ ____
ROOT
ATOM     21  C   UNL     1      20.561   5.999   2.602  0.00  0.00    +0.090 C 
ATOM     22  N   UNL     1      20.633   5.921   1.267  0.00  0.00    -0.225 NA
ATOM     23  C   UNL     1      19.658   5.421   0.528  0.00  0.00    +0.189 C 
ATOM     24  N   UNL     1      19.706   5.319  -0.859  0.00  0.00    -0.295 N 
ATOM     25  H   UNL     1      18.760   5.187  -1.341  0.00  0.00    +0.154 HD
ATOM     41  C   UNL     1      18.415   4.981   1.187  0.00  0.00    +0.291 C 
ATOM     42  O   UNL     1      17.484   4.550   0.518  0.00  0.00    -0.264 OA
ATOM     43  N   UNL     1      18.355   5.060   2.541  0.00  0.00    -0.313 N 
ATOM     44  C   UNL     1      17.155   4.676   3.301  0.00  0.00    +0.152 C 
ATOM     45  C   UNL     1      19.426   5.550   3.229  0.00  0.00    +0.117 C 
ENDROOT
BRANCH  21  20
ATOM      1  C   UNL     1      20.299   7.998   4.974  0.00  0.00    +0.046 C 
ATOM      2  C   UNL     1      21.627   7.470   4.435  0.00  0.00    -0.020 A 
ATOM      3  C   UNL     1      22.812   7.921   5.051  0.00  0.00    +0.037 A 
ATOM     17  C   UNL     1      24.062   7.501   4.598  0.00  0.00    +0.023 A 
ATOM     18  C   UNL     1      24.164   6.615   3.533  0.00  0.00    +0.002 A 
ATOM     19  C   UNL     1      23.013   6.144   2.910  0.00  0.00    +0.010 A 
ATOM     20  C   UNL     1      21.732   6.554   3.348  0.00  0.00    +0.006 A 
BRANCH   3   4
ATOM      4  N   UNL     1      22.714   8.813   6.126  0.00  0.00    -0.281 N 
ATOM      5  H   UNL     1      22.772   9.864   5.937  0.00  0.00    +0.155 HD
ATOM      6  C   UNL     1      22.547   8.380   7.402  0.00  0.00    +0.255 C 
ATOM     16  O   UNL     1      22.491   7.185   7.658  0.00  0.00    -0.269 OA
BRANCH   6   7
ATOM      7  C   UNL     1      22.354   9.317   8.511  0.00  0.00    +0.075 A 
ATOM      8  S   UNL     1      22.301   8.789  10.168  0.00  0.00    -0.088 S 
ATOM      9  C   UNL     1      21.996  10.359  10.743  0.00  0.00    -0.006 A 
ATOM     10  C   UNL     1      21.820  10.705  12.211  0.00  0.00    +0.043 C 
ATOM     11  C   UNL     1      21.779  12.227  12.406  0.00  0.00    +0.005 C 
ATOM     12  C   UNL     1      20.953  12.885  11.299  0.00  0.00    +0.005 C 
ATOM     13  C   UNL     1      21.681  12.724   9.962  0.00  0.00    +0.036 C 
ATOM     14  C   UNL     1      21.938  11.242   9.723  0.00  0.00    -0.036 A 
ATOM     15  C   UNL     1      22.118  10.667   8.478  0.00  0.00    +0.024 A 
ENDBRANCH   6   7
ENDBRANCH   3   4
ENDBRANCH  21  20
BRANCH  24  26
ATOM     26  C   UNL     1      20.819   5.364  -1.719  0.00  0.00    +0.033 A 
ATOM     27  C   UNL     1      20.566   4.996  -3.042  0.00  0.00    +0.023 A 
ATOM     28  C   UNL     1      21.563   5.022  -3.986  0.00  0.00    +0.007 A 
ATOM     29  C   UNL     1      22.841   5.420  -3.649  0.00  0.00    -0.021 A 
ATOM     39  C   UNL     1      23.111   5.808  -2.338  0.00  0.00    +0.007 A 
ATOM     40  C   UNL     1      22.108   5.789  -1.382  0.00  0.00    +0.023 A 
BRANCH  29  30
ATOM     30  C   UNL     1      23.889   5.417  -4.743  0.00  0.00    +0.174 C 
ATOM     31  N   UNL     1      24.281   6.790  -5.115  0.00  0.00    -0.289 NA
ATOM     32  C   UNL     1      23.199   7.650  -5.633  0.00  0.00    +0.106 C 
ATOM     33  C   UNL     1      25.294   7.462  -4.269  0.00  0.00    +0.104 C 
ATOM     34  C   UNL     1      26.517   6.568  -3.983  0.00  0.00    +0.123 C 
ATOM     35  N   UNL     1      26.234   5.123  -3.942  0.00  0.00    -0.302 N 
ATOM     36  C   UNL     1      27.326   4.236  -3.508  0.00  0.00    +0.132 C 
ATOM     37  C   UNL     1      25.056   4.586  -4.295  0.00  0.00    +0.237 C 
ATOM     38  O   UNL     1      24.883   3.383  -4.248  0.00  0.00    -0.274 OA
ENDBRANCH  29  30
ENDBRANCH  24  26
TORSDOF 5
