REMARK  Name = 2yix_ligand
REMARK  9 active torsions:
REMARK  status: ('A' for Active; 'I' for Inactive)
REMARK    1  A    between atoms: C1_1  and  C2_2
REMARK    2  A    between atoms: C2_2  and  N3_3
REMARK    3  A    between atoms: N6_6  and  C7_7
REMARK    4  A    between atoms: C7_7  and  C8_8
REMARK    5  A    between atoms: C13_13  and  S14_14
REMARK    6  A    between atoms: S14_14  and  C15_15
REMARK    7  A    between atoms: C21_21  and  C22_22
REMARK    8  A    between atoms: C22_22  and  C23_23
REMARK    9  A    between atoms: C22_22  and  C24_24
REMARK                            x       y       z     vdW  Elec       q    Type
REMARK                         _______ _______ _______ _____ _____    ______ ____
ROOT
ATOM      9  C   UNL     1       5.411  13.490  31.185  0.00  0.00    -0.007 A 
ATOM     10  C   UNL     1       4.447  12.968  30.262  0.00  0.00    +0.031 A 
ATOM     24  C   UNL     1       4.889  12.144  29.188  0.00  0.00    +0.000 A 
ATOM     25  C   UNL     1       6.248  11.843  29.046  0.00  0.00    -0.020 A 
ATOM     26  C   UNL     1       7.207  12.347  29.960  0.00  0.00    -0.021 A 
ATOM     27  C   UNL     1       6.800  13.165  31.027  0.00  0.00    -0.010 A 
ENDROOT
BRANCH   9   8
ATOM      8  C   UNL     1       4.892  14.347  32.364  0.00  0.00    +0.197 C 
BRANCH   8   6
ATOM      3  N   UNL     1       6.918  16.221  34.894  0.00  0.00    -0.273 N 
ATOM      4  H   UNL     1       7.504  16.691  34.234  0.00  0.00    +0.185 HD
ATOM      5  C   UNL     1       5.970  15.370  34.397  0.00  0.00    +0.259 C 
ATOM      6  N   UNL     1       5.865  15.207  33.048  0.00  0.00    -0.263 N 
ATOM      7  H   UNL     1       6.506  15.717  32.475  0.00  0.00    +0.187 HD
ATOM     28  O   UNL     1       5.229  14.783  35.133  0.00  0.00    -0.401 OA
BRANCH   3   2
ATOM      1  C   UNL     1       8.528  17.230  36.398  0.00  0.00    +0.030 C 
ATOM      2  C   UNL     1       7.146  16.501  36.310  0.00  0.00    +0.131 C 
ENDBRANCH   3   2
ENDBRANCH   8   6
ENDBRANCH   9   8
BRANCH  10  11
ATOM     11  S   UNL     1       2.674  13.322  30.494  0.00  0.00    -0.054 S 
BRANCH  11  12
ATOM     12  C   UNL     1       2.103  11.727  30.954  0.00  0.00    +0.065 A 
ATOM     13  C   UNL     1       0.771  11.414  30.672  0.00  0.00    +0.212 A 
ATOM     14  N   UNL     1       0.248  10.158  30.996  0.00  0.00    -0.176 N 
ATOM     15  C   UNL     1      -0.980   9.614  30.815  0.00  0.00    +0.152 A 
ATOM     19  N   UNL     1      -0.952   8.387  31.321  0.00  0.00    -0.280 NA
ATOM     20  N   UNL     1       0.213   8.103  31.805  0.00  0.00    -0.297 NA
ATOM     21  C   UNL     1       1.022   9.185  31.642  0.00  0.00    +0.143 A 
ATOM     22  C   UNL     1       2.410   9.498  31.966  0.00  0.00    +0.043 A 
ATOM     23  C   UNL     1       2.950  10.750  31.620  0.00  0.00    +0.024 A 
BRANCH  15  16
ATOM     16  C   UNL     1      -2.131  10.360  30.159  0.00  0.00    +0.085 C 
ATOM     17  C   UNL     1      -3.437  10.146  30.886  0.00  0.00    +0.030 C 
ATOM     18  C   UNL     1      -2.364   9.926  28.724  0.00  0.00    +0.030 C 
ENDBRANCH  15  16
ENDBRANCH  11  12
ENDBRANCH  10  11
TORSDOF 6
