REMARK  Name = 3piz_ligand
REMARK  8 active torsions:
REMARK  status: ('A' for Active; 'I' for Inactive)
REMARK    1  A    between atoms: N1_1  and  C2_2
REMARK    2  A    between atoms: C3_3  and  N8_8
REMARK    3  A    between atoms: C5_5  and  C11_11
REMARK    4  A    between atoms: C7_7  and  C13_13
REMARK    5  A    between atoms: C13_13  and  C15_15
REMARK    6  A    between atoms: C19_19  and  C21_21
REMARK    7  A    between atoms: N27_27  and  S28_28
REMARK    8  A    between atoms: S28_28  and  C31_31
REMARK                            x       y       z     vdW  Elec       q    Type
REMARK                         _______ _______ _______ _____ _____    ______ ____
ROOT
ATOM      5  C   UNL     1     -19.668   5.298 -18.565  0.00  0.00    +0.125 C 
ATOM      6  O   UNL     1     -20.776   5.023 -18.991  0.00  0.00    -0.396 OA
ENDROOT
BRANCH   5   7
ATOM      7  C   UNL     1     -18.581   5.631 -19.552  0.00  0.00    +0.018 A 
ATOM      8  C   UNL     1     -18.642   5.016 -20.803  0.00  0.00    +0.010 A 
ATOM      9  C   UNL     1     -17.683   5.274 -21.771  0.00  0.00    -0.002 A 
ATOM     10  C   UNL     1     -16.650   6.158 -21.489  0.00  0.00    +0.003 A 
ATOM     11  C   UNL     1     -16.564   6.788 -20.250  0.00  0.00    -0.035 A 
ATOM     22  C   UNL     1     -17.536   6.523 -19.271  0.00  0.00    +0.018 A 
BRANCH  11  12
ATOM     12  C   UNL     1     -15.416   7.713 -20.028  0.00  0.00    +0.043 C 
ATOM     13  C   UNL     1     -14.215   6.872 -19.564  0.00  0.00    +0.038 C 
ATOM     14  C   UNL     1     -13.084   7.714 -18.973  0.00  0.00    +0.127 C 
ATOM     15  N   UNL     1     -13.643   8.525 -17.874  0.00  0.00    -0.238 NA
ATOM     20  C   UNL     1     -14.541   9.545 -18.460  0.00  0.00    +0.127 C 
ATOM     21  C   UNL     1     -15.766   8.838 -19.043  0.00  0.00    +0.038 C 
BRANCH  15  16
ATOM     16  S   UNL     1     -12.459   9.147 -16.953  0.00  0.00    +0.039 S 
ATOM     17  C   UNL     1     -13.030   9.441 -15.417  0.00  0.00    +0.218 C 
ATOM     18  O   UNL     1     -11.962  10.385 -17.504  0.00  0.00    -0.156 OA
ATOM     19  O   UNL     1     -11.386   8.180 -16.870  0.00  0.00    -0.156 OA
ENDBRANCH  15  16
ENDBRANCH  11  12
ENDBRANCH   5   7
BRANCH   5   4
ATOM      1  N   UNL     1     -19.727   5.244 -14.863  0.00  0.00    -0.140 N 
ATOM      2  N   UNL     1     -18.361   5.314 -15.118  0.00  0.00    -0.222 NA
ATOM      3  C   UNL     1     -18.173   5.339 -16.490  0.00  0.00    +0.059 A 
ATOM      4  C   UNL     1     -19.422   5.290 -17.094  0.00  0.00    +0.065 A 
ATOM     23  C   UNL     1     -20.386   5.229 -16.084  0.00  0.00    +0.194 A 
BRANCH   1  27
ATOM     27  C   UNL     1     -20.255   5.198 -13.632  0.00  0.00    +0.114 A 
ATOM     28  C   UNL     1     -20.898   6.328 -13.108  0.00  0.00    +0.023 A 
ATOM     29  C   UNL     1     -21.432   6.293 -11.816  0.00  0.00    -0.019 A 
ATOM     30  C   UNL     1     -21.310   5.128 -11.054  0.00  0.00    -0.022 A 
ATOM     31  C   UNL     1     -20.661   3.998 -11.573  0.00  0.00    -0.011 A 
ATOM     32  C   UNL     1     -20.133   4.037 -12.862  0.00  0.00    -0.010 A 
ATOM     33  C   UNL     1     -19.443   2.812 -13.413  0.00  0.00    +0.082 C 
ENDBRANCH   1  27
BRANCH  23  24
ATOM     24  N   UNL     1     -21.730   5.159 -16.251  0.00  0.00    -0.300 N 
ATOM     25  H   UNL     1     -22.344   5.119 -15.437  0.00  0.00    +0.183 HD
ATOM     26  H   UNL     1     -22.127   5.147 -17.190  0.00  0.00    +0.183 HD
ENDBRANCH  23  24
ENDBRANCH   5   4
TORSDOF 6
