REMARK  Name = 2xnb_ligand
REMARK  5 active torsions:
REMARK  status: ('A' for Active; 'I' for Inactive)
REMARK    1  A    between atoms: N16_6  and  C12_7
REMARK    2  A    between atoms: C9_12  and  N7_13
REMARK    3  A    between atoms: C6_19  and  C15_20
REMARK    4  A    between atoms: N25_24  and  C29_25
REMARK    5  A    between atoms: C26_26  and  C27_27
REMARK                            x       y       z     vdW  Elec       q    Type
REMARK                         _______ _______ _______ _____ _____    ______ ____
ROOT
ATOM      7  N   UNL     1      23.753  29.812  28.968  0.00  0.00    -0.253 N 
ATOM      8  H   UNL     1      23.151  30.378  29.584  0.00  0.00    +0.214 HD
ATOM      9  C   UNL     1      24.842  30.429  28.472  0.00  0.00    +0.182 A 
ATOM     10  N   UNL     1      24.930  31.755  28.691  0.00  0.00    -0.277 NA
ATOM     11  C   UNL     1      25.945  32.478  28.244  0.00  0.00    +0.074 A 
ATOM     12  C   UNL     1      26.946  31.872  27.505  0.00  0.00    +0.013 A 
ATOM     13  C   UNL     1      26.865  30.501  27.258  0.00  0.00    +0.019 A 
ATOM     22  N   UNL     1      25.786  29.832  27.713  0.00  0.00    -0.281 NA
ENDROOT
BRANCH  13  14
ATOM     14  C   UNL     1      27.837  29.897  26.443  0.00  0.00    +0.064 A 
ATOM     15  C   UNL     1      27.837  28.572  25.975  0.00  0.00    +0.088 A 
ATOM     16  C   UNL     1      26.804  27.516  26.378  0.00  0.00    +0.147 C 
ATOM     17  N   UNL     1      28.842  28.279  25.139  0.00  0.00    -0.196 N 
ATOM     18  C   UNL     1      29.025  26.926  24.541  0.00  0.00    +0.230 C 
ATOM     19  C   UNL     1      29.677  29.286  24.871  0.00  0.00    +0.283 A 
ATOM     20  O   UNL     1      30.676  29.188  24.162  0.00  0.00    -0.374 OA
ATOM     21  S   UNL     1      29.207  30.663  25.737  0.00  0.00    +0.001 S 
ENDBRANCH  13  14
BRANCH   7   6
ATOM      3  C   UNL     1      22.470  25.869  28.457  0.00  0.00    +0.030 A 
ATOM      4  C   UNL     1      22.009  26.643  29.518  0.00  0.00    -0.004 A 
ATOM      5  C   UNL     1      22.471  27.957  29.661  0.00  0.00    +0.002 A 
ATOM      6  C   UNL     1      23.358  28.543  28.754  0.00  0.00    +0.053 A 
ATOM     23  C   UNL     1      23.819  27.755  27.710  0.00  0.00    +0.002 A 
ATOM     24  C   UNL     1      23.389  26.428  27.566  0.00  0.00    -0.004 A 
BRANCH   3   2
ATOM      1  C   UNL     1      21.030  24.009  29.256  0.00  0.00    +0.177 C 
ATOM      2  N   UNL     1      21.999  24.549  28.282  0.00  0.00    -0.304 N 
ATOM     25  C   UNL     1      22.313  23.826  27.037  0.00  0.00    +0.177 C 
ATOM     26  C   UNL     1      21.547  22.504  26.975  0.00  0.00    +0.153 C 
ATOM     27  N   UNL     1      21.724  21.821  28.249  0.00  0.00    +0.230 N 
ATOM     28  H   UNL     1      22.689  21.878  28.535  0.00  0.00    +0.202 HD
ATOM     29  H   UNL     1      21.458  20.853  28.156  0.00  0.00    +0.202 HD
ATOM     30  C   UNL     1      20.870  22.477  29.251  0.00  0.00    +0.153 C 
ENDBRANCH   3   2
ENDBRANCH   7   6
TORSDOF 3
