REMARK  Name = 3pp1_ligand
REMARK  8 active torsions:
REMARK  status: ('A' for Active; 'I' for Inactive)
REMARK    1  A    between atoms: C1_1  and  N2_2
REMARK    2  A    between atoms: N6_6  and  C7_7
REMARK    3  A    between atoms: C7_7  and  C8_8
REMARK    4  A    between atoms: C8_8  and  O10_9
REMARK    5  A    between atoms: C8_8  and  C11_10
REMARK    6  A    between atoms: C11_10  and  O12_11
REMARK    7  A    between atoms: C16_15  and  N17_16
REMARK    8  A    between atoms: N17_16  and  C18_17
REMARK                            x       y       z     vdW  Elec       q    Type
REMARK                         _______ _______ _______ _____ _____    ______ ____
ROOT
ATOM      1  C   UNL     1     -34.643  33.018   2.736  0.00  0.00    +0.222 C 
ATOM      2  N   UNL     1     -34.337  32.016   3.749  0.00  0.00    -0.199 N 
ATOM      3  C   UNL     1     -35.338  31.574   4.535  0.00  0.00    +0.273 C 
ATOM      4  O   UNL     1     -36.487  31.993   4.394  0.00  0.00    -0.375 OA
ATOM      5  C   UNL     1     -35.093  30.619   5.527  0.00  0.00    +0.400 C 
ATOM      6  F   UNL     1     -36.124  30.209   6.286  0.00  0.00    -0.191 F 
ATOM      7  C   UNL     1     -33.818  30.094   5.725  0.00  0.00    +0.155 C 
ATOM     18  C   UNL     1     -32.734  30.587   4.874  0.00  0.00    +0.120 C 
ATOM     19  C   UNL     1     -31.384  30.114   4.999  0.00  0.00    +0.180 C 
ATOM     20  O   UNL     1     -31.099  29.272   5.842  0.00  0.00    -0.412 OA
ATOM     21  N   UNL     1     -30.421  30.628   4.153  0.00  0.00    -0.277 N 
ATOM     29  C   UNL     1     -30.791  31.569   3.225  0.00  0.00    +0.154 C 
ATOM     30  N   UNL     1     -32.034  32.010   3.098  0.00  0.00    -0.385 NA
ATOM     31  C   UNL     1     -33.041  31.559   3.887  0.00  0.00    +0.109 C 
ENDROOT
BRANCH   7   8
ATOM      8  N   UNL     1     -33.541  29.140   6.691  0.00  0.00    -0.236 N 
ATOM      9  H   UNL     1     -32.702  29.304   7.248  0.00  0.00    +0.231 HD
BRANCH   8  10
ATOM     10  C   UNL     1     -34.261  27.980   7.004  0.00  0.00    +0.111 A 
ATOM     11  C   UNL     1     -33.811  27.207   8.081  0.00  0.00    +0.160 A 
ATOM     12  F   UNL     1     -32.711  27.590   8.778  0.00  0.00    -0.189 F 
ATOM     13  C   UNL     1     -34.502  26.043   8.445  0.00  0.00    +0.035 A 
ATOM     14  C   UNL     1     -35.640  25.619   7.749  0.00  0.00    -0.003 A 
ATOM     15  I   UNL     1     -36.686  23.852   8.304  0.00  0.00    -0.059 I 
ATOM     16  C   UNL     1     -36.070  26.400   6.669  0.00  0.00    -0.005 A 
ATOM     17  C   UNL     1     -35.398  27.568   6.306  0.00  0.00    +0.020 A 
ENDBRANCH   8  10
ENDBRANCH   7   8
BRANCH  21  22
ATOM     22  C   UNL     1     -29.019  30.145   4.203  0.00  0.00    +0.169 C 
BRANCH  22  23
ATOM     23  C   UNL     1     -27.994  31.064   4.880  0.00  0.00    +0.162 C 
BRANCH  23  27
ATOM     27  O   UNL     1     -28.379  31.346   6.232  0.00  0.00    -0.388 OA
ATOM     28  H   UNL     1     -28.433  30.525   6.726  0.00  0.00    +0.210 HD
ENDBRANCH  23  27
BRANCH  23  24
ATOM     24  C   UNL     1     -26.618  30.361   4.842  0.00  0.00    +0.189 C 
BRANCH  24  25
ATOM     25  O   UNL     1     -26.080  30.046   6.143  0.00  0.00    -0.392 OA
ATOM     26  H   UNL     1     -25.970  30.855   6.647  0.00  0.00    +0.209 HD
ENDBRANCH  24  25
ENDBRANCH  23  24
ENDBRANCH  22  23
ENDBRANCH  21  22
TORSDOF 7
