REMARK  Name = 3mb7_ligand
REMARK  2 active torsions:
REMARK  status: ('A' for Active; 'I' for Inactive)
REMARK    1  A    between atoms: CAL_12  and  CAR_18
REMARK    2  A    between atoms: CAO_15  and  CAQ_17
REMARK                            x       y       z     vdW  Elec       q    Type
REMARK                         _______ _______ _______ _____ _____    ______ ____
ROOT
ATOM      1  C   UNL     1      22.866   9.397  11.257  0.00  0.00    -0.011 A 
ATOM      2  C   UNL     1      22.918   8.130  11.855  0.00  0.00    -0.038 A 
ATOM      3  C   UNL     1      23.081   7.012  11.024  0.00  0.00    -0.011 A 
ATOM      4  C   UNL     1      23.146   5.730  11.536  0.00  0.00    +0.027 A 
ATOM      5  C   UNL     1      23.036   5.568  12.907  0.00  0.00    +0.125 A 
ATOM      6  O   UNL     1      23.084   4.383  13.657  0.00  0.00    -0.247 OA
ATOM      7  C   UNL     1      22.925   4.752  14.970  0.00  0.00    +0.152 A 
ATOM     11  C   UNL     1      22.801   6.132  15.177  0.00  0.00    +0.010 A 
ATOM     12  C   UNL     1      22.871   6.685  13.847  0.00  0.00    -0.002 A 
ATOM     13  C   UNL     1      22.802   7.979  13.341  0.00  0.00    -0.029 A 
ATOM     14  C   UNL     1      22.648   9.144  14.083  0.00  0.00    -0.002 A 
ATOM     15  C   UNL     1      22.514   9.402  15.495  0.00  0.00    +0.010 A 
ATOM     16  C   UNL     1      22.389  10.800  15.571  0.00  0.00    +0.152 A 
ATOM     20  O   UNL     1      22.440  11.447  14.359  0.00  0.00    -0.247 OA
ATOM     21  C   UNL     1      22.596  10.436  13.387  0.00  0.00    +0.125 A 
ATOM     22  C   UNL     1      22.701  10.561  12.009  0.00  0.00    +0.027 A 
ENDROOT
BRANCH   7   8
ATOM      8  C   UNL     1      22.900   3.700  16.008  0.00  0.00    +0.097 C 
ATOM      9  O   UNL     1      22.781   4.007  17.217  0.00  0.00    -0.559 OA
ATOM     10  O   UNL     1      23.013   2.532  15.574  0.00  0.00    -0.559 OA
ENDBRANCH   7   8
BRANCH  16  17
ATOM     17  C   UNL     1      22.228  11.601  16.808  0.00  0.00    +0.097 C 
ATOM     18  O   UNL     1      22.136  12.834  16.668  0.00  0.00    -0.559 OA
ATOM     19  O   UNL     1      22.176  11.035  17.912  0.00  0.00    -0.559 OA
ENDBRANCH  16  17
TORSDOF 2
