REMARK  Name = 2VAG
REMARK  8 active torsions:
REMARK  status: ('A' for Active; 'I' for Inactive)
REMARK    1  A    between atoms: C_1  and  C_2
REMARK    2  A    between atoms: C_2  and  O_3
REMARK    3  A    between atoms: O_3  and  C_4
REMARK    4  A    between atoms: C_4  and  C_6
REMARK    5  A    between atoms: N_7  and  C_8
REMARK    6  A    between atoms: C_17  and  C_18
REMARK    7  A    between atoms: C_18  and  C_19
REMARK    8  A    between atoms: C_18  and  C_21
REMARK                            x       y       z     vdW  Elec       q    Type
REMARK                         _______ _______ _______ _____ _____    ______ ____
ROOT
ATOM      5  C   UNL     1       7.499  14.728  20.944  0.00  0.00    +0.133 A 
ATOM      6  C   UNL     1       6.999  13.427  20.848  0.00  0.00    +0.020 A 
ATOM     13  C   UNL     1       6.875  12.977  22.161  0.00  0.00    +0.007 A 
ATOM     14  C   UNL     1       6.448  11.781  22.713  0.00  0.00    +0.012 A 
ATOM     15  C   UNL     1       6.380  11.618  24.085  0.00  0.00    +0.022 A 
ATOM     16  C   UNL     1       6.760  12.639  24.938  0.00  0.00    +0.061 A 
ATOM     17 CL   UNL     1       6.691  12.373  26.654  0.00  0.00    -0.082 Cl
ATOM     18  C   UNL     1       7.183  13.830  24.416  0.00  0.00    +0.083 A 
ATOM     19 CL   UNL     1       7.613  15.066  25.551  0.00  0.00    -0.080 Cl
ATOM     20  C   UNL     1       7.228  14.032  23.034  0.00  0.00    +0.070 A 
ATOM     21  N   UNL     1       7.584  15.044  22.282  0.00  0.00    -0.336 N 
ATOM     22  C   UNL     1       8.023  16.339  22.806  0.00  0.00    +0.150 C 
ENDROOT
BRANCH   5   4
ATOM      4  C   UNL     1       7.708  15.698  19.794  0.00  0.00    +0.356 C 
ATOM     23  O   UNL     1       7.959  16.887  19.975  0.00  0.00    -0.243 OA
BRANCH   4   3
ATOM      3  O   UNL     1       7.397  15.341  18.531  0.00  0.00    -0.460 OA
BRANCH   3   2
ATOM      1  C   UNL     1       7.933  15.402  16.256  0.00  0.00    +0.048 C 
ATOM      2  C   UNL     1       7.917  16.249  17.547  0.00  0.00    +0.229 C 
ENDBRANCH   3   2
ENDBRANCH   4   3
ENDBRANCH   5   4
BRANCH   6   7
ATOM      7  C   UNL     1       6.797  12.576  19.730  0.00  0.00    +0.146 C 
BRANCH   7   8
ATOM      8  C   UNL     1       7.838  12.309  18.811  0.00  0.00    +0.103 C 
ATOM      9  N   UNL     1       9.018  12.912  18.775  0.00  0.00    -0.310 NA
ATOM     10  H   UNL     1       9.739  12.634  18.035  0.00  0.00    +0.186 HD
ENDBRANCH   7   8
BRANCH   7  11
ATOM     11  C   UNL     1       5.642  11.771  19.536  0.00  0.00    +0.082 C 
ATOM     12  N   UNL     1       4.722  11.120  19.382  0.00  0.00    -0.195 NA
ENDBRANCH   7  11
ENDBRANCH   6   7
TORSDOF 6
