REMARK  Name = 5VAM
REMARK  8 active torsions:
REMARK  status: ('A' for Active; 'I' for Inactive)
REMARK    1  A    between atoms: C_1  and  C_38
REMARK    2  A    between atoms: C_2  and  C_21
REMARK    3  A    between atoms: C_4  and  O_30
REMARK    4  A    between atoms: C_10  and  C_11
REMARK    5  A    between atoms: C_15  and  C_17
REMARK    6  A    between atoms: N_23  and  C_34
REMARK    7  A    between atoms: N_25  and  C_33
REMARK    8  A    between atoms: C_27  and  O_30
REMARK                            x       y       z     vdW  Elec       q    Type
REMARK                         _______ _______ _______ _____ _____    ______ ____
ROOT
ATOM      1  C   UNL     1     -22.299  42.998  -1.784  0.00  0.00    +0.046 A 
ATOM      2  C   UNL     1     -22.281  42.509  -3.225  0.00  0.00    +0.066 C 
ATOM      3  N   UNL     1     -21.155  43.531  -1.303  0.00  0.00    -0.258 NA
ATOM      4  C   UNL     1     -21.047  43.967  -0.024  0.00  0.00    +0.134 A 
ATOM      5  C   UNL     1     -22.129  43.890   0.864  0.00  0.00    +0.052 A 
ATOM     20  C   UNL     1     -23.343  43.393   0.387  0.00  0.00    +0.035 A 
ATOM     21  C   UNL     1     -23.430  42.943  -0.939  0.00  0.00    +0.006 A 
ENDROOT
BRANCH  21  22
ATOM     22  C   UNL     1     -24.752  42.479  -1.397  0.00  0.00    +0.004 A 
ATOM     23  C   UNL     1     -24.957  41.123  -1.686  0.00  0.00    +0.038 A 
ATOM     24  C   UNL     1     -26.232  40.692  -2.091  0.00  0.00    +0.093 A 
ATOM     31  C   UNL     1     -27.244  41.665  -2.219  0.00  0.00    +0.237 A 
ATOM     32  N   UNL     1     -26.991  42.968  -1.940  0.00  0.00    -0.219 NA
ATOM     40  C   UNL     1     -25.794  43.404  -1.523  0.00  0.00    +0.123 A 
BRANCH  24  25
ATOM     25  N   UNL     1     -26.498  39.300  -2.287  0.00  0.00    -0.321 N 
ATOM     26  C   UNL     1     -26.997  38.839  -3.610  0.00  0.00    +0.133 C 
ATOM     27  C   UNL     1     -27.631  37.435  -3.474  0.00  0.00    +0.178 C 
ATOM     28  O   UNL     1     -26.687  36.539  -2.844  0.00  0.00    -0.377 OA
ATOM     29  C   UNL     1     -26.288  36.937  -1.520  0.00  0.00    +0.178 C 
ATOM     30  C   UNL     1     -25.591  38.317  -1.616  0.00  0.00    +0.133 C 
ENDBRANCH  24  25
BRANCH  31  33
ATOM     33  O   UNL     1     -28.504  41.250  -2.631  0.00  0.00    -0.472 OA
BRANCH  33  34
ATOM     34  C   UNL     1     -29.664  42.101  -2.531  0.00  0.00    +0.180 C 
ATOM     35  C   UNL     1     -30.801  41.561  -3.450  0.00  0.00    +0.073 C 
ATOM     36  C   UNL     1     -31.264  40.163  -2.937  0.00  0.00    +0.163 C 
ATOM     37  O   UNL     1     -31.641  40.231  -1.542  0.00  0.00    -0.380 OA
ATOM     38  C   UNL     1     -30.601  40.660  -0.629  0.00  0.00    +0.163 C 
ATOM     39  C   UNL     1     -30.142  42.082  -1.047  0.00  0.00    +0.073 C 
ENDBRANCH  33  34
ENDBRANCH  31  33
ENDBRANCH  21  22
BRANCH   5   6
ATOM      6  N   UNL     1     -21.864  44.183   2.224  0.00  0.00    -0.280 N 
ATOM      7  H   UNL     1     -21.214  45.010   2.420  0.00  0.00    +0.155 HD
ATOM      8  C   UNL     1     -22.353  43.518   3.307  0.00  0.00    +0.248 C 
ATOM      9  O   UNL     1     -23.172  42.608   3.249  0.00  0.00    -0.270 OA
BRANCH   8  10
ATOM     10  C   UNL     1     -21.821  43.918   4.666  0.00  0.00    +0.038 A 
ATOM     11  C   UNL     1     -22.012  43.071   5.775  0.00  0.00    +0.025 A 
ATOM     12  C   UNL     1     -21.486  43.422   7.035  0.00  0.00    +0.056 A 
ATOM     17  C   UNL     1     -20.716  44.595   7.171  0.00  0.00    +0.012 A 
ATOM     18  C   UNL     1     -20.520  45.443   6.067  0.00  0.00    +0.001 A 
ATOM     19  C   UNL     1     -21.079  45.112   4.823  0.00  0.00    +0.013 A 
BRANCH  12  13
ATOM     13  C   UNL     1     -21.781  42.535   8.239  0.00  0.00    +0.417 C 
ATOM     14  F   UNL     1     -21.754  43.189   9.425  0.00  0.00    -0.166 F 
ATOM     15  F   UNL     1     -20.835  41.582   8.255  0.00  0.00    -0.166 F 
ATOM     16  F   UNL     1     -22.995  41.948   8.125  0.00  0.00    -0.166 F 
ENDBRANCH  12  13
ENDBRANCH   8  10
ENDBRANCH   5   6
TORSDOF 7
