REMARK  Name = 5EW9
REMARK  6 active torsions:
REMARK  status: ('A' for Active; 'I' for Inactive)
REMARK    1  A    between atoms: C_1  and  N_16
REMARK    2  A    between atoms: C_5  and  C_17
REMARK    3  A    between atoms: O_8  and  C_9
REMARK    4  A    between atoms: O_8  and  C_24
REMARK    5  A    between atoms: C_17  and  C_18
REMARK    6  A    between atoms: C_18  and  C_19
REMARK                            x       y       z     vdW  Elec       q    Type
REMARK                         _______ _______ _______ _____ _____    ______ ____
ROOT
ATOM      5  C   UNL     1     -12.243   9.106  19.242  0.00  0.00    +0.016 C 
ATOM      6  C   UNL     1     -12.326   9.045  17.716  0.00  0.00    +0.016 C 
ATOM      7  C   UNL     1     -11.476  10.156  17.107  0.00  0.00    +0.045 C 
ATOM      8  C   UNL     1     -10.015   9.990  17.539  0.00  0.00    +0.174 C 
ATOM      9  C   UNL     1      -9.943  10.090  19.071  0.00  0.00    +0.045 C 
ATOM     19  C   UNL     1     -10.785   8.981  19.692  0.00  0.00    +0.016 C 
ENDROOT
BRANCH   5  20
ATOM     20  C   UNL     1     -12.962   7.907  19.781  0.00  0.00    +0.048 C 
ATOM     21  O   UNL     1     -13.766   7.286  19.006  0.00  0.00    -0.549 OA
ATOM     22  O   UNL     1     -12.725   7.574  20.984  0.00  0.00    -0.549 OA
ENDBRANCH   5  20
BRANCH   5   4
ATOM      4  C   UNL     1     -12.851  10.432  19.746  0.00  0.00    +0.068 C 
BRANCH   4   3
ATOM      1  C   UNL     1     -15.745  11.585  17.790  0.00  0.00    +0.125 A 
ATOM      2  N   UNL     1     -14.491  11.450  18.225  0.00  0.00    -0.237 NA
ATOM      3  C   UNL     1     -14.258  10.609  19.238  0.00  0.00    +0.044 A 
ATOM     23  C   UNL     1     -15.282   9.880  19.836  0.00  0.00    +0.023 A 
ATOM     24  C   UNL     1     -16.592  10.012  19.385  0.00  0.00    +0.005 A 
ATOM     32  C   UNL     1     -16.825  10.886  18.344  0.00  0.00    +0.044 A 
BRANCH   1  25
ATOM     25  N   UNL     1     -16.063  12.468  16.708  0.00  0.00    -0.279 N 
ATOM     26  H   UNL     1     -16.801  13.144  17.087  0.00  0.00    +0.156 HD
ATOM     27  C   UNL     1     -15.086  13.282  16.047  0.00  0.00    +0.163 A 
ATOM     28  S   UNL     1     -13.414  13.226  16.499  0.00  0.00    -0.060 S 
ATOM     29  C   UNL     1     -13.113  14.403  15.249  0.00  0.00    +0.068 A 
ATOM     30  C   UNL     1     -14.282  14.740  14.616  0.00  0.00    +0.120 A 
ATOM     31  N   UNL     1     -15.404  14.094  15.074  0.00  0.00    -0.233 NA
ENDBRANCH   1  25
ENDBRANCH   4   3
ENDBRANCH   5   4
BRANCH   8  10
ATOM     10  O   UNL     1      -9.312  11.101  17.019  0.00  0.00    -0.486 OA
BRANCH  10  11
ATOM     11  C   UNL     1      -9.210  11.150  15.654  0.00  0.00    +0.157 A 
ATOM     12  C   UNL     1      -8.877  10.031  14.891  0.00  0.00    +0.049 A 
ATOM     13  C   UNL     1      -8.781  10.205  13.506  0.00  0.00    +0.005 A 
ATOM     14  C   UNL     1      -8.997  11.440  12.878  0.00  0.00    +0.023 A 
ATOM     15  C   UNL     1      -9.329  12.528  13.684  0.00  0.00    +0.080 A 
ATOM     16 CL   UNL     1      -9.649  14.117  13.062  0.00  0.00    -0.080 Cl
ATOM     17  C   UNL     1      -9.428  12.364  15.044  0.00  0.00    +0.183 A 
ATOM     18  F   UNL     1      -9.757  13.434  15.781  0.00  0.00    -0.200 F 
ENDBRANCH  10  11
ENDBRANCH   8  10
TORSDOF 6
