REMARK  Name = 2i40_ligand
REMARK  10 active torsions:
REMARK  status: ('A' for Active; 'I' for Inactive)
REMARK    1  A    between atoms: C1_1  and  O2_2
REMARK    2  A    between atoms: O2_2  and  C3_3
REMARK    3  A    between atoms: N8_8  and  C9_9
REMARK    4  A    between atoms: C11_11  and  O12_12
REMARK    5  A    between atoms: O12_12  and  C13_13
REMARK    6  A    between atoms: C13_13  and  C14_14
REMARK    7  A    between atoms: C13_13  and  C15_15
REMARK    8  A    between atoms: C22_22  and  C24_24
REMARK    9  A    between atoms: C29_29  and  O30_30
REMARK   10  A    between atoms: O30_30  and  C31_31
REMARK                            x       y       z     vdW  Elec       q    Type
REMARK                         _______ _______ _______ _____ _____    ______ ____
ROOT
ATOM     10  C   UNL     1     -13.580 205.799 111.140  0.00  0.00    +0.158 A 
ATOM     11  S   UNL     1     -15.111 206.458 110.746  0.00  0.00    -0.008 S 
ATOM     12  C   UNL     1     -15.911 205.431 111.860  0.00  0.00    +0.105 A 
ATOM     18  C   UNL     1     -15.017 204.601 112.503  0.00  0.00    +0.088 A 
ATOM     29  C   UNL     1     -13.670 204.810 112.095  0.00  0.00    +0.032 A 
ENDROOT
BRANCH  10   9
ATOM      3  C   UNL     1      -8.754 207.478 111.664  0.00  0.00    +0.108 A 
ATOM      4  C   UNL     1      -9.537 206.927 112.653  0.00  0.00    +0.111 A 
ATOM      7  C   UNL     1     -10.829 206.495 112.416  0.00  0.00    +0.032 A 
ATOM      8  C   UNL     1     -11.273 206.659 111.119  0.00  0.00    +0.089 A 
ATOM      9  N   UNL     1     -12.469 206.349 110.524  0.00  0.00    -0.185 N 
ATOM     30  C   UNL     1     -12.376 206.733 109.216  0.00  0.00    +0.253 A 
ATOM     31  N   UNL     1     -11.202 207.251 108.935  0.00  0.00    -0.312 NA
ATOM     32  C   UNL     1     -10.503 207.212 110.112  0.00  0.00    +0.020 A 
ATOM     33  C   UNL     1      -9.211 207.638 110.371  0.00  0.00    +0.006 A 
BRANCH   3   2
ATOM      1  C   UNL     1      -6.790 208.402 110.949  0.00  0.00    +0.226 C 
ATOM      2  O   UNL     1      -7.479 207.861 112.060  0.00  0.00    -0.330 OA
ENDBRANCH   3   2
BRANCH   4   5
ATOM      5  O   UNL     1      -8.923 206.841 113.899  0.00  0.00    -0.329 OA
ATOM      6  C   UNL     1      -9.805 206.262 114.847  0.00  0.00    +0.228 C 
ENDBRANCH   4   5
ENDBRANCH  10   9
BRANCH  12  13
ATOM     13  C   UNL     1     -17.327 205.541 111.997  0.00  0.00    +0.177 C 
ATOM     14  N   UNL     1     -17.847 204.560 112.792  0.00  0.00    -0.308 N 
ATOM     15  H   UNL     1     -17.244 203.874 113.199  0.00  0.00    +0.178 HD
ATOM     16  H   UNL     1     -18.831 204.527 112.967  0.00  0.00    +0.178 HD
ATOM     17  O   UNL     1     -18.003 206.420 111.485  0.00  0.00    -0.412 OA
ENDBRANCH  12  13
BRANCH  18  19
ATOM     19  O   UNL     1     -15.460 203.719 113.434  0.00  0.00    -0.313 OA
BRANCH  19  20
ATOM     20  C   UNL     1     -14.703 203.669 114.662  0.00  0.00    +0.192 C 
ATOM     28  C   UNL     1     -15.566 202.948 115.673  0.00  0.00    +0.060 C 
BRANCH  20  21
ATOM     21  C   UNL     1     -14.285 204.993 115.262  0.00  0.00    +0.004 A 
ATOM     22  C   UNL     1     -13.112 205.112 115.996  0.00  0.00    +0.044 A 
ATOM     23 CL   UNL     1     -12.191 203.966 116.242  0.00  0.00    -0.077 Cl
ATOM     24  C   UNL     1     -12.756 206.329 116.535  0.00  0.00    +0.006 A 
ATOM     25  C   UNL     1     -13.550 207.438 116.351  0.00  0.00    -0.012 A 
ATOM     26  C   UNL     1     -14.714 207.332 115.626  0.00  0.00    -0.008 A 
ATOM     27  C   UNL     1     -15.074 206.116 115.092  0.00  0.00    -0.001 A 
ENDBRANCH  20  21
ENDBRANCH  19  20
ENDBRANCH  18  19
TORSDOF 7
