REMARK  Name = 5AA9
REMARK  5 active torsions:
REMARK  status: ('A' for Active; 'I' for Inactive)
REMARK    1  A    between atoms: C_1  and  C_7
REMARK    2  A    between atoms: C_15  and  N_27
REMARK    3  A    between atoms: C_18  and  C_19
REMARK    4  A    between atoms: C_20  and  N_25
REMARK    5  A    between atoms: C_21  and  N_26
REMARK                            x       y       z     vdW  Elec       q    Type
REMARK                         _______ _______ _______ _____ _____    ______ ____
ROOT
ATOM      3  C   UNL     1      28.075  48.943   7.184  0.00  0.00    +0.146 A 
ATOM      4  N   UNL     1      28.727  49.977   6.534  0.00  0.00    -0.256 N 
ATOM      5  N   UNL     1      30.057  49.910   6.587  0.00  0.00    -0.173 NA
ATOM      6  C   UNL     1      30.319  48.803   7.292  0.00  0.00    +0.089 A 
ATOM      7  C   UNL     1      31.786  48.467   7.523  0.00  0.00    +0.165 C 
ATOM      8  N   UNL     1      32.411  47.496   6.548  0.00  0.00    -0.295 N 
ATOM      9  C   UNL     1      32.115  47.696   5.119  0.00  0.00    +0.133 C 
ATOM     10  C   UNL     1      33.281  46.391   6.873  0.00  0.00    +0.247 C 
ATOM     11  O   UNL     1      33.774  45.620   6.037  0.00  0.00    -0.270 OA
ATOM     12  C   UNL     1      33.664  46.084   8.291  0.00  0.00    +0.044 A 
ATOM     13  C   UNL     1      33.172  44.918   9.020  0.00  0.00    +0.007 A 
ATOM     14  C   UNL     1      32.190  43.869   8.420  0.00  0.00    +0.202 C 
ATOM     15  O   UNL     1      30.966  43.709   9.223  0.00  0.00    -0.481 OA
ATOM     16  C   UNL     1      29.955  44.676   9.229  0.00  0.00    +0.161 A 
ATOM     17  C   UNL     1      28.815  44.442  10.038  0.00  0.00    +0.158 A 
ATOM     21  N   UNL     1      27.778  45.353  10.100  0.00  0.00    -0.236 NA
ATOM     22  C   UNL     1      27.855  46.522   9.360  0.00  0.00    +0.121 A 
ATOM     23  C   UNL     1      28.946  46.856   8.522  0.00  0.00    +0.008 A 
ATOM     24  C   UNL     1      29.970  45.886   8.495  0.00  0.00    +0.059 A 
ATOM     25  C   UNL     1      32.827  42.469   8.344  0.00  0.00    +0.057 C 
ATOM     26  C   UNL     1      33.630  44.754  10.378  0.00  0.00    +0.046 A 
ATOM     27  C   UNL     1      34.520  45.691  10.965  0.00  0.00    +0.124 A 
ATOM     28  F   UNL     1      34.925  45.512  12.225  0.00  0.00    -0.205 F 
ATOM     29  C   UNL     1      34.985  46.808  10.249  0.00  0.00    +0.039 A 
ATOM     30  C   UNL     1      34.564  47.010   8.914  0.00  0.00    +0.016 A 
ATOM     31  C   UNL     1      28.129  51.097   5.825  0.00  0.00    +0.174 C 
ATOM     32  C   UNL     1      29.094  48.118   7.715  0.00  0.00    +0.044 A 
ENDROOT
BRANCH  17  18
ATOM     18  N   UNL     1      28.725  43.263  10.806  0.00  0.00    -0.340 N 
ATOM     19  H   UNL     1      27.864  43.087  11.417  0.00  0.00    +0.144 HD
ATOM     20  H   UNL     1      29.517  42.545  10.778  0.00  0.00    +0.144 HD
ENDBRANCH  17  18
BRANCH   3   1
ATOM      1  C   UNL     1      26.646  48.824   7.250  0.00  0.00    +0.119 C 
ATOM      2  N   UNL     1      25.497  48.713   7.328  0.00  0.00    -0.189 NA
ENDBRANCH   3   1
TORSDOF 2
