REMARK  Name = B9K
REMARK  4 active torsions:
REMARK  status: ('A' for Active; 'I' for Inactive)
REMARK    1  A    between atoms: C06_11  and  C07_12
REMARK    2  A    between atoms: C09_14  and  S13_18
REMARK    3  A    between atoms: N15_20  and  C16_21
REMARK    4  A    between atoms: C19_23  and  N22_24
REMARK                            x       y       z     vdW  Elec       q    Type
REMARK                         _______ _______ _______ _____ _____    ______ ____
ROOT
ATOM     13  N   UNL     1       7.895  34.182  11.673  0.00  0.00    -0.194 NA
ATOM     14  C   UNL     1       9.108  34.574  10.972  0.00  0.00    +0.152 A 
ATOM     15  C   UNL     1      10.392  34.486  11.507  0.00  0.00    +0.034 A 
ATOM     16  C   UNL     1      11.479  34.902  10.726  0.00  0.00    +0.010 A 
ATOM     25  C   UNL     1      11.223  35.361   9.446  0.00  0.00    +0.019 A 
ATOM     26  C   UNL     1       9.935  35.435   8.994  0.00  0.00    +0.100 A 
ATOM     27  N   UNL     1       8.933  35.050   9.761  0.00  0.00    -0.227 NA
ENDROOT
BRANCH  13  12
ATOM      1  C   UNL     1       8.692  32.401  13.214  0.00  0.00    +0.018 A 
ATOM      2  C   UNL     1       8.624  31.777  14.453  0.00  0.00    +0.016 A 
ATOM      3  C   UNL     1       7.698  32.225  15.422  0.00  0.00    +0.048 A 
ATOM     10  C   UNL     1       6.862  33.312  15.112  0.00  0.00    +0.016 A 
ATOM     11  C   UNL     1       6.954  33.937  13.880  0.00  0.00    +0.018 A 
ATOM     12  C   UNL     1       7.870  33.491  12.936  0.00  0.00    +0.072 A 
BRANCH   3   4
ATOM      4  N   UNL     1       7.616  31.571  16.734  0.00  0.00    -0.303 N 
ATOM      5  C   UNL     1       6.805  32.228  17.806  0.00  0.00    +0.123 C 
ATOM      6  C   UNL     1       6.829  31.592  19.187  0.00  0.00    +0.164 C 
ATOM      7  O   UNL     1       8.136  31.316  19.573  0.00  0.00    -0.350 OA
ATOM      8  C   UNL     1       8.772  30.425  18.728  0.00  0.00    +0.164 C 
ATOM      9  C   UNL     1       8.845  30.943  17.285  0.00  0.00    +0.123 C 
ENDBRANCH   3   4
ENDBRANCH  13  12
BRANCH  16  17
ATOM     17  C   UNL     1      12.773  34.786  11.239  0.00  0.00    +0.163 C 
ATOM     18  N   UNL     1      13.120  33.911  12.179  0.00  0.00    -0.239 NA
ATOM     19  C   UNL     1      14.398  34.059  12.423  0.00  0.00    +0.186 C 
ATOM     22  N   UNL     1      14.912  34.980  11.652  0.00  0.00    -0.228 NA
ATOM     23  C   UNL     1      13.950  35.462  10.890  0.00  0.00    +0.066 C 
ATOM     24  C   UNL     1      14.177  36.573   9.873  0.00  0.00    +0.050 C 
BRANCH  19  20
ATOM     20  S   UNL     1      15.309  33.109  13.631  0.00  0.00    -0.075 S 
ATOM     21  C   UNL     1      17.060  33.181  13.168  0.00  0.00    +0.077 C 
ENDBRANCH  19  20
ENDBRANCH  16  17
TORSDOF 4
