REMARK  Name = BMF
REMARK  6 active torsions:
REMARK  status: ('A' for Active; 'I' for Inactive)
REMARK    1  A    between atoms: C10_1  and  C11_18
REMARK    2  A    between atoms: C15_3  and  N16_21
REMARK    3  A    between atoms: C17_4  and  O18_22
REMARK    4  A    between atoms: C03_11  and  N04_12
REMARK    5  A    between atoms: N04_12  and  S05_13
REMARK    6  A    between atoms: O18_22  and  C19_23
REMARK                            x       y       z     vdW  Elec       q    Type
REMARK                         _______ _______ _______ _____ _____    ______ ____
ROOT
ATOM     12  C   UNL     1      31.483  15.406  -0.620  0.00  0.00    +0.103 A 
ATOM     13  N   UNL     1      31.758  16.402   0.253  0.00  0.00    -0.163 NA
ATOM     14  N   UNL     1      33.009  16.915   0.132  0.00  0.00    -0.194 N 
ATOM     15  C   UNL     1      33.567  17.933   0.858  0.00  0.00    +0.164 A 
ATOM     16  C   UNL     1      32.805  18.695   1.953  0.00  0.00    +0.076 C 
ATOM     17  N   UNL     1      34.857  18.106   0.407  0.00  0.00    -0.132 NA
ATOM     18  N   UNL     1      35.149  17.188  -0.586  0.00  0.00    -0.126 NA
ATOM     19  C   UNL     1      34.025  16.484  -0.769  0.00  0.00    +0.202 A 
ATOM     20  C   UNL     1      33.655  15.454  -1.711  0.00  0.00    +0.116 A 
ATOM     27  C   UNL     1      32.370  14.944  -1.651  0.00  0.00    +0.041 A 
ENDROOT
BRANCH  12   1
ATOM      1  C   UNL     1      30.172  14.870  -0.501  0.00  0.00    +0.021 A 
ATOM      2  C   UNL     1      29.633  14.685   0.798  0.00  0.00    +0.019 A 
ATOM      3  C   UNL     1      28.383  13.969   0.945  0.00  0.00    +0.087 A 
ATOM      9  C   UNL     1      27.670  13.544  -0.174  0.00  0.00    -0.005 A 
ATOM     10  C   UNL     1      26.419  12.716  -0.057  0.00  0.00    +0.032 C 
ATOM     11  C   UNL     1      28.225  13.713  -1.418  0.00  0.00    -0.003 A 
ATOM     28  C   UNL     1      29.462  14.332  -1.563  0.00  0.00    +0.001 A 
BRANCH   3   4
ATOM      4  N   UNL     1      27.844  13.674   2.250  0.00  0.00    -0.101 NA
BRANCH   4   5
ATOM      5  S   UNL     1      28.648  13.712   3.675  0.00  0.00    +0.075 S 
ATOM      6  O   UNL     1      27.855  13.007   4.606  0.00  0.00    -0.153 OA
ATOM      7  C   UNL     1      28.852  15.308   4.258  0.00  0.00    +0.202 C 
ATOM      8  O   UNL     1      29.929  13.163   3.411  0.00  0.00    -0.153 OA
ENDBRANCH   4   5
ENDBRANCH   3   4
ENDBRANCH  12   1
BRANCH  20  21
ATOM     21  N   UNL     1      34.708  15.088  -2.523  0.00  0.00    -0.139 NA
ATOM     22  C   UNL     1      34.652  14.001  -3.358  0.00  0.00    +0.425 C 
ATOM     23  O   UNL     1      33.698  13.240  -3.491  0.00  0.00    -0.224 OA
BRANCH  22  24
ATOM     24  O   UNL     1      35.826  13.864  -4.018  0.00  0.00    -0.433 OA
BRANCH  24  25
ATOM     25  C   UNL     1      35.834  12.727  -4.927  0.00  0.00    +0.210 C 
ATOM     26  C   UNL     1      37.292  12.549  -5.290  0.00  0.00    +0.051 C 
ENDBRANCH  24  25
ENDBRANCH  22  24
ENDBRANCH  20  21
TORSDOF 6
