REMARK  Name = 4PTE
REMARK  3 active torsions:
REMARK  status: ('A' for Active; 'I' for Inactive)
REMARK    1  A    between atoms: C_3  and  C_11
REMARK    2  A    between atoms: C_15  and  N_17
REMARK    3  A    between atoms: C_18  and  C_20
REMARK                            x       y       z     vdW  Elec       q    Type
REMARK                         _______ _______ _______ _____ _____    ______ ____
ROOT
ATOM     10  C   UNL     1      -3.275  -0.282 -36.417  0.00  0.00    -0.013 A 
ATOM     11  C   UNL     1      -2.875   1.049 -36.315  0.00  0.00    +0.052 A 
ATOM     12  C   UNL     1      -2.109   1.633 -37.316  0.00  0.00    +0.125 A 
ATOM     20  N   UNL     1      -1.777   0.900 -38.416  0.00  0.00    -0.240 NA
ATOM     21  C   UNL     1      -2.162  -0.391 -38.552  0.00  0.00    +0.113 A 
ATOM     22  C   UNL     1      -2.931  -1.000 -37.561  0.00  0.00    +0.028 A 
ENDROOT
BRANCH  10   9
ATOM      1  C   UNL     1      -5.054  -0.853 -33.115  0.00  0.00    +0.009 A 
ATOM      2  C   UNL     1      -5.731  -2.045 -33.356  0.00  0.00    -0.015 A 
ATOM      3  C   UNL     1      -6.535  -2.627 -32.374  0.00  0.00    +0.028 A 
ATOM      4  C   UNL     1      -7.195  -3.821 -32.665  0.00  0.00    +0.111 A 
ATOM      5  N   UNL     1      -7.049  -4.414 -33.870  0.00  0.00    -0.263 NA
ATOM      6  C   UNL     1      -6.270  -3.867 -34.831  0.00  0.00    +0.119 A 
ATOM      7  C   UNL     1      -5.593  -2.671 -34.593  0.00  0.00    +0.001 A 
ATOM      8  C   UNL     1      -4.779  -2.105 -35.577  0.00  0.00    +0.018 A 
ATOM      9  C   UNL     1      -4.111  -0.907 -35.350  0.00  0.00    -0.017 A 
ATOM     23  C   UNL     1      -4.255  -0.289 -34.107  0.00  0.00    +0.009 A 
ENDBRANCH  10   9
BRANCH  12  13
ATOM     13  N   UNL     1      -1.703   2.921 -37.216  0.00  0.00    -0.270 N 
ATOM     14  H   UNL     1      -1.235   3.303 -38.099  0.00  0.00    +0.156 HD
ATOM     15  C   UNL     1      -1.783   3.810 -36.202  0.00  0.00    +0.221 C 
ATOM     19  O   UNL     1      -2.222   3.514 -35.101  0.00  0.00    -0.275 OA
BRANCH  15  16
ATOM     16  C   UNL     1      -1.276   5.213 -36.433  0.00  0.00    +0.075 C 
ATOM     17  C   UNL     1      -0.617   5.906 -35.235  0.00  0.00    +0.013 C 
ATOM     18  C   UNL     1      -2.009   6.344 -35.709  0.00  0.00    +0.013 C 
ENDBRANCH  15  16
ENDBRANCH  12  13
TORSDOF 3
