REMARK  Name = 3fxz_ligand
REMARK  4 active torsions:
REMARK  status: ('A' for Active; 'I' for Inactive)
REMARK    1  A    between atoms: C13_13  and  RU20_42
REMARK    2  A    between atoms: N15_15  and  C18_16
REMARK    3  A    between atoms: CL17_22  and  RU20_42
REMARK    4  A    between atoms: C28_38  and  O1_39
REMARK                            x       y       z     vdW  Elec       q    Type
REMARK                         _______ _______ _______ _____ _____    ______ ____
ROOT
ATOM      1  F   UNL     1     -17.016  35.394 -16.181  0.00  0.00    -0.175 F 
ATOM      2  C   UNL     1     -15.682  35.286 -16.136  0.00  0.00    +0.161 A 
ATOM      3  C   UNL     1     -15.048  35.238 -14.931  0.00  0.00    +0.068 A 
ATOM      4  C   UNL     1     -13.630  35.128 -14.941  0.00  0.00    +0.018 A 
ATOM      5  C   UNL     1     -12.733  35.055 -13.830  0.00  0.00    +0.071 A 
ATOM      6  C   UNL     1     -11.352  34.942 -13.964  0.00  0.00    +0.068 A 
ATOM      7  C   UNL     1     -10.744  34.883 -15.218  0.00  0.00    +0.021 A 
ATOM      8  C   UNL     1      -9.419  34.767 -15.782  0.00  0.00    -0.008 A 
ATOM      9  C   UNL     1      -8.159  34.654 -15.213  0.00  0.00    +0.009 A 
ATOM     10  C   UNL     1      -7.064  34.548 -16.064  0.00  0.00    +0.075 A 
ATOM     11  C   UNL     1      -7.251  34.564 -17.453  0.00  0.00    +0.010 A 
ATOM     12  C   UNL     1      -8.493  34.652 -18.029  0.00  0.00    +0.008 A 
ATOM     15  C   UNL     1      -9.608  34.771 -17.193  0.00  0.00    +0.061 A 
ATOM     16  N   UNL     1     -10.953  34.910 -17.498  0.00  0.00    -0.271 NA
ATOM     17  H   UNL     1     -11.368  34.979 -18.438  0.00  0.00    +0.220 HD
ATOM     18 RU   UNL     1     -12.402  34.875 -19.028  0.00  0.00    +6.000 Ru
ATOM     21  N   UNL     1     -13.964  34.398 -20.262  0.00  0.00    -0.270 NA
ATOM     22  H   UNL     1     -13.187  34.692 -19.653  0.00  0.00    +0.228 HD
ATOM     29  C   UNL     1     -14.421  33.183 -20.226  0.00  0.00    +0.155 C 
ATOM     30  C   UNL     1     -13.744  32.260 -19.332  0.00  0.00    +0.044 A 
ATOM     31  C   UNL     1     -14.122  30.924 -19.199  0.00  0.00    +0.018 A 
ATOM     32  C   UNL     1     -13.389  30.150 -18.310  0.00  0.00    +0.008 A 
ATOM     33  C   UNL     1     -12.340  30.676 -17.576  0.00  0.00    +0.006 A 
ATOM     34  C   UNL     1     -12.024  32.033 -17.762  0.00  0.00    +0.066 A 
ATOM     37  N   UNL     1     -12.697  32.809 -18.648  0.00  0.00    -0.322 N 
ATOM     38  N   UNL     1     -13.711  35.114 -17.408  0.00  0.00    -0.292 N 
ATOM     39  C   UNL     1     -11.606  34.937 -16.332  0.00  0.00    +0.098 A 
ATOM     40  C   UNL     1     -10.769  34.881 -12.592  0.00  0.00    +0.237 C 
ATOM     41  O   UNL     1      -9.593  34.807 -12.274  0.00  0.00    -0.365 OA
ATOM     42  N   UNL     1     -11.842  34.972 -11.731  0.00  0.00    -0.201 N 
ATOM     43  H   UNL     1     -11.760  34.964 -10.734  0.00  0.00    +0.221 HD
ATOM     44  C   UNL     1     -13.041  35.076 -12.404  0.00  0.00    +0.229 C 
ATOM     45  O   UNL     1     -14.150  35.146 -11.910  0.00  0.00    -0.373 OA
ATOM     46  C   UNL     1     -13.015  35.059 -16.218  0.00  0.00    +0.079 A 
ATOM     47  C   UNL     1     -15.043  35.210 -17.382  0.00  0.00    +0.129 A 
ENDROOT
BRANCH  21  23
ATOM     23  C   UNL     1     -14.587  35.332 -21.192  0.00  0.00    +0.071 A 
ATOM     24  C   UNL     1     -13.891  35.731 -22.330  0.00  0.00    +0.019 A 
ATOM     25  C   UNL     1     -14.466  36.645 -23.226  0.00  0.00    -0.011 A 
ATOM     26  C   UNL     1     -15.730  37.134 -22.950  0.00  0.00    -0.020 A 
ATOM     27  C   UNL     1     -16.419  36.740 -21.810  0.00  0.00    -0.011 A 
ATOM     28  C   UNL     1     -15.841  35.834 -20.934  0.00  0.00    +0.019 A 
ENDBRANCH  21  23
BRANCH  10  13
ATOM     13  O   UNL     1      -5.799  34.444 -15.580  0.00  0.00    -0.341 OA
ATOM     14  H   UNL     1      -5.187  34.382 -16.304  0.00  0.00    +0.244 HD
ENDBRANCH  10  13
BRANCH  18  19
ATOM     19 CL   UNL     1     -10.874  34.259 -20.772  0.00  0.00    -0.145 Cl
ATOM     20  H   UNL     1      -9.866  34.273 -20.777  0.00  0.00    +0.145 HD
ENDBRANCH  18  19
BRANCH  18  35
ATOM     35  C   UNL     1     -12.277  36.664 -19.378  0.00  0.00    +0.357 C 
ATOM     36  O   UNL     1     -12.204  37.790 -19.706  0.00  0.00    -0.356 OA
ENDBRANCH  18  35
TORSDOF 4
