REMARK  Name = 4L2Y
REMARK  3 active torsions:
REMARK  status: ('A' for Active; 'I' for Inactive)
REMARK    1  A    between atoms: O_1  and  C_2
REMARK    2  A    between atoms: C_4  and  N_27
REMARK    3  A    between atoms: C_7  and  C_8
REMARK                            x       y       z     vdW  Elec       q    Type
REMARK                         _______ _______ _______ _____ _____    ______ ____
ROOT
ATOM      6  C   UNL     1     -31.100  45.506 -40.289  0.00  0.00    +0.163 A 
ATOM      7  N   UNL     1     -30.447  45.567 -41.489  0.00  0.00    -0.209 NA
ATOM      8  C   UNL     1     -30.871  46.292 -42.554  0.00  0.00    +0.169 A 
ATOM      9  N   UNL     1     -30.123  46.296 -43.747  0.00  0.00    -0.308 N 
ATOM     10  C   UNL     1     -29.168  45.199 -43.928  0.00  0.00    +0.135 C 
ATOM     11  C   UNL     1     -28.604  45.233 -45.339  0.00  0.00    +0.178 C 
ATOM     12  O   UNL     1     -29.618  45.634 -46.254  0.00  0.00    -0.377 OA
ATOM     13  C   UNL     1     -29.911  47.019 -46.128  0.00  0.00    +0.178 C 
ATOM     14  C   UNL     1     -30.325  47.394 -44.703  0.00  0.00    +0.135 C 
ATOM     15  C   UNL     1     -32.141  47.041 -42.350  0.00  0.00    +0.196 A 
ATOM     16  O   UNL     1     -32.843  47.847 -43.170  0.00  0.00    -0.432 OA
ATOM     17  C   UNL     1     -33.929  48.285 -42.506  0.00  0.00    +0.230 A 
ATOM     18  N   UNL     1     -34.919  49.110 -42.930  0.00  0.00    -0.220 NA
ATOM     19  C   UNL     1     -35.919  49.405 -42.065  0.00  0.00    +0.114 A 
ATOM     20  C   UNL     1     -35.986  48.908 -40.748  0.00  0.00    +0.021 A 
ATOM     21  C   UNL     1     -35.003  48.051 -40.246  0.00  0.00    +0.017 A 
ATOM     22  C   UNL     1     -33.981  47.749 -41.133  0.00  0.00    +0.066 A 
ATOM     23  C   UNL     1     -32.781  46.918 -41.032  0.00  0.00    +0.124 A 
ATOM     24  N   UNL     1     -32.272  46.162 -40.042  0.00  0.00    -0.223 NA
ENDROOT
BRANCH   6   5
ATOM      3  C   UNL     1     -29.209  42.704 -38.651  0.00  0.00    +0.119 A 
ATOM      4  C   UNL     1     -29.739  43.556 -39.609  0.00  0.00    +0.057 A 
ATOM      5  C   UNL     1     -30.528  44.637 -39.226  0.00  0.00    +0.024 A 
ATOM     25  C   UNL     1     -30.822  44.846 -37.882  0.00  0.00    +0.034 A 
ATOM     26  C   UNL     1     -30.294  43.993 -36.922  0.00  0.00    +0.029 A 
ATOM     30  C   UNL     1     -29.484  42.922 -37.304  0.00  0.00    +0.068 A 
BRANCH  26  27
ATOM     27  N   UNL     1     -30.596  44.238 -35.483  0.00  0.00    -0.358 N 
ATOM     28  H   UNL     1     -31.218  45.061 -35.200  0.00  0.00    +0.142 HD
ATOM     29  H   UNL     1     -30.191  43.590 -34.734  0.00  0.00    +0.142 HD
ENDBRANCH  26  27
BRANCH   3   1
ATOM      1  O   UNL     1     -28.426  41.663 -39.044  0.00  0.00    -0.507 OA
ATOM      2  H   UNL     1     -27.474  41.758 -38.612  0.00  0.00    +0.292 HD
ENDBRANCH   3   1
ENDBRANCH   6   5
TORSDOF 3
