REMARK  Name = 4bdf_ligand
REMARK  2 active torsions:
REMARK  status: ('A' for Active; 'I' for Inactive)
REMARK    1  A    between atoms: C1_1  and  C2_2
REMARK    2  A    between atoms: C12_9  and  C4_11
REMARK                            x       y       z     vdW  Elec       q    Type
REMARK                         _______ _______ _______ _____ _____    ______ ____
ROOT
ATOM      1  C   UNL     1     -36.572  34.999   7.740  0.00  0.00    +0.007 A 
ATOM      2  N   UNL     1     -36.437  35.400   6.466  0.00  0.00    -0.228 NA
ATOM      3  N   UNL     1     -37.145  34.619   5.596  0.00  0.00    -0.224 N 
ATOM      4  H   UNL     1     -37.209  34.716   4.573  0.00  0.00    +0.250 HD
ATOM      5  C   UNL     1     -37.737  33.699   6.370  0.00  0.00    +0.083 A 
ATOM     12  C   UNL     1     -37.411  33.914   7.721  0.00  0.00    -0.003 A 
ATOM     13  C   UNL     1     -35.850  35.671   8.863  0.00  0.00    +0.085 C 
ENDROOT
BRANCH   5   6
ATOM      6  C   UNL     1     -38.552  32.619   5.781  0.00  0.00    +0.008 A 
ATOM      7  C   UNL     1     -38.694  31.398   6.441  0.00  0.00    +0.011 A 
ATOM      8  C   UNL     1     -39.493  30.399   5.907  0.00  0.00    +0.000 A 
ATOM      9  C   UNL     1     -40.154  30.601   4.709  0.00  0.00    -0.001 A 
ATOM     10  C   UNL     1     -40.010  31.801   4.038  0.00  0.00    +0.000 A 
ATOM     11  C   UNL     1     -39.219  32.808   4.570  0.00  0.00    +0.011 A 
ENDBRANCH   5   6
TORSDOF 1
