REMARK  Name = 3zc6_ligand
REMARK  7 active torsions:
REMARK  status: ('A' for Active; 'I' for Inactive)
REMARK    1  A    between atoms: N30_8  and  C33_9
REMARK    2  A    between atoms: C23_11  and  C5_12
REMARK    3  A    between atoms: C9_19  and  C10_21
REMARK    4  A    between atoms: N12_23  and  C13_24
REMARK    5  A    between atoms: C13_24  and  C22_25
REMARK    6  A    between atoms: C13_24  and  C14_26
REMARK    7  A    between atoms: C18_30  and  C19_32
REMARK                            x       y       z     vdW  Elec       q    Type
REMARK                         _______ _______ _______ _____ _____    ______ ____
ROOT
ATOM      8  C   UNL     1       9.574  -3.461  45.290  0.00  0.00    +0.070 A 
ATOM      9  C   UNL     1       8.973  -4.049  46.410  0.00  0.00    +0.116 A 
ATOM     10  N   UNL     1       9.152  -3.538  47.706  0.00  0.00    -0.260 NA
ATOM     11  C   UNL     1       9.968  -2.438  47.850  0.00  0.00    +0.169 A 
ATOM     12  C   UNL     1      10.558  -1.849  46.773  0.00  0.00    +0.084 A 
ATOM     13  C   UNL     1      11.314  -0.792  47.246  0.00  0.00    +0.075 A 
ATOM     28  C   UNL     1      11.122  -0.758  48.614  0.00  0.00    +0.177 A 
ATOM     29  N   UNL     1      10.316  -1.776  48.960  0.00  0.00    -0.247 N 
ATOM     30  H   UNL     1      10.017  -2.008  49.918  0.00  0.00    +0.239 HD
ATOM     31  N   UNL     1      10.389  -2.334  45.478  0.00  0.00    -0.291 NA
ENDROOT
BRANCH   8   7
ATOM      1  F   UNL     1      10.112  -2.896  38.710  0.00  0.00    -0.187 F 
ATOM      2  C   UNL     1       9.940  -3.126  39.999  0.00  0.00    +0.125 A 
ATOM      3  C   UNL     1       9.327  -4.297  40.436  0.00  0.00    +0.053 A 
ATOM      4  C   UNL     1       9.183  -4.474  41.806  0.00  0.00    +0.092 A 
ATOM      5  N   UNL     1       8.634  -5.476  42.504  0.00  0.00    -0.200 N 
ATOM      6  N   UNL     1       8.717  -5.227  43.744  0.00  0.00    -0.190 NA
ATOM      7  C   UNL     1       9.318  -4.041  43.953  0.00  0.00    +0.082 A 
ATOM     32  C   UNL     1       8.031  -6.693  41.927  0.00  0.00    +0.232 C 
ATOM     33  C   UNL     1       9.622  -3.544  42.709  0.00  0.00    +0.018 A 
ATOM     34  C   UNL     1      10.237  -2.375  42.277  0.00  0.00    -0.005 A 
ATOM     35  C   UNL     1      10.396  -2.172  40.912  0.00  0.00    +0.016 A 
ENDBRANCH   8   7
BRANCH  13  14
ATOM     14  C   UNL     1      12.085   0.187  46.460  0.00  0.00    +0.185 C 
ATOM     15  N   UNL     1      12.067   0.081  45.096  0.00  0.00    -0.271 N 
ATOM     16  H   UNL     1      11.568  -0.690  44.700  0.00  0.00    +0.187 HD
ATOM     27  O   UNL     1      12.650   1.125  46.985  0.00  0.00    -0.402 OA
BRANCH  15  17
ATOM     17  C   UNL     1      12.721   1.008  44.170  0.00  0.00    +0.207 C 
ATOM     26  C   UNL     1      11.654   1.641  43.292  0.00  0.00    +0.059 C 
BRANCH  17  18
ATOM     18  C   UNL     1      13.630   0.314  43.216  0.00  0.00    +0.204 C 
ATOM     19  N   UNL     1      14.819   0.960  42.924  0.00  0.00    -0.267 N 
ATOM     20  C   UNL     1      15.957   0.665  42.064  0.00  0.00    +0.172 C 
ATOM     21  C   UNL     1      16.657   1.908  42.570  0.00  0.00    +0.187 C 
ATOM     24  C   UNL     1      15.428   2.205  43.392  0.00  0.00    +0.172 C 
ATOM     25  O   UNL     1      13.283  -0.750  42.713  0.00  0.00    -0.394 OA
BRANCH  21  22
ATOM     22  C   UNL     1      17.846   1.638  43.367  0.00  0.00    +0.097 C 
ATOM     23  N   UNL     1      18.773   1.405  44.033  0.00  0.00    -0.303 NA
ENDBRANCH  21  22
ENDBRANCH  17  18
ENDBRANCH  15  17
ENDBRANCH  13  14
TORSDOF 5
