REMARK  Name = 4YTF
REMARK  6 active torsions:
REMARK  status: ('A' for Active; 'I' for Inactive)
REMARK    1  A    between atoms: C_1  and  N_14
REMARK    2  A    between atoms: C_1  and  C_15
REMARK    3  A    between atoms: C_1  and  C_21
REMARK    4  A    between atoms: C_3  and  C_4
REMARK    5  A    between atoms: C_3  and  N_16
REMARK    6  A    between atoms: C_7  and  C_8
REMARK                            x       y       z     vdW  Elec       q    Type
REMARK                         _______ _______ _______ _____ _____    ______ ____
ROOT
ATOM     12  N   UNL     1      15.957  14.282   6.095  0.00  0.00    -0.252 NA
ATOM     13  C   UNL     1      16.407  13.035   5.757  0.00  0.00    +0.166 A 
ATOM     14  N   UNL     1      15.604  12.179   4.977  0.00  0.00    -0.322 N 
ATOM     15  H   UNL     1      14.635  12.471   4.630  0.00  0.00    +0.169 HD
ATOM     16  C   UNL     1      16.140  10.944   4.687  0.00  0.00    +0.142 A 
ATOM     27  N   UNL     1      17.379  10.501   5.122  0.00  0.00    -0.234 NA
ATOM     28  C   UNL     1      18.146  11.333   5.882  0.00  0.00    +0.155 A 
ATOM     29  C   UNL     1      17.709  12.614   6.221  0.00  0.00    +0.183 A 
ATOM     30  F   UNL     1      18.461  13.390   6.939  0.00  0.00    -0.200 F 
ENDROOT
BRANCH  16  17
ATOM     17  C   UNL     1      15.363  10.035   3.859  0.00  0.00    +0.046 A 
ATOM     18  C   UNL     1      14.137  10.288   3.191  0.00  0.00    +0.033 A 
ATOM     19  C   UNL     1      13.843   9.074   2.412  0.00  0.00    +0.161 A 
ATOM     20  N   UNL     1      14.827   8.170   2.650  0.00  0.00    -0.235 NA
ATOM     21  N   UNL     1      12.775   8.870   1.567  0.00  0.00    -0.234 NA
ATOM     22  C   UNL     1      11.895   9.932   1.475  0.00  0.00    +0.133 A 
ATOM     23  C   UNL     1      12.105  11.161   2.223  0.00  0.00    +0.060 A 
ATOM     24 CL   UNL     1      10.961  12.413   1.981  0.00  0.00    -0.082 Cl
ATOM     25  C   UNL     1      13.203  11.374   3.086  0.00  0.00    +0.034 A 
ATOM     26  C   UNL     1      15.745   8.749   3.515  0.00  0.00    +0.125 A 
ENDBRANCH  16  17
BRANCH  12   1
ATOM      1  C   UNL     1      14.648  14.814   5.708  0.00  0.00    +0.190 C 
ATOM      2  C   UNL     1      14.345  16.050   6.554  0.00  0.00    +0.042 C 
BRANCH   1   3
ATOM      3  C   UNL     1      14.605  15.233   4.228  0.00  0.00    +0.238 C 
ATOM      4  O   UNL     1      13.501  15.392   3.651  0.00  0.00    -0.274 OA
ATOM      5  N   UNL     1      15.824  15.373   3.537  0.00  0.00    -0.305 N 
ATOM      6  H   UNL     1      16.747  15.157   4.034  0.00  0.00    +0.149 HD
BRANCH   5   7
ATOM      7  C   UNL     1      15.831  15.811   2.147  0.00  0.00    +0.217 C 
BRANCH   7   8
ATOM      8  C   UNL     1      15.762  14.695   1.149  0.00  0.00    +0.405 C 
ATOM      9  F   UNL     1      14.645  13.970   1.268  0.00  0.00    -0.169 F 
ATOM     10  F   UNL     1      15.782  15.137  -0.105  0.00  0.00    -0.169 F 
ATOM     11  F   UNL     1      16.786  13.867   1.258  0.00  0.00    -0.169 F 
ENDBRANCH   7   8
ENDBRANCH   5   7
ENDBRANCH   1   3
ENDBRANCH  12   1
TORSDOF 5
