REMARK  Name = 6Q7T
REMARK  0 active torsions:
REMARK  status: ('A' for Active; 'I' for Inactive)
REMARK                            x       y       z     vdW  Elec       q    Type
REMARK                         _______ _______ _______ _____ _____    ______ ____
ROOT
ATOM      1  C   UNL     1       7.918   6.821  48.122  0.00  0.00    +0.150 A 
ATOM      2  N   UNL     1       8.990   7.549  47.721  0.00  0.00    -0.100 NA
ATOM      3  O   UNL     1       8.470   8.434  46.736  0.00  0.00    +0.000 OA
ATOM      4  C   UNL     1       7.152   8.186  46.614  0.00  0.00    -0.100 A 
ATOM      5  N   UNL     1       8.027   5.849  49.078  0.00  0.00    -0.550 NA
ATOM      6  C   UNL     1       6.787   7.215  47.439  0.00  0.00    -0.100 A 
ENDROOT
TORSDOF 0
