REMARK  Name = 5K0X
REMARK  4 active torsions:
REMARK  status: ('A' for Active; 'I' for Inactive)
REMARK    1  A    between atoms: C_8  and  C_9
REMARK    2  A    between atoms: C_8  and  N_29
REMARK    3  A    between atoms: C_13  and  C_14
REMARK    4  A    between atoms: N_15  and  C_16
REMARK                            x       y       z     vdW  Elec       q    Type
REMARK                         _______ _______ _______ _____ _____    ______ ____
ROOT
ATOM      1  C   UNL     1       3.241   1.626  22.812  0.00  0.00    +0.002 C 
ATOM      2  C   UNL     1       2.527   0.841  21.711  0.00  0.00    +0.019 C 
ATOM      3  C   UNL     1       3.389  -0.166  20.934  0.00  0.00    +0.104 C 
ATOM      4  N   UNL     1       2.627  -0.683  19.780  0.00  0.00    -0.315 NA
ATOM      5  H   UNL     1       2.281  -1.468  19.836  0.00  0.00    +0.149 HD
ATOM      6  C   UNL     1       2.437   0.085  18.525  0.00  0.00    +0.199 C 
ATOM      7  N   UNL     1       2.016  -0.646  17.439  0.00  0.00    -0.333 NA
ATOM      8  H   UNL     1       2.071  -1.714  17.473  0.00  0.00    +0.168 HD
ATOM      9  C   UNL     1       1.515  -0.020  16.286  0.00  0.00    +0.107 C 
ATOM     10  C   UNL     1       2.109   1.292  16.267  0.00  0.00    +0.144 C 
ATOM     11  C   UNL     1       3.068   1.735  17.179  0.00  0.00    +0.315 C 
ATOM     12  N   UNL     1       3.576   3.132  17.229  0.00  0.00    -0.224 N 
ATOM     13  H   UNL     1       3.288   3.689  16.640  0.00  0.00    +0.447 HD
ATOM     14  C   UNL     1       4.562   3.625  18.244  0.00  0.00    +0.350 C 
ATOM     15  C   UNL     1       3.963   4.286  19.514  0.00  0.00    +0.072 C 
ATOM     16  C   UNL     1       3.406   5.743  19.327  0.00  0.00    +0.008 C 
ATOM     17  C   UNL     1       3.468   6.775  20.507  0.00  0.00    +0.028 C 
ATOM     18  C   UNL     1       4.861   7.039  21.176  0.00  0.00    +0.138 C 
ATOM     22  C   UNL     1       5.115   5.985  22.271  0.00  0.00    +0.230 C 
ATOM     23  O   UNL     1       6.219   5.737  22.649  0.00  0.00    -0.274 OA
ATOM     24  N   UNL     1       4.031   5.198  22.846  0.00  0.00    -0.314 N 
ATOM     25  H   UNL     1       3.218   5.319  22.596  0.00  0.00    +0.149 HD
ATOM     26  C   UNL     1       4.365   4.186  23.852  0.00  0.00    +0.104 C 
ATOM     27  C   UNL     1       5.332   3.141  23.236  0.00  0.00    +0.019 C 
ATOM     40  N   UNL     1       3.328   0.932  18.148  0.00  0.00    -0.154 NA
ATOM     41  C   UNL     1       4.772   1.811  22.674  0.00  0.00    +0.002 C 
ENDROOT
BRANCH  10  28
ATOM     28  C   UNL     1       1.887   2.078  14.940  0.00  0.00    +0.254 C 
ATOM     29  N   UNL     1       0.795   1.697  14.029  0.00  0.00    -0.307 N 
ATOM     30  H   UNL     1       0.283   1.031  14.212  0.00  0.00    +0.149 HD
ATOM     39  O   UNL     1       2.580   2.991  14.631  0.00  0.00    -0.270 OA
BRANCH  29  31
ATOM     31  C   UNL     1       0.630   2.455  12.758  0.00  0.00    +0.140 C 
BRANCH  31  32
ATOM     32  C   UNL     1       0.982   1.544  11.524  0.00  0.00    -0.030 A 
ATOM     33  C   UNL     1       0.008   1.252  10.568  0.00  0.00    +0.008 A 
ATOM     34  C   UNL     1       0.292   0.445   9.445  0.00  0.00    +0.039 A 
ATOM     35  C   UNL     1       1.557  -0.083   9.265  0.00  0.00    +0.123 A 
ATOM     36  F   UNL     1       1.846  -0.877   8.169  0.00  0.00    -0.205 F 
ATOM     37  C   UNL     1       2.541   0.195  10.210  0.00  0.00    +0.039 A 
ATOM     38  C   UNL     1       2.271   1.009  11.334  0.00  0.00    +0.008 A 
ENDBRANCH  31  32
ENDBRANCH  29  31
ENDBRANCH  10  28
BRANCH  18  19
ATOM     19  N   UNL     1       5.927   7.043  20.163  0.00  0.00    -0.320 NA
ATOM     20  H   UNL     1       6.480   7.724  20.317  0.00  0.00    +0.119 HD
ATOM     21  H   UNL     1       6.380   6.278  20.204  0.00  0.00    +0.119 HD
ENDBRANCH  18  19
TORSDOF 4
