REMARK  Name = 3LM5
REMARK  6 active torsions:
REMARK  status: ('A' for Active; 'I' for Inactive)
REMARK    1  A    between atoms: C_2  and  O_22
REMARK    2  A    between atoms: C_6  and  O_21
REMARK    3  A    between atoms: C_8  and  O_20
REMARK    4  A    between atoms: C_9  and  C_10
REMARK    5  A    between atoms: C_13  and  O_19
REMARK    6  A    between atoms: C_14  and  O_18
REMARK                            x       y       z     vdW  Elec       q    Type
REMARK                         _______ _______ _______ _____ _____    ______ ____
ROOT
ATOM      1  C   UNL     1      21.551   0.220   4.704  0.00  0.00    +0.091 A 
ATOM      2  C   UNL     1      22.694   0.199   5.484  0.00  0.00    +0.124 A 
ATOM      5  C   UNL     1      23.837   0.914   5.106  0.00  0.00    +0.092 A 
ATOM      6  C   UNL     1      23.863   1.637   3.921  0.00  0.00    +0.146 A 
ATOM      7  O   UNL     1      25.003   2.325   3.580  0.00  0.00    -0.451 OA
ATOM      8  C   UNL     1      25.049   3.029   2.407  0.00  0.00    +0.181 C 
ATOM     19  C   UNL     1      23.920   3.073   1.544  0.00  0.00    +0.208 C 
ATOM     22  C   UNL     1      22.758   2.394   1.928  0.00  0.00    +0.238 C 
ATOM     23  O   UNL     1      21.766   2.389   1.189  0.00  0.00    -0.283 OA
ATOM     24  C   UNL     1      22.730   1.658   3.122  0.00  0.00    +0.109 A 
ATOM     25  C   UNL     1      21.588   0.948   3.528  0.00  0.00    +0.135 A 
ENDROOT
BRANCH   8   9
ATOM      9  C   UNL     1      26.267   3.687   2.143  0.00  0.00    +0.025 A 
ATOM     10  C   UNL     1      26.706   3.992   0.866  0.00  0.00    +0.060 A 
ATOM     11  C   UNL     1      27.916   4.641   0.646  0.00  0.00    +0.159 A 
ATOM     14  C   UNL     1      28.742   5.017   1.704  0.00  0.00    +0.158 A 
ATOM     17  C   UNL     1      28.326   4.700   2.968  0.00  0.00    +0.050 A 
ATOM     18  C   UNL     1      27.111   4.046   3.188  0.00  0.00    +0.015 A 
BRANCH  11  12
ATOM     12  O   UNL     1      28.273   4.906  -0.624  0.00  0.00    -0.503 OA
ATOM     13  H   UNL     1      28.381   5.943  -0.749  0.00  0.00    +0.292 HD
ENDBRANCH  11  12
BRANCH  14  15
ATOM     15  O   UNL     1      29.937   5.692   1.504  0.00  0.00    -0.503 OA
ATOM     16  H   UNL     1      29.901   6.620   1.994  0.00  0.00    +0.292 HD
ENDBRANCH  14  15
ENDBRANCH   8   9
BRANCH   2   3
ATOM      3  O   UNL     1      22.689  -0.511   6.643  0.00  0.00    -0.506 OA
ATOM      4  H   UNL     1      21.943  -0.137   7.280  0.00  0.00    +0.292 HD
ENDBRANCH   2   3
BRANCH  19  20
ATOM     20  O   UNL     1      23.928   3.746   0.330  0.00  0.00    -0.501 OA
ATOM     21  H   UNL     1      23.748   3.066  -0.449  0.00  0.00    +0.292 HD
ENDBRANCH  19  20
BRANCH  25  26
ATOM     26  O   UNL     1      20.475   0.964   2.799  0.00  0.00    -0.506 OA
ATOM     27  H   UNL     1      20.226  -0.017   2.519  0.00  0.00    +0.292 HD
ENDBRANCH  25  26
TORSDOF 6
