REMARK  Name = 6M88
REMARK  1 active torsions:
REMARK  status: ('A' for Active; 'I' for Inactive)
REMARK    1  A    between atoms: C11_9  and  C14_10
REMARK                            x       y       z     vdW  Elec       q    Type
REMARK                         _______ _______ _______ _____ _____    ______ ____
ROOT
ATOM      1  C   UNL     1       7.228  24.720  21.890  0.00  0.00    -0.130 A 
ATOM      2  C   UNL     1       7.701  24.289  23.138  0.00  0.00    +0.250 A 
ATOM      3  O   UNL     1       8.630  23.293  23.207  0.00  0.00    -0.650 OA
ATOM      4  C   UNL     1       7.251  24.859  24.331  0.00  0.00    -0.130 A 
ATOM      5  C   UNL     1       6.333  25.892  24.314  0.00  0.00    +0.185 A 
ATOM      6  O   UNL     1       5.914  26.466  25.479  0.00  0.00    -0.185 OA
ATOM      7  C   UNL     1       5.015  27.500  25.571  0.00  0.00    +0.000 A 
ATOM     17  C   UNL     1       4.409  28.044  24.317  0.00  0.00    +0.000 A 
ATOM     18  O   UNL     1       3.522  29.057  24.280  0.00  0.00    -0.400 OA
ATOM     19  C   UNL     1       4.822  27.465  23.028  0.00  0.00    +0.550 A 
ATOM     20  O   UNL     1       4.361  27.891  21.964  0.00  0.00    -0.550 OA
ATOM     21  C   UNL     1       5.814  26.382  23.029  0.00  0.00    +0.000 A 
ATOM     22  C   UNL     1       6.285  25.745  21.795  0.00  0.00    +0.250 A 
ATOM     23  O   UNL     1       5.794  26.185  20.615  0.00  0.00    -0.650 OA
ENDROOT
BRANCH   7   8
ATOM      8  C   UNL     1       4.663  27.946  26.945  0.00  0.00    +0.000 A 
ATOM      9  C   UNL     1       4.015  29.157  27.226  0.00  0.00    -0.130 A 
ATOM     10  C   UNL     1       3.686  29.499  28.527  0.00  0.00    +0.250 A 
ATOM     11  O   UNL     1       3.071  30.680  28.794  0.00  0.00    -0.650 OA
ATOM     12  C   UNL     1       3.997  28.567  29.628  0.00  0.00    +0.250 A 
ATOM     13  O   UNL     1       3.674  28.901  30.898  0.00  0.00    -0.650 OA
ATOM     14  C   UNL     1       4.664  27.287  29.288  0.00  0.00    +0.250 A 
ATOM     15  O   UNL     1       4.998  26.357  30.215  0.00  0.00    -0.650 OA
ATOM     16  C   UNL     1       4.964  27.028  27.967  0.00  0.00    -0.130 A 
ENDBRANCH   7   8
TORSDOF 1
