REMARK  Name = 5AJV
REMARK  8 active torsions:
REMARK  status: ('A' for Active; 'I' for Inactive)
REMARK    1  A    between atoms: C_3  and  C_4
REMARK    2  A    between atoms: C_12  and  O_13
REMARK    3  A    between atoms: O_13  and  C_14
REMARK    4  A    between atoms: C_19  and  N_20
REMARK    5  A    between atoms: C_21  and  CA_23
REMARK    6  A    between atoms: CA_23  and  N_24
REMARK    7  A    between atoms: CA_23  and  C_25
REMARK    8  A    between atoms: C_25  and  O_26
REMARK                            x       y       z     vdW  Elec       q    Type
REMARK                         _______ _______ _______ _____ _____    ______ ____
ROOT
ATOM      4  C   UNL     1      41.530 -36.362  15.136  0.00  0.00    +0.129 A 
ATOM      5  C   UNL     1      41.540 -35.030  15.456  0.00  0.00    +0.048 A 
ATOM      6  C   UNL     1      41.075 -34.593  16.688  0.00  0.00    +0.027 A 
ATOM      7  C   UNL     1      40.563 -35.463  17.648  0.00  0.00    +0.034 A 
ATOM     19  C   UNL     1      40.565 -36.819  17.321  0.00  0.00    +0.027 A 
ATOM     20  C   UNL     1      41.046 -37.260  16.084  0.00  0.00    +0.048 A 
ENDROOT
BRANCH   7   8
ATOM      8  N   UNL     1      40.153 -34.895  18.803  0.00  0.00    -0.284 N 
ATOM      9  H   UNL     1      39.856 -33.867  18.789  0.00  0.00    +0.155 HD
ATOM     10  C   UNL     1      40.101 -35.565  19.976  0.00  0.00    +0.236 C 
ATOM     18  O   UNL     1      40.373 -36.755  20.139  0.00  0.00    -0.274 OA
BRANCH  10  11
ATOM     11  CA  UNL     1      39.775 -34.715  21.213  0.00  0.00    +0.164 C 
BRANCH  11  15
ATOM     15  N   UNL     1      38.652 -35.290  22.007  0.00  0.00    -0.318 NA
ATOM     16  H1  UNL     1      37.774 -35.342  21.398  0.00  0.00    +0.119 HD
ATOM     17  H2  UNL     1      38.915 -36.273  22.338  0.00  0.00    +0.119 HD
ENDBRANCH  11  15
BRANCH  11  12
ATOM     12  C   UNL     1      41.101 -34.688  21.968  0.00  0.00    +0.183 C 
BRANCH  12  13
ATOM     13  O   UNL     1      41.120 -33.418  22.601  0.00  0.00    -0.393 OA
ATOM     14  H   UNL     1      41.067 -32.663  21.873  0.00  0.00    +0.209 HD
ENDBRANCH  12  13
ENDBRANCH  11  12
ENDBRANCH  10  11
ENDBRANCH   7   8
BRANCH   4   3
ATOM      3  O   UNL     1      42.023 -36.709  13.915  0.00  0.00    -0.456 OA
BRANCH   3   2
ATOM      1  C   UNL     1      42.409 -38.923  13.109  0.00  0.00    +0.056 A 
ATOM      2  C   UNL     1      41.547 -37.855  13.363  0.00  0.00    +0.129 A 
ATOM     21  C   UNL     1      40.203 -37.982  13.051  0.00  0.00    +0.050 A 
ATOM     22  C   UNL     1      39.789 -39.183  12.494  0.00  0.00    +0.059 A 
ATOM     23  C   UNL     1      40.653 -40.195  12.262  0.00  0.00    +0.182 A 
ATOM     24  N   UNL     1      40.466 -41.423  11.730  0.00  0.00    -0.044 NA
ATOM     25  C   UNL     1      41.650 -42.041  11.724  0.00  0.00    +0.313 C 
ATOM     26  N   UNL     1      41.841 -43.269  11.272  0.00  0.00    -0.249 N 
ATOM     27  H   UNL     1      41.017 -43.830  10.883  0.00  0.00    +0.288 HD
ATOM     28  H   UNL     1      42.819 -43.702  11.295  0.00  0.00    +0.288 HD
ATOM     29  C   UNL     1      42.543 -41.219  12.231  0.00  0.00    +0.221 C 
ATOM     32  C   UNL     1      41.954 -40.067  12.576  0.00  0.00    +0.041 A 
BRANCH  29  30
ATOM     30  C   UNL     1      43.909 -41.544  12.367  0.00  0.00    +0.089 C 
ATOM     31  N   UNL     1      45.070 -41.875  12.471  0.00  0.00    -0.195 NA
ENDBRANCH  29  30
ENDBRANCH   3   2
ENDBRANCH   4   3
TORSDOF 8
