REMARK  Name = 3SHE
REMARK  3 active torsions:
REMARK  status: ('A' for Active; 'I' for Inactive)
REMARK    1  A    between atoms: C_17  and  C_18
REMARK    2  A    between atoms: C_23  and  C_24
REMARK    3  A    between atoms: C_28  and  C_31
REMARK                            x       y       z     vdW  Elec       q    Type
REMARK                         _______ _______ _______ _____ _____    ______ ____
ROOT
ATOM      1  N   UNL     1      11.976  13.215  15.555  0.00  0.00    -0.266 N 
ATOM      2  H   UNL     1      11.125  13.834  15.748  0.00  0.00    +0.157 HD
ATOM      3  C   UNL     1      13.046  13.384  16.376  0.00  0.00    +0.249 C 
ATOM      4  O   UNL     1      14.070  12.748  16.231  0.00  0.00    -0.270 OA
ATOM     15  C   UNL     1      11.865  12.315  14.479  0.00  0.00    +0.126 A 
ATOM     16  N   UNL     1      10.681  12.286  13.885  0.00  0.00    -0.240 NA
ATOM     17  C   UNL     1      10.408  11.494  12.863  0.00  0.00    +0.113 A 
ATOM     18  C   UNL     1      11.351  10.644  12.347  0.00  0.00    +0.030 A 
ATOM     19  C   UNL     1      12.627  10.621  12.919  0.00  0.00    +0.005 A 
ATOM     37  C   UNL     1      12.884  11.476  14.007  0.00  0.00    +0.053 A 
ENDROOT
BRANCH  19  20
ATOM     20  C   UNL     1      13.666   9.707  12.391  0.00  0.00    +0.072 A 
ATOM     21  C   UNL     1      13.606   8.938  11.262  0.00  0.00    +0.043 A 
ATOM     22  C   UNL     1      14.817   8.244  11.178  0.00  0.00    +0.061 A 
ATOM     23  C   UNL     1      15.581   8.618  12.279  0.00  0.00    +0.063 A 
ATOM     24  C   UNL     1      16.964   8.070  12.534  0.00  0.00    +0.042 C 
ATOM     25  C   UNL     1      17.573   7.656  11.199  0.00  0.00    +0.119 C 
ATOM     26  N   UNL     1      16.654   6.975  10.290  0.00  0.00    -0.310 N 
ATOM     27  H   UNL     1      17.045   6.204   9.659  0.00  0.00    +0.149 HD
ATOM     28  C   UNL     1      16.850   6.842  13.435  0.00  0.00    +0.095 C 
ATOM     29  N   UNL     1      18.161   6.505  14.006  0.00  0.00    -0.315 NA
ATOM     30  H   UNL     1      18.003   5.711  14.706  0.00  0.00    +0.122 HD
ATOM     31  C   UNL     1      18.923   7.545  14.702  0.00  0.00    +0.081 C 
ATOM     32  C   UNL     1      19.163   8.667  13.701  0.00  0.00    +0.016 C 
ATOM     33  C   UNL     1      17.808   9.173  13.193  0.00  0.00    +0.017 C 
ATOM     34  C   UNL     1      15.336   7.266  10.203  0.00  0.00    +0.246 C 
ATOM     35  O   UNL     1      14.640   6.746   9.349  0.00  0.00    -0.270 OA
ATOM     36  N   UNL     1      14.880   9.492  12.989  0.00  0.00    -0.250 NA
ENDBRANCH  19  20
BRANCH   3   5
ATOM      5  C   UNL     1      12.977  14.395  17.470  0.00  0.00    +0.038 A 
ATOM      6  C   UNL     1      13.528  14.142  18.736  0.00  0.00    +0.025 A 
ATOM      7  C   UNL     1      13.460  15.103  19.739  0.00  0.00    +0.056 A 
ATOM     12  C   UNL     1      12.844  16.323  19.483  0.00  0.00    +0.012 A 
ATOM     13  C   UNL     1      12.302  16.585  18.236  0.00  0.00    +0.001 A 
ATOM     14  C   UNL     1      12.368  15.634  17.235  0.00  0.00    +0.013 A 
BRANCH   7   8
ATOM      8  C   UNL     1      14.056  14.808  21.099  0.00  0.00    +0.417 C 
ATOM      9  F   UNL     1      14.186  15.965  21.882  0.00  0.00    -0.166 F 
ATOM     10  F   UNL     1      15.319  14.230  20.934  0.00  0.00    -0.166 F 
ATOM     11  F   UNL     1      13.231  13.910  21.780  0.00  0.00    -0.166 F 
ENDBRANCH   7   8
ENDBRANCH   3   5
TORSDOF 3
