REMARK  Name = J0P
REMARK  4 active torsions:
REMARK  status: ('A' for Active; 'I' for Inactive)
REMARK    1  A    between atoms: C10_7  and  C_13
REMARK    2  A    between atoms: C13_8  and  C16_15
REMARK    3  A    between atoms: N_20  and  C1_21
REMARK    4  A    between atoms: C1_21  and  C2_22
REMARK                            x       y       z     vdW  Elec       q    Type
REMARK                         _______ _______ _______ _____ _____    ______ ____
ROOT
ATOM     11  C   UNL     1      25.780  46.856  52.944  0.00  0.00    +0.265 C 
ATOM     12  O   UNL     1      25.040  47.760  53.258  0.00  0.00    -0.268 OA
ATOM     13  N   UNL     1      25.800  46.378  51.657  0.00  0.00    -0.197 NA
ENDROOT
BRANCH  11   9
ATOM      6  C   UNL     1      28.804  45.304  55.560  0.00  0.00    +0.000 A 
ATOM      7  C   UNL     1      28.367  46.633  55.653  0.00  0.00    +0.000 A 
ATOM      8  C   UNL     1      27.352  47.121  54.838  0.00  0.00    +0.005 A 
ATOM      9  C   UNL     1      26.757  46.287  53.898  0.00  0.00    +0.055 A 
ATOM     10  C   UNL     1      27.131  44.940  53.816  0.00  0.00    +0.005 A 
ATOM     25  C   UNL     1      28.153  44.449  54.643  0.00  0.00    +0.000 A 
BRANCH   6   4
ATOM      1  N   UNL     1      32.022  43.871  58.087  0.00  0.00    -0.242 NA
ATOM      2  C   UNL     1      31.191  44.887  58.488  0.00  0.00    +0.099 A 
ATOM      3  C   UNL     1      30.136  45.394  57.705  0.00  0.00    +0.021 A 
ATOM      4  C   UNL     1      29.914  44.821  56.406  0.00  0.00    +0.003 A 
ATOM      5  C   UNL     1      30.768  43.754  55.981  0.00  0.00    +0.021 A 
ATOM     26  C   UNL     1      31.796  43.321  56.856  0.00  0.00    +0.099 A 
ENDBRANCH   6   4
ENDBRANCH  11   9
BRANCH  13  14
ATOM     14  C   UNL     1      24.875  46.827  50.620  0.00  0.00    +0.145 C 
BRANCH  14  15
ATOM     15  C   UNL     1      25.450  47.856  49.699  0.00  0.00    +0.036 A 
ATOM     16  C   UNL     1      26.822  47.993  49.441  0.00  0.00    +0.001 A 
ATOM     17  C   UNL     1      27.318  49.031  48.647  0.00  0.00    +0.003 A 
ATOM     18  C   UNL     1      26.432  49.944  48.048  0.00  0.00    +0.040 A 
ATOM     19  C   UNL     1      25.032  49.758  48.248  0.00  0.00    +0.172 A 
ATOM     20  O   UNL     1      24.137  50.534  47.542  0.00  0.00    -0.468 OA
ATOM     21  C   UNL     1      22.923  50.771  48.247  0.00  0.00    +0.253 C 
ATOM     22  C   UNL     1      22.273  49.435  48.645  0.00  0.00    +0.253 C 
ATOM     23  O   UNL     1      23.196  48.566  49.306  0.00  0.00    -0.469 OA
ATOM     24  C   UNL     1      24.553  48.743  49.081  0.00  0.00    +0.170 A 
ENDBRANCH  14  15
ENDBRANCH  13  14
TORSDOF 4
