REMARK  Name = 4ASX
REMARK  1 active torsions:
REMARK  status: ('A' for Active; 'I' for Inactive)
REMARK    1  A    between atoms: C_1  and  N_2
REMARK                            x       y       z     vdW  Elec       q    Type
REMARK                         _______ _______ _______ _____ _____    ______ ____
ROOT
ATOM      1  C   UNL     1     -40.248  44.436   9.539  0.00  0.00    +0.149 C 
ATOM      2  N   UNL     1     -39.051  45.104   9.102  0.00  0.00    -0.338 N 
ATOM      3  C   UNL     1     -38.582  45.164   7.779  0.00  0.00    +0.070 A 
ATOM      4  C   UNL     1     -39.127  44.687   6.585  0.00  0.00    +0.083 A 
ATOM      5 CL   UNL     1     -40.648  43.837   6.567  0.00  0.00    -0.080 Cl
ATOM      6  C   UNL     1     -38.435  44.936   5.406  0.00  0.00    +0.061 A 
ATOM      7 CL   UNL     1     -39.045  44.358   3.920  0.00  0.00    -0.082 Cl
ATOM      8  C   UNL     1     -37.213  45.645   5.373  0.00  0.00    +0.022 A 
ATOM      9  C   UNL     1     -36.674  46.112   6.568  0.00  0.00    +0.012 A 
ATOM     10  C   UNL     1     -37.368  45.851   7.754  0.00  0.00    +0.005 A 
ATOM     11  C   UNL     1     -37.095  46.248   9.071  0.00  0.00    -0.008 A 
ATOM     12  C   UNL     1     -35.885  47.037   9.653  0.00  0.00    +0.056 C 
ATOM     13  C   UNL     1     -35.784  47.035  11.195  0.00  0.00    +0.109 C 
ATOM     14  N   UNL     1     -37.016  46.577  11.761  0.00  0.00    -0.310 N 
ATOM     15  H   UNL     1     -37.031  46.779  12.812  0.00  0.00    +0.149 HD
ATOM     16  C   UNL     1     -38.187  45.960  11.387  0.00  0.00    +0.261 C 
ATOM     17  O   UNL     1     -39.111  45.704  12.135  0.00  0.00    -0.269 OA
ATOM     18  C   UNL     1     -38.180  45.730   9.911  0.00  0.00    +0.108 A 
ENDROOT
TORSDOF 0
