REMARK  Name = 3oy1_ligand
REMARK  5 active torsions:
REMARK  status: ('A' for Active; 'I' for Inactive)
REMARK    1  A    between atoms: C8_8  and  N11_11
REMARK    2  A    between atoms: C12_12  and  C23_23
REMARK    3  A    between atoms: N14_14  and  C17_17
REMARK    4  A    between atoms: C27_27  and  N29_29
REMARK    5  A    between atoms: N29_29  and  C30_30
REMARK                            x       y       z     vdW  Elec       q    Type
REMARK                         _______ _______ _______ _____ _____    ______ ____
ROOT
ATOM      8  N   UNL     1     -21.334  11.123 -32.604  0.00  0.00    -0.139 N 
ATOM      9  C   UNL     1     -22.014  12.074 -32.094  0.00  0.00    +0.355 A 
ATOM     10  O   UNL     1     -21.870  13.281 -32.397  0.00  0.00    -0.390 OA
ATOM     11  N   UNL     1     -22.872  11.574 -31.263  0.00  0.00    -0.143 N 
ATOM     18  N   UNL     1     -22.702  10.250 -31.249  0.00  0.00    -0.173 NA
ATOM     19  C   UNL     1     -21.713   9.967 -32.081  0.00  0.00    +0.186 A 
ENDROOT
BRANCH   8   7
ATOM      1  C   UNL     1     -17.396  11.900 -36.435  0.00  0.00    +0.002 A 
ATOM      2  C   UNL     1     -16.388  12.775 -36.133  0.00  0.00    -0.008 A 
ATOM      3  C   UNL     1     -16.332  13.441 -34.937  0.00  0.00    -0.006 A 
ATOM      4  C   UNL     1     -17.308  13.268 -33.999  0.00  0.00    -0.003 A 
ATOM      5  C   UNL     1     -18.345  12.398 -34.239  0.00  0.00    -0.031 A 
ATOM      6  C   UNL     1     -19.344  12.177 -33.319  0.00  0.00    +0.016 A 
ATOM      7  C   UNL     1     -20.388  11.319 -33.511  0.00  0.00    +0.097 A 
ATOM     34  C   UNL     1     -20.364  10.691 -34.747  0.00  0.00    +0.031 A 
ATOM     35  C   UNL     1     -19.402  10.845 -35.729  0.00  0.00    +0.004 A 
ATOM     36  C   UNL     1     -18.376  11.694 -35.518  0.00  0.00    -0.026 A 
ENDBRANCH   8   7
BRANCH  11  12
ATOM     12  C   UNL     1     -23.918  11.989 -30.346  0.00  0.00    +0.152 C 
ATOM     13  C   UNL     1     -23.483  12.938 -29.281  0.00  0.00    +0.065 C 
ATOM     14  C   UNL     1     -24.623  13.211 -28.324  0.00  0.00    +0.163 C 
ATOM     15  O   UNL     1     -25.888  13.392 -28.940  0.00  0.00    -0.380 OA
ATOM     16  C   UNL     1     -26.197  12.514 -29.974  0.00  0.00    +0.163 C 
ATOM     17  C   UNL     1     -25.112  12.578 -30.987  0.00  0.00    +0.065 C 
ENDBRANCH  11  12
BRANCH  19  20
ATOM     20  C   UNL     1     -21.298   8.561 -32.297  0.00  0.00    +0.027 A 
ATOM     21  C   UNL     1     -22.176   7.525 -32.107  0.00  0.00    +0.048 A 
ATOM     22  C   UNL     1     -21.791   6.220 -32.301  0.00  0.00    +0.106 A 
ATOM     31  N   UNL     1     -20.539   5.980 -32.672  0.00  0.00    -0.291 NA
ATOM     32  C   UNL     1     -19.693   6.945 -32.832  0.00  0.00    +0.069 A 
ATOM     33  C   UNL     1     -20.034   8.245 -32.663  0.00  0.00    +0.018 A 
BRANCH  22  23
ATOM     23  N   UNL     1     -22.605   5.178 -32.155  0.00  0.00    -0.306 N 
ATOM     24  H   UNL     1     -22.269   4.277 -32.495  0.00  0.00    +0.180 HD
BRANCH  23  25
ATOM     25  C   UNL     1     -23.899   5.204 -31.569  0.00  0.00    +0.093 C 
ATOM     26  C   UNL     1     -23.773   5.259 -30.068  0.00  0.00    +0.027 C 
ATOM     27  C   UNL     1     -25.114   5.156 -29.377  0.00  0.00    +0.002 C 
ATOM     28  C   UNL     1     -25.895   3.937 -29.777  0.00  0.00    +0.000 C 
ATOM     29  C   UNL     1     -25.978   3.897 -31.274  0.00  0.00    +0.002 C 
ATOM     30  C   UNL     1     -24.632   3.950 -31.948  0.00  0.00    +0.027 C 
ENDBRANCH  23  25
ENDBRANCH  22  23
ENDBRANCH  19  20
TORSDOF 5
