REMARK  Name = 3zw3_ligand
REMARK  3 active torsions:
REMARK  status: ('A' for Active; 'I' for Inactive)
REMARK    1  A    between atoms: C1_1  and  C2_2
REMARK    2  A    between atoms: N4_4  and  C5_5
REMARK    3  A    between atoms: C9_9  and  C10_10
REMARK                            x       y       z     vdW  Elec       q    Type
REMARK                         _______ _______ _______ _____ _____    ______ ____
ROOT
ATOM      5  C   UNL     1      48.295  14.440  30.106  0.00  0.00    +0.095 A 
ATOM      6  N   UNL     1      47.795  13.464  29.377  0.00  0.00    -0.321 NA
ATOM      7  C   UNL     1      46.495  13.350  29.708  0.00  0.00    +0.128 A 
ATOM      8  C   UNL     1      45.484  12.491  29.290  0.00  0.00    +0.035 A 
ATOM      9  C   UNL     1      44.239  12.535  29.793  0.00  0.00    +0.005 A 
ATOM     10  C   UNL     1      43.903  13.490  30.749  0.00  0.00    +0.009 A 
ATOM     20  C   UNL     1      44.896  14.372  31.178  0.00  0.00    +0.207 A 
ATOM     21  N   UNL     1      46.177  14.279  30.653  0.00  0.00    -0.220 N 
ATOM     22  C   UNL     1      47.338  14.963  30.876  0.00  0.00    +0.124 A 
ENDROOT
BRANCH  10  11
ATOM     11  C   UNL     1      42.491  13.443  31.197  0.00  0.00    +0.023 C 
ATOM     12  C   UNL     1      41.973  14.086  32.341  0.00  0.00    +0.110 C 
ATOM     13  C   UNL     1      40.590  14.027  32.749  0.00  0.00    +0.239 C 
ATOM     14  O   UNL     1      39.749  13.426  32.190  0.00  0.00    -0.378 OA
ATOM     15  N   UNL     1      40.320  14.654  33.787  0.00  0.00    -0.189 N 
ATOM     16  H   UNL     1      39.358  14.628  34.126  0.00  0.00    +0.225 HD
ATOM     17  C   UNL     1      41.198  15.349  34.475  0.00  0.00    +0.281 C 
ATOM     18  O   UNL     1      40.995  16.023  35.479  0.00  0.00    -0.371 OA
ATOM     19  S   UNL     1      42.701  15.127  33.636  0.00  0.00    +0.037 S 
ENDBRANCH  10  11
BRANCH   5   3
ATOM      1  C   UNL     1      51.791  15.745  30.370  0.00  0.00    +0.172 C 
ATOM      2  C   UNL     1      50.314  15.720  30.657  0.00  0.00    +0.196 C 
ATOM      3  N   UNL     1      49.607  14.758  30.038  0.00  0.00    -0.241 N 
ATOM      4  H   UNL     1      50.154  14.168  29.411  0.00  0.00    +0.221 HD
ATOM     23  O   UNL     1      49.829  16.562  31.355  0.00  0.00    -0.387 OA
ENDBRANCH   5   3
TORSDOF 2
