REMARK  Name = 4izy_ligand
REMARK  5 active torsions:
REMARK  status: ('A' for Active; 'I' for Inactive)
REMARK    1  A    between atoms: C15_15  and  N16_16
REMARK    2  A    between atoms: N17_17  and  C18_18
REMARK    3  A    between atoms: C21_21  and  O24_24
REMARK    4  A    between atoms: C27_27  and  S30_30
REMARK    5  A    between atoms: S30_30  and  C33_33
REMARK                            x       y       z     vdW  Elec       q    Type
REMARK                         _______ _______ _______ _____ _____    ______ ____
ROOT
ATOM      1  N   UNL     1     -12.853  11.145 -18.232  0.00  0.00    -0.267 NA
ATOM      2  C   UNL     1     -13.880  10.477 -17.693  0.00  0.00    +0.091 A 
ATOM      3  C   UNL     1     -14.252   9.241 -18.198  0.00  0.00    +0.069 A 
ATOM      4  C   UNL     1     -13.541   8.736 -19.295  0.00  0.00    +0.164 A 
ATOM      5  N   UNL     1     -13.862   7.482 -19.835  0.00  0.00    -0.210 N 
ATOM      6  C   UNL     1     -13.445   6.955 -21.049  0.00  0.00    +0.077 A 
ATOM      7  C   UNL     1     -12.652   7.441 -22.092  0.00  0.00    -0.010 A 
ATOM      8  C   UNL     1     -12.414   6.656 -23.205  0.00  0.00    -0.038 A 
ATOM      9  C   UNL     1     -12.952   5.371 -23.310  0.00  0.00    -0.020 A 
ATOM     10  C   UNL     1     -13.750   4.852 -22.296  0.00  0.00    +0.034 A 
ATOM     21  C   UNL     1     -13.996   5.658 -21.160  0.00  0.00    +0.001 A 
ATOM     22  C   UNL     1     -14.766   5.449 -19.927  0.00  0.00    -0.031 A 
ATOM     23  C   UNL     1     -14.644   6.557 -19.184  0.00  0.00    +0.130 A 
ATOM     24  N   UNL     1     -12.518   9.457 -19.774  0.00  0.00    -0.228 NA
ATOM     25  C   UNL     1     -12.186  10.639 -19.258  0.00  0.00    +0.180 A 
ATOM     26  N   UNL     1     -11.127  11.354 -19.794  0.00  0.00    -0.288 N 
ATOM     27  H   UNL     1     -10.921  12.303 -19.452  0.00  0.00    +0.186 HD
ENDROOT
BRANCH  10  11
ATOM     11  N   UNL     1     -14.310   3.550 -22.391  0.00  0.00    -0.311 N 
ATOM     12  C   UNL     1     -13.861   2.577 -21.376  0.00  0.00    +0.132 C 
ATOM     13  C   UNL     1     -14.924   1.465 -21.293  0.00  0.00    +0.050 C 
ATOM     14  C   UNL     1     -15.105   0.798 -22.675  0.00  0.00    +0.134 C 
ATOM     19  C   UNL     1     -15.456   1.860 -23.738  0.00  0.00    +0.050 C 
ATOM     20  C   UNL     1     -14.377   2.951 -23.746  0.00  0.00    +0.132 C 
BRANCH  14  15
ATOM     15  S   UNL     1     -16.377  -0.516 -22.633  0.00  0.00    -0.031 S 
ATOM     16  C   UNL     1     -15.540  -1.790 -21.632  0.00  0.00    +0.194 C 
ATOM     17  O   UNL     1     -16.533  -1.026 -23.956  0.00  0.00    -0.174 OA
ATOM     18  O   UNL     1     -17.543  -0.082 -21.932  0.00  0.00    -0.174 OA
ENDBRANCH  14  15
ENDBRANCH  10  11
BRANCH  26  28
ATOM     28  C   UNL     1     -10.297  10.757 -20.852  0.00  0.00    +0.098 C 
ATOM     29  C   UNL     1      -9.642  11.873 -21.677  0.00  0.00    +0.030 C 
ATOM     30  C   UNL     1      -8.760  11.255 -22.769  0.00  0.00    +0.034 C 
ATOM     31  C   UNL     1      -7.674  10.374 -22.146  0.00  0.00    +0.115 C 
ATOM     34  C   UNL     1      -8.315   9.256 -21.314  0.00  0.00    +0.034 C 
ATOM     35  C   UNL     1      -9.229   9.842 -20.229  0.00  0.00    +0.030 C 
BRANCH  31  32
ATOM     32  O   UNL     1      -6.933   9.752 -23.192  0.00  0.00    -0.392 OA
ATOM     33  H   UNL     1      -6.256   9.203 -22.815  0.00  0.00    +0.210 HD
ENDBRANCH  31  32
ENDBRANCH  26  28
TORSDOF 4
