REMARK  Name = 4ibm_ligand
REMARK  2 active torsions:
REMARK  status: ('A' for Active; 'I' for Inactive)
REMARK    1  A    between atoms: C18_9  and  C24_11
REMARK    2  A    between atoms: C23_17  and  C6_20
REMARK                            x       y       z     vdW  Elec       q    Type
REMARK                         _______ _______ _______ _____ _____    ______ ____
ROOT
ATOM      6  C   UNL     1       4.689  -8.818   6.074  0.00  0.00    +0.040 A 
ATOM      7  C   UNL     1       5.713  -8.289   7.019  0.00  0.00    +0.051 A 
ATOM     14  N   UNL     1       6.459  -7.374   6.354  0.00  0.00    -0.191 NA
ATOM     15  N   UNL     1       5.945  -7.303   5.066  0.00  0.00    -0.141 N 
ATOM     16  C   UNL     1       6.450  -6.486   4.123  0.00  0.00    +0.238 A 
ATOM     17  C   UNL     1       5.862  -6.467   2.859  0.00  0.00    +0.049 A 
ATOM     18  C   UNL     1       4.770  -7.294   2.569  0.00  0.00    +0.020 A 
ATOM     19  C   UNL     1       4.283  -8.133   3.570  0.00  0.00    +0.050 A 
ATOM     20  C   UNL     1       4.904  -8.079   4.815  0.00  0.00    +0.129 A 
ENDROOT
BRANCH   6   5
ATOM      1  O   UNL     1       2.703 -12.802   9.747  0.00  0.00    -0.318 OA
ATOM      2  C   UNL     1       2.028 -12.460   8.503  0.00  0.00    +0.290 C 
ATOM      3  C   UNL     1       2.506 -11.465   7.542  0.00  0.00    +0.132 A 
ATOM      4  C   UNL     1       3.584 -10.601   7.453  0.00  0.00    +0.102 A 
ATOM      5  C   UNL     1       3.617  -9.804   6.307  0.00  0.00    +0.039 A 
ATOM     21  N   UNL     1       2.658  -9.873   5.351  0.00  0.00    -0.280 NA
ATOM     22  N   UNL     1       1.575 -10.740   5.432  0.00  0.00    -0.224 NA
ATOM     23  C   UNL     1       1.459 -11.529   6.513  0.00  0.00    +0.199 A 
ATOM     24  N   UNL     1       0.559 -12.461   6.880  0.00  0.00    -0.111 NA
ATOM     25  N   UNL     1       0.879 -13.040   8.127  0.00  0.00    -0.089 NA
ENDBRANCH   6   5
BRANCH   7   8
ATOM      8  C   UNL     1       5.951  -8.637   8.438  0.00  0.00    -0.009 A 
ATOM      9  C   UNL     1       5.084  -8.128   9.402  0.00  0.00    +0.010 A 
ATOM     10  C   UNL     1       5.308  -8.425  10.747  0.00  0.00    +0.002 A 
ATOM     11  C   UNL     1       6.431  -9.196  11.103  0.00  0.00    +0.001 A 
ATOM     12  C   UNL     1       7.290  -9.689  10.128  0.00  0.00    +0.002 A 
ATOM     13  C   UNL     1       7.054  -9.408   8.783  0.00  0.00    +0.010 A 
ENDBRANCH   7   8
TORSDOF 2
