REMARK  Name = 2r3k_ligand
REMARK  4 active torsions:
REMARK  status: ('A' for Active; 'I' for Inactive)
REMARK    1  A    between atoms: C07_7  and  C11_11
REMARK    2  A    between atoms: C09_9  and  N10_10
REMARK    3  A    between atoms: N10_10  and  C12_12
REMARK    4  A    between atoms: C12_12  and  C13_13
REMARK                            x       y       z     vdW  Elec       q    Type
REMARK                         _______ _______ _______ _____ _____    ______ ____
ROOT
ATOM      1  C   UNL     1      -0.382  31.780   8.664  0.00  0.00    +0.010 A 
ATOM      2 BR   UNL     1      -2.021  32.397   9.223  0.00  0.00    -0.097 Br
ATOM      3  C   UNL     1       0.538  32.447   7.847  0.00  0.00    +0.045 A 
ATOM      4  N   UNL     1       1.612  31.687   7.648  0.00  0.00    -0.219 NA
ATOM      5  N   UNL     1       1.380  30.511   8.351  0.00  0.00    -0.134 N 
ATOM      6  C   UNL     1       2.199  29.413   8.456  0.00  0.00    +0.210 A 
ATOM     16  C   UNL     1       1.741  28.337   9.226  0.00  0.00    +0.039 A 
ATOM     17  C   UNL     1       0.465  28.366   9.891  0.00  0.00    -0.035 A 
ATOM     24  C   UNL     1      -0.324  29.472   9.770  0.00  0.00    +0.007 A 
ATOM     25  C   UNL     1       0.167  30.559   8.971  0.00  0.00    +0.094 A 
ENDROOT
BRANCH  17  18
ATOM     18  C   UNL     1       0.027  27.192  10.696  0.00  0.00    -0.021 A 
ATOM     19  C   UNL     1      -0.278  25.988  10.061  0.00  0.00    +0.010 A 
ATOM     20  C   UNL     1      -0.696  24.876  10.798  0.00  0.00    +0.002 A 
ATOM     21  C   UNL     1      -0.822  24.962  12.187  0.00  0.00    +0.002 A 
ATOM     22  C   UNL     1      -0.526  26.162  12.835  0.00  0.00    +0.002 A 
ATOM     23  C   UNL     1      -0.102  27.275  12.094  0.00  0.00    +0.010 A 
ENDBRANCH  17  18
BRANCH   6   7
ATOM      7  N   UNL     1       3.413  29.461   7.803  0.00  0.00    -0.264 N 
ATOM      8  H   UNL     1       3.583  30.165   7.070  0.00  0.00    +0.193 HD
BRANCH   7   9
ATOM      9  C   UNL     1       4.453  28.503   8.163  0.00  0.00    +0.221 C 
BRANCH   9  10
ATOM     10  C   UNL     1       4.516  27.491   7.073  0.00  0.00    +0.033 A 
ATOM     11  C   UNL     1       4.321  26.130   7.330  0.00  0.00    +0.121 A 
ATOM     12  N   UNL     1       4.335  25.206   6.362  0.00  0.00    -0.270 NA
ATOM     13  C   UNL     1       4.565  25.671   5.121  0.00  0.00    +0.190 A 
ATOM     14  N   UNL     1       4.744  26.945   4.750  0.00  0.00    -0.270 NA
ATOM     15  C   UNL     1       4.715  27.844   5.734  0.00  0.00    +0.121 A 
ENDBRANCH   9  10
ENDBRANCH   7   9
ENDBRANCH   6   7
TORSDOF 4
