REMARK  Name = 5KCX
REMARK  5 active torsions:
REMARK  status: ('A' for Active; 'I' for Inactive)
REMARK    1  A    between atoms: N_3  and  C_4
REMARK    2  A    between atoms: N_7  and  C_8
REMARK    3  A    between atoms: C_13  and  C_14
REMARK    4  A    between atoms: C_20  and  C_21
REMARK    5  A    between atoms: N_26  and  C_27
REMARK                            x       y       z     vdW  Elec       q    Type
REMARK                         _______ _______ _______ _____ _____    ______ ____
ROOT
ATOM      7  C   UNL     1      23.463  38.071  -1.735  0.00  0.00    +0.051 A 
ATOM      8  N   UNL     1      22.957  36.879  -2.020  0.00  0.00    -0.328 N 
ATOM      9  C   UNL     1      22.515  36.403  -3.350  0.00  0.00    +0.151 C 
ATOM     10  C   UNL     1      22.922  36.194  -0.880  0.00  0.00    +0.143 A 
ATOM     11  N   UNL     1      22.501  34.945  -0.625  0.00  0.00    -0.224 NA
ATOM     12  C   UNL     1      22.558  34.449   0.618  0.00  0.00    +0.129 A 
ATOM     18  C   UNL     1      23.058  35.237   1.644  0.00  0.00    +0.053 A 
ATOM     19  C   UNL     1      23.485  36.523   1.343  0.00  0.00    +0.054 A 
ATOM     20 CL   UNL     1      24.113  37.538   2.588  0.00  0.00    -0.083 Cl
ATOM     21  C   UNL     1      23.408  36.973   0.093  0.00  0.00    +0.038 A 
ATOM     22  C   UNL     1      23.746  38.145  -0.441  0.00  0.00    +0.039 A 
ENDROOT
BRANCH   7   6
ATOM      3  C   UNL     1      24.090  41.200  -4.557  0.00  0.00    +0.030 A 
ATOM      4  C   UNL     1      24.290  39.876  -4.931  0.00  0.00    +0.024 A 
ATOM      5  C   UNL     1      24.085  38.855  -4.011  0.00  0.00    +0.012 A 
ATOM      6  C   UNL     1      23.681  39.158  -2.716  0.00  0.00    -0.001 A 
ATOM     23  C   UNL     1      23.481  40.481  -2.341  0.00  0.00    +0.012 A 
ATOM     24  C   UNL     1      23.685  41.502  -3.262  0.00  0.00    +0.024 A 
BRANCH   3   2
ATOM      1  C   UNL     1      25.254  42.081  -6.561  0.00  0.00    +0.120 C 
ATOM      2  N   UNL     1      24.287  42.184  -5.445  0.00  0.00    -0.328 N 
ATOM     25  C   UNL     1      23.557  43.471  -5.397  0.00  0.00    +0.120 C 
ATOM     26  C   UNL     1      22.967  43.814  -6.755  0.00  0.00    +0.103 C 
ATOM     27  N   UNL     1      24.004  43.808  -7.796  0.00  0.00    -0.302 NA
ATOM     28  C   UNL     1      23.401  44.157  -9.091  0.00  0.00    +0.105 C 
ATOM     29  C   UNL     1      24.607  42.471  -7.880  0.00  0.00    +0.103 C 
ENDBRANCH   3   2
ENDBRANCH   7   6
BRANCH  12  13
ATOM     13  C   UNL     1      22.086  33.053   0.897  0.00  0.00    +0.260 C 
ATOM     14  N   UNL     1      21.841  32.316  -0.182  0.00  0.00    -0.324 N 
ATOM     15  H   UNL     1      21.500  31.307  -0.075  0.00  0.00    +0.145 HD
ATOM     16  H   UNL     1      21.985  32.731  -1.158  0.00  0.00    +0.145 HD
ATOM     17  O   UNL     1      21.946  32.651   2.051  0.00  0.00    -0.269 OA
ENDBRANCH  12  13
TORSDOF 3
