REMARK  Name = 3qbn_ligand
REMARK  7 active torsions:
REMARK  status: ('A' for Active; 'I' for Inactive)
REMARK    1  A    between atoms: CAA_7  and  OAP_18
REMARK    2  A    between atoms: CAH_12  and  CAI_13
REMARK    3  A    between atoms: CAH_12  and  OAP_18
REMARK    4  A    between atoms: CAI_13  and  OAQ_19
REMARK    5  A    between atoms: NAN_16  and  CAS_20
REMARK    6  A    between atoms: NAO_17  and  CAW_22
REMARK    7  A    between atoms: OAQ_19  and  CAT_21
REMARK                            x       y       z     vdW  Elec       q    Type
REMARK                         _______ _______ _______ _____ _____    ______ ____
ROOT
ATOM      1  N   UNL     1      -2.969  33.157  -7.605  0.00  0.00    -0.270 NA
ATOM      2  C   UNL     1      -3.435  32.126  -8.277  0.00  0.00    +0.099 A 
ATOM      3  C   UNL     1      -4.065  31.086  -7.621  0.00  0.00    +0.094 A 
ATOM      4 CL   UNL     1      -4.662  29.749  -8.548  0.00  0.00    -0.076 Cl
ATOM      5  C   UNL     1      -4.199  31.173  -6.234  0.00  0.00    +0.128 A 
ATOM      6  N   UNL     1      -4.803  30.228  -5.475  0.00  0.00    -0.300 N 
ATOM      7  H   UNL     1      -4.820  29.259  -5.794  0.00  0.00    +0.185 HD
ATOM     11  N   UNL     1      -3.700  32.257  -5.619  0.00  0.00    -0.238 NA
ATOM     12  C   UNL     1      -3.074  33.242  -6.269  0.00  0.00    +0.192 A 
ATOM     13  N   UNL     1      -2.585  34.333  -5.625  0.00  0.00    -0.251 N 
ATOM     14  H   UNL     1      -2.608  35.187  -6.183  0.00  0.00    +0.215 HD
ENDROOT
BRANCH  13  15
ATOM     15  C   UNL     1      -2.070  34.503  -4.376  0.00  0.00    +0.055 A 
ATOM     16  C   UNL     1      -1.175  35.566  -4.197  0.00  0.00    +0.005 A 
ATOM     17  C   UNL     1      -0.611  35.838  -2.945  0.00  0.00    +0.010 A 
ATOM     18  C   UNL     1      -0.935  35.058  -1.830  0.00  0.00    +0.080 A 
ATOM     24  C   UNL     1      -1.824  33.985  -2.000  0.00  0.00    +0.010 A 
ATOM     25  C   UNL     1      -2.392  33.719  -3.256  0.00  0.00    +0.005 A 
BRANCH  18  19
ATOM     19  O   UNL     1      -0.363  35.314  -0.598  0.00  0.00    -0.323 OA
BRANCH  19  20
ATOM     20  C   UNL     1      -0.603  36.634   0.021  0.00  0.00    +0.218 C 
BRANCH  20  21
ATOM     21  C   UNL     1       0.252  36.789   1.329  0.00  0.00    +0.192 C 
BRANCH  21  22
ATOM     22  O   UNL     1      -0.519  36.890   2.590  0.00  0.00    -0.380 OA
ATOM     23  C   UNL     1      -0.066  37.972   3.470  0.00  0.00    +0.194 C 
ENDBRANCH  21  22
ENDBRANCH  20  21
ENDBRANCH  19  20
ENDBRANCH  18  19
ENDBRANCH  13  15
BRANCH   6   8
ATOM      8  C   UNL     1      -5.457  30.597  -4.150  0.00  0.00    +0.097 C 
ATOM      9  C   UNL     1      -6.238  29.475  -3.462  0.00  0.00    +0.030 C 
ATOM     10  C   UNL     1      -4.853  29.890  -2.903  0.00  0.00    +0.030 C 
ENDBRANCH   6   8
TORSDOF 6
