REMARK  Name = D6W
REMARK  4 active torsions:
REMARK  status: ('A' for Active; 'I' for Inactive)
REMARK    1  A    between atoms: C20_8  and  C18_23
REMARK    2  A    between atoms: N7_17  and  C12_20
REMARK    3  A    between atoms: N9_18  and  C29_29
REMARK    4  A    between atoms: C29_29  and  C30_30
REMARK                            x       y       z     vdW  Elec       q    Type
REMARK                         _______ _______ _______ _____ _____    ______ ____
ROOT
ATOM      1  C   UNL     1      -3.743  -4.653  17.061  0.00  0.00    +0.049 C 
ATOM      2  C   UNL     1      -4.060  -3.298  16.433  0.00  0.00    +0.096 C 
ATOM      3  N   UNL     1      -5.528  -3.112  16.424  0.00  0.00    -0.276 N 
ATOM      4  C   UNL     1      -6.239  -2.164  17.192  0.00  0.00    +0.249 C 
ATOM     14  O   UNL     1      -7.444  -2.002  17.001  0.00  0.00    -0.270 OA
ATOM     15  C   UNL     1      -6.169  -4.014  15.456  0.00  0.00    +0.096 C 
ATOM     16  C   UNL     1      -5.987  -5.425  16.034  0.00  0.00    +0.049 C 
ATOM     17  C   UNL     1      -4.526  -5.796  16.374  0.00  0.00    +0.131 C 
ATOM     18  N   UNL     1      -4.466  -7.058  17.188  0.00  0.00    -0.286 N 
ATOM     25  C   UNL     1      -3.644  -8.102  16.505  0.00  0.00    +0.191 C 
ATOM     26  N   UNL     1      -3.575  -7.554  15.103  0.00  0.00    -0.252 N 
ATOM     32  C   UNL     1      -3.787  -6.180  15.104  0.00  0.00    +0.243 C 
ATOM     33  O   UNL     1      -3.424  -5.447  14.214  0.00  0.00    -0.273 OA
ENDROOT
BRANCH   4   5
ATOM      5  C   UNL     1      -5.557  -1.304  18.207  0.00  0.00    +0.054 A 
ATOM      6  C   UNL     1      -4.797  -1.853  19.222  0.00  0.00    +0.008 A 
ATOM      7  C   UNL     1      -4.207  -0.985  20.131  0.00  0.00    +0.041 A 
ATOM      8  C   UNL     1      -3.364  -1.174  21.254  0.00  0.00    +0.124 A 
ATOM      9  N   UNL     1      -3.068   0.024  21.809  0.00  0.00    -0.146 NA
ATOM     10  N   UNL     1      -3.696   0.989  21.064  0.00  0.00    -0.148 NA
ATOM     11  C   UNL     1      -4.414   0.417  20.015  0.00  0.00    +0.104 A 
ATOM     12  C   UNL     1      -5.200   0.973  18.990  0.00  0.00    +0.021 A 
ATOM     13  C   UNL     1      -5.759   0.094  18.087  0.00  0.00    +0.006 A 
ENDBRANCH   4   5
BRANCH  18  19
ATOM     19  C   UNL     1      -4.732  -7.176  18.617  0.00  0.00    +0.049 A 
ATOM     20  C   UNL     1      -4.252  -8.266  19.317  0.00  0.00    +0.015 A 
ATOM     21  C   UNL     1      -4.579  -8.406  20.677  0.00  0.00    +0.001 A 
ATOM     22  C   UNL     1      -5.377  -7.475  21.329  0.00  0.00    +0.000 A 
ATOM     23  C   UNL     1      -5.854  -6.372  20.638  0.00  0.00    +0.001 A 
ATOM     24  C   UNL     1      -5.530  -6.219  19.280  0.00  0.00    +0.015 A 
ENDBRANCH  18  19
BRANCH  26  27
ATOM     27  C   UNL     1      -2.746  -8.206  14.108  0.00  0.00    +0.182 C 
BRANCH  27  28
ATOM     28  C   UNL     1      -1.254  -7.915  14.317  0.00  0.00    +0.262 C 
ATOM     29  O   UNL     1      -0.827  -7.046  15.096  0.00  0.00    -0.272 OA
ATOM     30  N   UNL     1      -0.384  -8.691  13.566  0.00  0.00    -0.202 NA
ATOM     31  C   UNL     1       1.062  -8.487  13.697  0.00  0.00    +0.139 C 
ENDBRANCH  27  28
ENDBRANCH  26  27
TORSDOF 4
