REMARK  Name = 1yqj_ligand
REMARK  4 active torsions:
REMARK  status: ('A' for Active; 'I' for Inactive)
REMARK    1  A    between atoms: C2_4  and  C17_20
REMARK    2  A    between atoms: C3_5  and  C5_6
REMARK    3  A    between atoms: C10_13  and  C16_19
REMARK    4  A    between atoms: C10_13  and  C27_30
REMARK                            x       y       z     vdW  Elec       q    Type
REMARK                         _______ _______ _______ _____ _____    ______ ____
ROOT
ATOM      1  C   UNL     1      23.643  14.929  32.101  0.00  0.00    +0.128 A 
ATOM      2  N   UNL     1      24.832  15.681  31.989  0.00  0.00    -0.272 N 
ATOM      3  C   UNL     1      24.796  17.003  31.304  0.00  0.00    +0.191 C 
ATOM      4  C   UNL     1      25.425  16.889  29.889  0.00  0.00    +0.155 C 
ATOM      5  N   UNL     1      26.705  16.130  29.882  0.00  0.00    +0.234 N 
ATOM      6  H   UNL     1      27.407  16.680  30.352  0.00  0.00    +0.202 HD
ATOM      7  H   UNL     1      26.983  15.977  28.925  0.00  0.00    +0.202 HD
ATOM      8  C   UNL     1      26.602  14.818  30.559  0.00  0.00    +0.098 C 
ATOM     16  C   UNL     1      26.172  15.050  32.023  0.00  0.00    +0.197 C 
ATOM     17  C   UNL     1      23.657  13.507  32.108  0.00  0.00    +0.112 A 
ATOM     18  C   UNL     1      22.479  12.769  32.212  0.00  0.00    +0.051 A 
ATOM     25  C   UNL     1      21.182  13.571  32.315  0.00  0.00    +0.078 A 
ATOM     36  N   UNL     1      21.314  14.948  32.296  0.00  0.00    -0.268 NA
ATOM     37  N   UNL     1      22.471  15.633  32.196  0.00  0.00    -0.268 NA
ENDROOT
BRANCH  25  26
ATOM     26  C   UNL     1      19.810  12.961  32.427  0.00  0.00    +0.016 A 
ATOM     27  C   UNL     1      19.429  12.185  33.564  0.00  0.00    +0.019 A 
ATOM     28  C   UNL     1      18.148  11.583  33.666  0.00  0.00    +0.012 A 
ATOM     29  C   UNL     1      17.210  11.748  32.614  0.00  0.00    -0.014 A 
ATOM     30  C   UNL     1      15.917  11.143  32.688  0.00  0.00    +0.011 A 
ATOM     31  C   UNL     1      15.003  11.325  31.611  0.00  0.00    +0.004 A 
ATOM     32  C   UNL     1      15.362  12.102  30.471  0.00  0.00    +0.003 A 
ATOM     33  C   UNL     1      16.648  12.713  30.386  0.00  0.00    +0.013 A 
ATOM     34  C   UNL     1      17.585  12.541  31.454  0.00  0.00    -0.010 A 
ATOM     35  C   UNL     1      18.884  13.141  31.370  0.00  0.00    +0.037 A 
ENDBRANCH  25  26
BRANCH  18  19
ATOM     19  C   UNL     1      22.531  11.251  32.218  0.00  0.00    +0.020 A 
ATOM     20  C   UNL     1      21.888  10.473  31.218  0.00  0.00    +0.052 A 
ATOM     21  C   UNL     1      21.956   9.069  31.275  0.00  0.00    +0.096 A 
ATOM     22  N   UNL     1      22.627   8.409  32.265  0.00  0.00    -0.295 NA
ATOM     23  C   UNL     1      23.249   9.152  33.226  0.00  0.00    +0.096 A 
ATOM     24  C   UNL     1      23.223  10.561  33.237  0.00  0.00    +0.052 A 
ENDBRANCH  18  19
BRANCH   8   9
ATOM      9  C   UNL     1      27.870  13.963  30.408  0.00  0.00    +0.122 C 
BRANCH   9  10
ATOM     10  C   UNL     1      27.591  12.493  30.662  0.00  0.00    -0.038 A 
ATOM     11  C   UNL     1      28.083  11.851  31.827  0.00  0.00    -0.004 A 
ATOM     12  C   UNL     1      27.814  10.480  32.057  0.00  0.00    -0.009 A 
ATOM     13  C   UNL     1      27.048   9.734  31.122  0.00  0.00    -0.013 A 
ATOM     14  C   UNL     1      26.555  10.360  29.957  0.00  0.00    -0.009 A 
ATOM     15  C   UNL     1      26.824  11.731  29.729  0.00  0.00    -0.004 A 
ENDBRANCH   9  10
ENDBRANCH   8   9
TORSDOF 4
