REMARK  Name = 5OP4
REMARK  7 active torsions:
REMARK  status: ('A' for Active; 'I' for Inactive)
REMARK    1  A    between atoms: C_1  and  C_2
REMARK    2  A    between atoms: C_2  and  N_3
REMARK    3  A    between atoms: C_5  and  C_27
REMARK    4  A    between atoms: N_10  and  C_11
REMARK    5  A    between atoms: C_14  and  C_19
REMARK    6  A    between atoms: C_16  and  O_17
REMARK    7  A    between atoms: O_17  and  C_18
REMARK                            x       y       z     vdW  Elec       q    Type
REMARK                         _______ _______ _______ _____ _____    ______ ____
ROOT
ATOM     10  C   UNL     1       1.067  -3.077  20.333  0.00  0.00    +0.079 A 
ATOM     11  C   UNL     1       0.059  -2.887  21.305  0.00  0.00    +0.142 A 
ATOM     14  C   UNL     1      -1.183  -3.529  21.174  0.00  0.00    +0.063 A 
ATOM     15  C   UNL     1      -1.406  -4.403  20.124  0.00  0.00    +0.076 A 
ATOM     24  C   UNL     1      -0.422  -4.582  19.179  0.00  0.00    +0.138 A 
ATOM     25  F   UNL     1      -0.748  -5.414  18.208  0.00  0.00    -0.205 F 
ATOM     26  C   UNL     1       0.835  -3.943  19.245  0.00  0.00    +0.066 A 
ENDROOT
BRANCH  10   8
ATOM      3  N   UNL     1       4.936  -4.825  17.902  0.00  0.00    -0.267 NA
ATOM      4  C   UNL     1       4.811  -3.759  18.627  0.00  0.00    +0.142 A 
ATOM      5  N   UNL     1       3.616  -3.619  19.179  0.00  0.00    -0.312 N 
ATOM      6  H   UNL     1       2.847  -4.348  19.032  0.00  0.00    +0.170 HD
ATOM      7  C   UNL     1       3.410  -2.543  19.919  0.00  0.00    +0.199 A 
ATOM      8  N   UNL     1       2.232  -2.330  20.491  0.00  0.00    -0.282 N 
ATOM      9  H   UNL     1       2.170  -1.488  21.149  0.00  0.00    +0.155 HD
ATOM     27  N   UNL     1       4.356  -1.603  20.079  0.00  0.00    -0.224 NA
ATOM     28  C   UNL     1       5.588  -1.700  19.603  0.00  0.00    +0.130 A 
ATOM     29  C   UNL     1       5.851  -2.825  18.851  0.00  0.00    +0.115 A 
BRANCH  29  30
ATOM     30  C   UNL     1       7.234  -2.965  18.228  0.00  0.00    +0.422 C 
ATOM     31  F   UNL     1       7.966  -1.961  18.593  0.00  0.00    -0.166 F 
ATOM     32  F   UNL     1       7.763  -4.138  18.661  0.00  0.00    -0.166 F 
ATOM     33  F   UNL     1       7.130  -2.889  16.860  0.00  0.00    -0.166 F 
ENDBRANCH  29  30
BRANCH   3   2
ATOM      1  C   UNL     1       3.481  -6.096  16.371  0.00  0.00    +0.029 C 
ATOM      2  C   UNL     1       3.822  -5.767  17.811  0.00  0.00    +0.140 C 
ENDBRANCH   3   2
ENDBRANCH  10   8
BRANCH  15  16
ATOM     16  C   UNL     1      -2.790  -5.094  20.000  0.00  0.00    +0.250 C 
ATOM     17  N   UNL     1      -3.065  -6.377  20.345  0.00  0.00    -0.293 N 
ATOM     18  C   UNL     1      -2.033  -7.378  20.659  0.00  0.00    +0.136 C 
ATOM     19  C   UNL     1      -2.310  -7.978  22.050  0.00  0.00    +0.178 C 
ATOM     20  O   UNL     1      -3.699  -7.966  22.590  0.00  0.00    -0.377 OA
ATOM     21  C   UNL     1      -4.589  -6.875  22.200  0.00  0.00    +0.178 C 
ATOM     22  C   UNL     1      -4.466  -6.775  20.670  0.00  0.00    +0.136 C 
ATOM     23  O   UNL     1      -3.762  -4.368  19.744  0.00  0.00    -0.270 OA
ENDBRANCH  15  16
BRANCH  11  12
ATOM     12  O   UNL     1       0.322  -2.024  22.349  0.00  0.00    -0.493 OA
ATOM     13  C   UNL     1      -0.586  -2.082  23.458  0.00  0.00    +0.277 C 
ENDBRANCH  11  12
TORSDOF 5
