REMARK  Name = 3v6s_ligand
REMARK  11 active torsions:
REMARK  status: ('A' for Active; 'I' for Inactive)
REMARK    1  A    between atoms: C06_6  and  C07_7
REMARK    2  A    between atoms: N13_13  and  C14_14
REMARK    3  A    between atoms: C19_19  and  N20_20
REMARK    4  A    between atoms: C21_21  and  C23_23
REMARK    5  A    between atoms: C27_27  and  N29_29
REMARK    6  A    between atoms: C30_30  and  C32_32
REMARK    7  A    between atoms: C32_32  and  C33_33
REMARK    8  A    between atoms: C33_33  and  C34_34
REMARK    9  A    between atoms: C34_34  and  N35_35
REMARK   10  A    between atoms: N35_35  and  C36_36
REMARK   11  A    between atoms: N35_35  and  C37_37
REMARK                            x       y       z     vdW  Elec       q    Type
REMARK                         _______ _______ _______ _____ _____    ______ ____
ROOT
ATOM     10  C   UNL     1      24.347 -14.717 -28.264  0.00  0.00    +0.051 A 
ATOM     11  C   UNL     1      23.956 -15.942 -27.700  0.00  0.00    +0.000 A 
ATOM     12  C   UNL     1      24.604 -17.136 -27.985  0.00  0.00    -0.001 A 
ATOM     13  C   UNL     1      25.695 -17.145 -28.838  0.00  0.00    +0.056 A 
ATOM     34  C   UNL     1      26.175 -15.931 -29.351  0.00  0.00    -0.001 A 
ATOM     35  C   UNL     1      25.493 -14.724 -29.073  0.00  0.00    +0.000 A 
ENDROOT
BRANCH  10   8
ATOM      3  C   UNL     1      20.549 -15.155 -26.728  0.00  0.00    +0.062 A 
ATOM      4  C   UNL     1      19.896 -14.094 -26.120  0.00  0.00    +0.052 A 
ATOM      5  C   UNL     1      20.514 -12.843 -26.159  0.00  0.00    +0.104 A 
ATOM      6  N   UNL     1      21.700 -12.682 -26.773  0.00  0.00    -0.252 NA
ATOM      7  C   UNL     1      22.358 -13.735 -27.322  0.00  0.00    +0.208 A 
ATOM      8  N   UNL     1      23.620 -13.526 -27.942  0.00  0.00    -0.249 N 
ATOM      9  H   UNL     1      23.982 -12.594 -28.143  0.00  0.00    +0.214 HD
ATOM     36  N   UNL     1      21.754 -14.948 -27.305  0.00  0.00    -0.246 NA
BRANCH   3   2
ATOM      1  C   UNL     1      20.729 -17.620 -27.164  0.00  0.00    +0.111 A 
ATOM      2  C   UNL     1      19.991 -16.530 -26.680  0.00  0.00    +0.032 A 
ATOM     37  C   UNL     1      18.762 -16.763 -26.090  0.00  0.00    +0.048 A 
ATOM     38  C   UNL     1      18.337 -18.093 -26.026  0.00  0.00    +0.042 A 
ATOM     39  C   UNL     1      19.115 -19.142 -26.537  0.00  0.00    +0.099 A 
ATOM     40  N   UNL     1      20.295 -18.888 -27.096  0.00  0.00    -0.292 NA
ENDBRANCH   3   2
ENDBRANCH  10   8
BRANCH  13  14
ATOM     14  N   UNL     1      26.357 -18.380 -28.970  0.00  0.00    -0.239 N 
ATOM     15  H   UNL     1      26.304 -19.091 -28.241  0.00  0.00    +0.222 HD
ATOM     16  C   UNL     1      27.073 -18.587 -30.115  0.00  0.00    +0.226 C 
ATOM     33  O   UNL     1      26.762 -18.089 -31.186  0.00  0.00    -0.375 OA
BRANCH  16  17
ATOM     17  C   UNL     1      28.243 -19.510 -29.994  0.00  0.00    +0.042 A 
ATOM     18  C   UNL     1      28.131 -20.667 -29.229  0.00  0.00    +0.034 A 
ATOM     19  C   UNL     1      29.216 -21.529 -29.091  0.00  0.00    +0.072 A 
ATOM     30  C   UNL     1      30.426 -21.205 -29.726  0.00  0.00    +0.017 A 
ATOM     31  C   UNL     1      30.569 -20.018 -30.441  0.00  0.00    -0.011 A 
ATOM     32  C   UNL     1      29.463 -19.184 -30.589  0.00  0.00    -0.003 A 
BRANCH  19  20
ATOM     20  N   UNL     1      28.996 -22.716 -28.338  0.00  0.00    -0.233 N 
ATOM     21  H   UNL     1      28.060 -23.116 -28.278  0.00  0.00    +0.226 HD
ATOM     22  C   UNL     1      30.046 -23.324 -27.692  0.00  0.00    +0.203 C 
ATOM     29  O   UNL     1      31.223 -23.037 -27.899  0.00  0.00    -0.385 OA
BRANCH  22  23
ATOM     23  C   UNL     1      29.663 -24.387 -26.696  0.00  0.00    +0.143 C 
BRANCH  23  24
ATOM     24  C   UNL     1      30.833 -24.707 -25.785  0.00  0.00    -0.000 C 
BRANCH  24  25
ATOM     25  C   UNL     1      30.435 -25.903 -24.933  0.00  0.00    -0.108 C 
BRANCH  25  26
ATOM     26  N   UNL     1      31.162 -25.901 -23.657  0.00  0.00    +0.399 NA
ATOM     27  C   UNL     1      32.145 -26.986 -23.624  0.00  0.00    -0.132 C 
ATOM     28  C   UNL     1      30.194 -26.029 -22.563  0.00  0.00    -0.132 C 
ENDBRANCH  25  26
ENDBRANCH  24  25
ENDBRANCH  23  24
ENDBRANCH  22  23
ENDBRANCH  19  20
ENDBRANCH  16  17
ENDBRANCH  13  14
TORSDOF 9
