REMARK  Name = 5HIE
REMARK  9 active torsions:
REMARK  status: ('A' for Active; 'I' for Inactive)
REMARK    1  A    between atoms: C_2  and  C_8
REMARK    2  A    between atoms: C_10  and  C_13
REMARK    3  A    between atoms: C_12  and  C_17
REMARK    4  A    between atoms: C_13  and  C_14
REMARK    5  A    between atoms: C_13  and  C_15
REMARK    6  A    between atoms: C_13  and  C_16
REMARK    7  A    between atoms: C_18  and  N_24
REMARK    8  A    between atoms: N_24  and  S_25
REMARK    9  A    between atoms: S_25  and  C_26
REMARK                            x       y       z     vdW  Elec       q    Type
REMARK                         _______ _______ _______ _____ _____    ______ ____
ROOT
ATOM     11  C   UNL     1     -47.467  -3.056  71.374  0.00  0.00    +0.039 A 
ATOM     12  C   UNL     1     -46.867  -4.148  70.707  0.00  0.00    +0.013 A 
ATOM     13  C   UNL     1     -46.330  -3.985  69.433  0.00  0.00    +0.003 A 
ATOM     14  C   UNL     1     -46.385  -2.743  68.806  0.00  0.00    +0.027 A 
ATOM     15  C   UNL     1     -47.039  -1.660  69.423  0.00  0.00    +0.084 A 
ATOM     29  C   UNL     1     -47.552  -1.816  70.719  0.00  0.00    +0.155 A 
ATOM     30  F   UNL     1     -48.160  -0.785  71.349  0.00  0.00    -0.203 F 
ENDROOT
BRANCH  11  10
ATOM      9  C   UNL     1     -47.583  -3.500  73.923  0.00  0.00    +0.065 A 
ATOM     10  C   UNL     1     -48.149  -3.211  72.692  0.00  0.00    +0.090 A 
ATOM     31  N   UNL     1     -49.467  -3.050  72.755  0.00  0.00    -0.243 NA
ATOM     32  C   UNL     1     -50.064  -3.186  73.891  0.00  0.00    +0.085 A 
ATOM     37  S   UNL     1     -48.899  -3.613  75.070  0.00  0.00    -0.069 S 
BRANCH   9   8
ATOM      1  C   UNL     1     -44.722  -4.295  76.044  0.00  0.00    +0.213 A 
ATOM      2  N   UNL     1     -44.512  -4.778  77.327  0.00  0.00    -0.328 N 
ATOM      3  H   UNL     1     -43.515  -4.920  77.689  0.00  0.00    +0.145 HD
ATOM      4  H   UNL     1     -45.347  -5.009  77.955  0.00  0.00    +0.145 HD
ATOM      5  N   UNL     1     -43.671  -4.000  75.276  0.00  0.00    -0.223 NA
ATOM      6  C   UNL     1     -43.810  -3.540  74.036  0.00  0.00    +0.116 A 
ATOM      7  C   UNL     1     -45.082  -3.348  73.537  0.00  0.00    +0.049 A 
ATOM      8  C   UNL     1     -46.186  -3.697  74.347  0.00  0.00    +0.085 A 
ATOM     38  N   UNL     1     -45.964  -4.121  75.600  0.00  0.00    -0.214 NA
ENDBRANCH   9   8
BRANCH  32  33
ATOM     33  C   UNL     1     -51.565  -3.065  74.137  0.00  0.00    +0.011 C 
ATOM     34  C   UNL     1     -52.188  -4.453  74.147  0.00  0.00    +0.018 C 
ATOM     35  C   UNL     1     -52.260  -2.236  73.062  0.00  0.00    +0.018 C 
ATOM     36  C   UNL     1     -51.886  -2.400  75.474  0.00  0.00    +0.018 C 
ENDBRANCH  32  33
ENDBRANCH  11  10
BRANCH  15  16
ATOM     16  N   UNL     1     -47.135  -0.386  68.831  0.00  0.00    -0.213 N 
ATOM     17  H   UNL     1     -46.301   0.166  69.211  0.00  0.00    +0.174 HD
BRANCH  16  18
ATOM     18  S   UNL     1     -47.157  -0.077  67.198  0.00  0.00    +0.078 S 
ATOM     19  O   UNL     1     -47.749   1.205  67.046  0.00  0.00    -0.150 OA
ATOM     20  O   UNL     1     -47.675  -1.211  66.531  0.00  0.00    -0.150 OA
BRANCH  18  21
ATOM     21  C   UNL     1     -45.441   0.091  66.774  0.00  0.00    +0.178 A 
ATOM     22  C   UNL     1     -44.791  -0.749  65.850  0.00  0.00    +0.153 A 
ATOM     23  F   UNL     1     -45.434  -1.739  65.194  0.00  0.00    -0.203 F 
ATOM     24  C   UNL     1     -43.436  -0.576  65.589  0.00  0.00    +0.040 A 
ATOM     25  C   UNL     1     -42.717   0.421  66.228  0.00  0.00    +0.006 A 
ATOM     26  C   UNL     1     -43.350   1.243  67.145  0.00  0.00    +0.040 A 
ATOM     27  C   UNL     1     -44.696   1.075  67.431  0.00  0.00    +0.153 A 
ATOM     28  F   UNL     1     -45.262   1.875  68.359  0.00  0.00    -0.203 F 
ENDBRANCH  18  21
ENDBRANCH  16  18
ENDBRANCH  15  16
TORSDOF 6
