REMARK  Name = 9J2
REMARK  5 active torsions:
REMARK  status: ('A' for Active; 'I' for Inactive)
REMARK    1  A    between atoms: OBC_2  and  CAZ_3
REMARK    2  A    between atoms: CAZ_3  and  CAV_5
REMARK    3  A    between atoms: CAV_5  and  CAJ_7
REMARK    4  A    between atoms: CAS_17  and  OAW_18
REMARK    5  A    between atoms: CAG_23  and  CAA_24
REMARK                            x       y       z     vdW  Elec       q    Type
REMARK                         _______ _______ _______ _____ _____    ______ ____
ROOT
ATOM      5  C   UNL     1       7.814   8.717  -6.879  0.00  0.00    +0.172 C 
ATOM      6  C   UNL     1       8.669   9.701  -6.081  0.00  0.00    +0.170 A 
ATOM      7  N   UNL     1       9.010   9.457  -4.748  0.00  0.00    -0.279 N 
ATOM      8  C   UNL     1       8.579   8.290  -4.078  0.00  0.00    +0.071 A 
ATOM      9  C   UNL     1       9.423   7.586  -3.215  0.00  0.00    +0.055 A 
ATOM     10  C   UNL     1       9.003   6.442  -2.528  0.00  0.00    +0.140 A 
ATOM     13  C   UNL     1       7.704   5.994  -2.728  0.00  0.00    +0.037 A 
ATOM     14  C   UNL     1       6.835   6.667  -3.582  0.00  0.00    +0.006 A 
ATOM     15  C   UNL     1       7.293   7.799  -4.248  0.00  0.00    +0.034 A 
ATOM     16  C   UNL     1       6.214   8.452  -5.063  0.00  0.00    +0.078 C 
ATOM     24  C   UNL     1       9.757  10.590  -4.423  0.00  0.00    +0.147 A 
ATOM     25  C   UNL     1      10.383  10.827  -3.051  0.00  0.00    +0.074 C 
ATOM     26  N   UNL     1       9.888  11.462  -5.394  0.00  0.00    -0.133 NA
ATOM     27  N   UNL     1       9.197  10.920  -6.499  0.00  0.00    -0.131 NA
ATOM     28  N   UNL     1       6.471   8.901  -6.405  0.00  0.00    -0.264 NA
ENDROOT
BRANCH  16  17
ATOM     17  C   UNL     1       4.804   8.620  -4.591  0.00  0.00    +0.017 A 
ATOM     18  C   UNL     1       4.612   8.920  -3.279  0.00  0.00    +0.002 A 
ATOM     19  C   UNL     1       3.329   9.072  -2.794  0.00  0.00    +0.011 A 
ATOM     20  C   UNL     1       2.271   8.915  -3.647  0.00  0.00    +0.058 A 
ATOM     21 CL   UNL     1       0.666   9.118  -3.015  0.00  0.00    -0.082 Cl
ATOM     22  C   UNL     1       2.464   8.603  -4.978  0.00  0.00    +0.011 A 
ATOM     23  C   UNL     1       3.735   8.454  -5.456  0.00  0.00    +0.002 A 
ENDBRANCH  16  17
BRANCH   5   4
ATOM      4  C   UNL     1       7.948   8.953  -8.323  0.00  0.00    +0.129 C 
ATOM     29  C   UNL     1       9.358   8.670  -8.738  0.00  0.00    +0.014 C 
BRANCH   4   3
ATOM      3  C   UNL     1       7.001   7.983  -9.084  0.00  0.00    +0.319 C 
ATOM     30  O   UNL     1       6.720   6.896  -8.622  0.00  0.00    -0.250 OA
BRANCH   3   2
ATOM      1  C   UNL     1       5.851   7.406 -11.109  0.00  0.00    +0.256 C 
ATOM      2  O   UNL     1       6.500   8.413 -10.332  0.00  0.00    -0.444 OA
ENDBRANCH   3   2
ENDBRANCH   4   3
ENDBRANCH   5   4
BRANCH  10  11
ATOM     11  O   UNL     1       9.920   5.774  -1.650  0.00  0.00    -0.471 OA
ATOM     12  C   UNL     1       9.549   4.499  -1.151  0.00  0.00    +0.253 C 
ENDBRANCH  10  11
TORSDOF 5
