REMARK  Name = 4XZ0
REMARK  3 active torsions:
REMARK  status: ('A' for Active; 'I' for Inactive)
REMARK    1  A    between atoms: C_1  and  C_2
REMARK    2  A    between atoms: C_2  and  C_4
REMARK    3  A    between atoms: C_9  and  N_10
REMARK                            x       y       z     vdW  Elec       q    Type
REMARK                         _______ _______ _______ _____ _____    ______ ____
ROOT
ATOM      3  C   UNL     1     -50.518   9.098   0.914  0.00  0.00    +0.019 A 
ATOM      4  C   UNL     1     -50.752   8.438   2.086  0.00  0.00    +0.011 A 
ATOM      5  C   UNL     1     -49.731   7.489   2.618  0.00  0.00    +0.003 A 
ATOM      6  C   UNL     1     -48.560   7.278   1.945  0.00  0.00    +0.028 A 
ATOM      7  C   UNL     1     -48.300   8.000   0.669  0.00  0.00    +0.069 A 
ATOM     13  C   UNL     1     -49.238   8.864   0.185  0.00  0.00    +0.039 A 
ENDROOT
BRANCH   7   8
ATOM      8  N   UNL     1     -47.089   7.800  -0.071  0.00  0.00    -0.200 N 
ATOM      9  C   UNL     1     -45.776   8.538   0.033  0.00  0.00    +0.250 A 
ATOM     10  N   UNL     1     -44.920   7.942  -0.945  0.00  0.00    -0.117 NA
ATOM     11  N   UNL     1     -45.672   7.016  -1.507  0.00  0.00    -0.023 NA
ATOM     12  N   UNL     1     -46.835   6.955  -1.028  0.00  0.00    -0.039 NA
ENDBRANCH   7   8
BRANCH   3   2
ATOM      1  C   UNL     1     -52.959  10.023   0.735  0.00  0.00    +0.091 C 
ATOM      2  C   UNL     1     -51.517  10.049   0.335  0.00  0.00    +0.160 C 
ATOM     14  O   UNL     1     -51.156  10.862  -0.503  0.00  0.00    -0.292 OA
ENDBRANCH   3   2
TORSDOF 2
