REMARK  Name = 5HID
REMARK  10 active torsions:
REMARK  status: ('A' for Active; 'I' for Inactive)
REMARK    1  A    between atoms: C_5  and  N_12
REMARK    2  A    between atoms: N_8  and  C_33
REMARK    3  A    between atoms: N_12  and  C_13
REMARK    4  A    between atoms: C_14  and  C_19
REMARK    5  A    between atoms: C_17  and  N_20
REMARK    6  A    between atoms: C_21  and  C_22
REMARK    7  A    between atoms: C_25  and  C_29
REMARK    8  A    between atoms: C_29  and  C_30
REMARK    9  A    between atoms: C_29  and  C_31
REMARK   10  A    between atoms: C_29  and  C_32
REMARK                            x       y       z     vdW  Elec       q    Type
REMARK                         _______ _______ _______ _____ _____    ______ ____
ROOT
ATOM     12  C   UNL     1      10.452 -12.612 -15.607  0.00  0.00    +0.036 A 
ATOM     13  C   UNL     1       9.247 -13.081 -16.164  0.00  0.00    +0.047 A 
ATOM     14  C   UNL     1       8.942 -12.814 -17.510  0.00  0.00    +0.035 A 
ATOM     30  C   UNL     1       9.849 -12.089 -18.300  0.00  0.00    +0.024 A 
ATOM     31  C   UNL     1      11.050 -11.660 -17.768  0.00  0.00    +0.007 A 
ATOM     32  C   UNL     1      11.367 -11.922 -16.436  0.00  0.00    -0.029 A 
ATOM     33  C   UNL     1      12.700 -11.402 -15.943  0.00  0.00    +0.045 C 
ENDROOT
BRANCH  14  15
ATOM     15  N   UNL     1       7.729 -13.152 -18.143  0.00  0.00    -0.281 N 
ATOM     16  H   UNL     1       7.810 -13.335 -19.194  0.00  0.00    +0.155 HD
ATOM     17  C   UNL     1       6.471 -13.285 -17.640  0.00  0.00    +0.248 C 
ATOM     18  O   UNL     1       6.253 -13.249 -16.438  0.00  0.00    -0.270 OA
BRANCH  17  19
ATOM     19  C   UNL     1       5.368 -13.615 -18.584  0.00  0.00    +0.037 A 
ATOM     20  C   UNL     1       5.641 -14.418 -19.697  0.00  0.00    +0.013 A 
ATOM     21  C   UNL     1       4.633 -14.767 -20.571  0.00  0.00    +0.001 A 
ATOM     22  C   UNL     1       3.322 -14.347 -20.335  0.00  0.00    +0.005 A 
ATOM     23  C   UNL     1       2.992 -13.591 -19.204  0.00  0.00    -0.027 A 
ATOM     29  C   UNL     1       4.030 -13.216 -18.346  0.00  0.00    +0.018 A 
BRANCH  23  24
ATOM     24  C   UNL     1       1.553 -13.157 -18.951  0.00  0.00    +0.077 C 
ATOM     25  C   UNL     1       0.555 -14.278 -19.246  0.00  0.00    +0.032 C 
ATOM     26  C   UNL     1       1.167 -11.976 -19.846  0.00  0.00    +0.032 C 
BRANCH  24  27
ATOM     27  C   UNL     1       1.340 -12.722 -17.568  0.00  0.00    +0.073 C 
ATOM     28  N   UNL     1       1.171 -12.345 -16.511  0.00  0.00    -0.196 NA
ENDBRANCH  24  27
ENDBRANCH  23  24
ENDBRANCH  17  19
ENDBRANCH  14  15
BRANCH  12  10
ATOM     10  N   UNL     1      10.764 -13.001 -14.285  0.00  0.00    -0.314 N 
ATOM     11  H   UNL     1      10.876 -14.051 -14.111  0.00  0.00    +0.152 HD
BRANCH  10   9
ATOM      1  C   UNL     1      11.707 -11.898 -10.908  0.00  0.00    +0.067 A 
ATOM      2  C   UNL     1      12.162 -12.450  -9.612  0.00  0.00    +0.261 C 
ATOM      3  O   UNL     1      12.413 -13.644  -9.516  0.00  0.00    -0.267 OA
ATOM      4  N   UNL     1      12.149 -11.608  -8.531  0.00  0.00    -0.302 N 
ATOM      5  C   UNL     1      12.515 -12.082  -7.187  0.00  0.00    +0.153 C 
ATOM      6  C   UNL     1      11.851 -10.279  -8.687  0.00  0.00    +0.202 C 
ATOM      7  N   UNL     1      11.463  -9.749  -9.817  0.00  0.00    -0.237 NA
ATOM      8  C   UNL     1      11.489 -12.721 -12.027  0.00  0.00    +0.038 A 
ATOM      9  C   UNL     1      10.943 -12.163 -13.177  0.00  0.00    +0.032 A 
ATOM     34  C   UNL     1      10.576 -10.805 -13.204  0.00  0.00    +0.025 A 
ATOM     35  C   UNL     1      10.732  -9.992 -12.107  0.00  0.00    +0.030 A 
ATOM     36  C   UNL     1      11.306 -10.516 -10.938  0.00  0.00    +0.078 A 
ENDBRANCH  10   9
ENDBRANCH  12  10
TORSDOF 6
