REMARK  Name = 3LCS
REMARK  5 active torsions:
REMARK  status: ('A' for Active; 'I' for Inactive)
REMARK    1  A    between atoms: C_4  and  N_34
REMARK    2  A    between atoms: C_5  and  O_32
REMARK    3  A    between atoms: C_6  and  C_7
REMARK    4  A    between atoms: O_32  and  C_33
REMARK    5  A    between atoms: N_34  and  C_35
REMARK                            x       y       z     vdW  Elec       q    Type
REMARK                         _______ _______ _______ _____ _____    ______ ____
ROOT
ATOM      1  O   UNL     1     -18.830  10.720  -5.630  0.00  0.00    -0.328 OA
ATOM      2  C   UNL     1     -17.855  11.178  -6.572  0.00  0.00    +0.174 C 
ATOM      3  N   UNL     1     -18.492  12.109  -7.561  0.00  0.00    -0.307 N 
ATOM      4  C   UNL     1     -17.869  13.191  -8.138  0.00  0.00    +0.053 A 
ATOM      5  C   UNL     1     -16.604  13.790  -8.091  0.00  0.00    +0.026 A 
ATOM      6  C   UNL     1     -16.342  14.928  -8.870  0.00  0.00    +0.002 A 
ATOM      7  C   UNL     1     -17.330  15.481  -9.695  0.00  0.00    +0.001 A 
ATOM      8  C   UNL     1     -18.601  14.895  -9.742  0.00  0.00    +0.010 A 
ATOM      9  C   UNL     1     -18.839  13.756  -8.973  0.00  0.00    +0.008 A 
ATOM     10  C   UNL     1     -19.999  13.016  -8.879  0.00  0.00    +0.015 A 
ATOM     11  C   UNL     1     -21.270  13.129  -9.471  0.00  0.00    -0.008 A 
ATOM     12  C   UNL     1     -21.808  14.098 -10.435  0.00  0.00    +0.141 C 
ATOM     13  N   UNL     1     -23.209  13.658 -10.657  0.00  0.00    -0.307 N 
ATOM     14  H   UNL     1     -23.924  14.125 -11.302  0.00  0.00    +0.149 HD
ATOM     15  C   UNL     1     -23.419  12.550  -9.888  0.00  0.00    +0.245 C 
ATOM     16  O   UNL     1     -24.538  11.920  -9.839  0.00  0.00    -0.270 OA
ATOM     17  C   UNL     1     -22.203  12.175  -9.131  0.00  0.00    +0.052 A 
ATOM     18  C   UNL     1     -21.985  11.127  -8.235  0.00  0.00    +0.022 A 
ATOM     19  C   UNL     1     -22.679  10.074  -7.713  0.00  0.00    +0.009 A 
ATOM     20  C   UNL     1     -23.806   9.542  -7.775  0.00  0.00    +0.010 A 
ATOM     21  C   UNL     1     -24.622   8.650  -7.425  0.00  0.00    +0.001 A 
ATOM     22  C   UNL     1     -23.883   7.865  -6.518  0.00  0.00    +0.002 A 
ATOM     23  C   UNL     1     -22.529   8.215  -6.233  0.00  0.00    +0.026 A 
ATOM     24  C   UNL     1     -21.904   9.336  -6.847  0.00  0.00    +0.052 A 
ATOM     25  N   UNL     1     -20.691   9.949  -6.828  0.00  0.00    -0.312 N 
ATOM     26  C   UNL     1     -20.744  11.034  -7.660  0.00  0.00    +0.077 A 
ATOM     27  C   UNL     1     -19.769  11.985  -7.980  0.00  0.00    +0.077 A 
ATOM     28  C   UNL     1     -16.879  11.967  -5.709  0.00  0.00    +0.069 C 
ATOM     29  C   UNL     1     -17.151   9.976  -7.229  0.00  0.00    +0.187 C 
ATOM     32  C   UNL     1     -17.314   8.769  -6.305  0.00  0.00    +0.091 C 
ATOM     36  C   UNL     1     -18.756   8.333  -6.435  0.00  0.00    +0.076 C 
ATOM     37  C   UNL     1     -19.582   9.518  -5.948  0.00  0.00    +0.224 C 
ENDROOT
BRANCH  32  33
ATOM     33  N   UNL     1     -16.421   7.647  -6.552  0.00  0.00    -0.314 NA
ATOM     34  H   UNL     1     -15.467   8.055  -6.814  0.00  0.00    +0.122 HD
ATOM     35  C   UNL     1     -16.199   6.687  -5.480  0.00  0.00    +0.101 C 
ENDBRANCH  32  33
BRANCH  29  30
ATOM     30  O   UNL     1     -17.726   9.656  -8.506  0.00  0.00    -0.374 OA
ATOM     31  C   UNL     1     -17.091  10.338  -9.582  0.00  0.00    +0.194 C 
ENDBRANCH  29  30
TORSDOF 2
