REMARK  Name = 30M
REMARK  5 active torsions:
REMARK  status: ('A' for Active; 'I' for Inactive)
REMARK    1  A    between atoms: N18_8  and  C17_9
REMARK    2  A    between atoms: C17_9  and  C16_10
REMARK    3  A    between atoms: C16_10  and  C15_11
REMARK    4  A    between atoms: C15_11  and  C14_12
REMARK    5  A    between atoms: C14_12  and  N1_13
REMARK                            x       y       z     vdW  Elec       q    Type
REMARK                         _______ _______ _______ _____ _____    ______ ____
ROOT
ATOM      1  C   UNL     1      24.575  51.209  -4.473  0.00  0.00    +0.043 A 
ATOM      2  N   UNL     1      25.431  51.383  -3.452  0.00  0.00    -0.330 N 
ATOM     11  C   UNL     1      26.555  50.578  -3.652  0.00  0.00    +0.060 A 
ATOM     12  C   UNL     1      27.684  50.434  -2.864  0.00  0.00    +0.017 A 
ATOM     13  C   UNL     1      28.650  49.540  -3.271  0.00  0.00    +0.002 A 
ATOM     14  C   UNL     1      28.506  48.820  -4.480  0.00  0.00    +0.000 A 
ATOM     15  C   UNL     1      27.378  48.984  -5.286  0.00  0.00    +0.002 A 
ATOM     16  C   UNL     1      26.360  49.895  -4.859  0.00  0.00    +0.021 A 
ATOM     17  C   UNL     1      23.225  51.778  -4.638  0.00  0.00    +0.067 C 
ATOM     18  C   UNL     1      22.896  51.820  -6.114  0.00  0.00    +0.122 C 
ATOM     19  N   UNL     1      23.188  50.511  -6.740  0.00  0.00    -0.201 NA
ATOM     20  C   UNL     1      24.310  49.826  -6.494  0.00  0.00    +0.266 C 
ATOM     21  O   UNL     1      24.601  48.805  -7.140  0.00  0.00    -0.268 OA
ATOM     22  C   UNL     1      25.097  50.310  -5.348  0.00  0.00    +0.068 A 
ENDROOT
BRANCH   2   3
ATOM      3  C   UNL     1      25.311  52.254  -2.297  0.00  0.00    +0.106 C 
BRANCH   3   4
ATOM      4  C   UNL     1      24.881  51.506  -1.049  0.00  0.00    +0.026 C 
BRANCH   4   5
ATOM      5  C   UNL     1      23.496  50.932  -1.095  0.00  0.00    +0.025 C 
BRANCH   5   6
ATOM      6  C   UNL     1      23.010  50.428   0.250  0.00  0.00    +0.115 C 
BRANCH   6   7
ATOM      7  N   UNL     1      23.827  49.346   0.761  0.00  0.00    -0.205 NA
ATOM      8  C   UNL     1      23.444  48.085   0.781  0.00  0.00    +0.242 C 
ATOM      9  C   UNL     1      24.339  47.079   1.421  0.00  0.00    +0.096 C 
ATOM     10  O   UNL     1      22.335  47.741   0.275  0.00  0.00    -0.273 OA
ENDBRANCH   6   7
ENDBRANCH   5   6
ENDBRANCH   4   5
ENDBRANCH   3   4
ENDBRANCH   2   3
TORSDOF 5
