REMARK  Name = 3OP5
REMARK  5 active torsions:
REMARK  status: ('A' for Active; 'I' for Inactive)
REMARK    1  A    between atoms: C_5  and  C_7
REMARK    2  A    between atoms: C_7  and  C_24
REMARK    3  A    between atoms: N_14  and  C_15
REMARK    4  A    between atoms: C_16  and  C_18
REMARK    5  A    between atoms: N_20  and  C_21
REMARK                            x       y       z     vdW  Elec       q    Type
REMARK                         _______ _______ _______ _____ _____    ______ ____
ROOT
ATOM     10  N   UNL     1      26.392   2.967  11.282  0.00  0.00    -0.285 N 
ATOM     11  H   UNL     1      25.860   3.208  10.386  0.00  0.00    +0.155 HD
ATOM     12  C   UNL     1      25.807   1.817  11.979  0.00  0.00    +0.129 A 
ATOM     13  N   UNL     1      26.423   1.538  13.155  0.00  0.00    -0.199 NA
ATOM     14  C   UNL     1      26.059   0.532  14.040  0.00  0.00    +0.221 A 
ATOM     15  N   UNL     1      26.784   0.450  15.178  0.00  0.00    -0.284 N 
ATOM     16  H   UNL     1      26.664  -0.486  15.683  0.00  0.00    +0.155 HD
ATOM     26  N   UNL     1      25.063  -0.223  13.679  0.00  0.00    -0.223 NA
ATOM     27  C   UNL     1      24.360  -0.028  12.462  0.00  0.00    +0.118 A 
ATOM     28  C   UNL     1      24.707   1.018  11.604  0.00  0.00    +0.063 A 
ENDROOT
BRANCH  10   9
ATOM      1  C   UNL     1      28.445   3.735  12.581  0.00  0.00    +0.068 A 
ATOM      2  C   UNL     1      29.299   4.766  12.349  0.00  0.00    +0.068 A 
ATOM      6  N   UNL     1      28.898   5.366  11.288  0.00  0.00    -0.177 NA
ATOM      7  N   UNL     1      27.798   4.807  10.749  0.00  0.00    -0.264 N 
ATOM      8  H   UNL     1      27.293   5.125   9.861  0.00  0.00    +0.190 HD
ATOM      9  C   UNL     1      27.471   3.824  11.499  0.00  0.00    +0.120 A 
BRANCH   2   3
ATOM      3  C   UNL     1      30.490   5.217  13.073  0.00  0.00    +0.040 C 
ATOM      4  C   UNL     1      30.811   4.927  14.488  0.00  0.00    +0.010 C 
ATOM      5  C   UNL     1      31.820   4.696  13.410  0.00  0.00    +0.010 C 
ENDBRANCH   2   3
ENDBRANCH  10   9
BRANCH  15  17
ATOM     17  C   UNL     1      27.667   1.330  15.849  0.00  0.00    +0.034 A 
ATOM     18  C   UNL     1      27.507   2.772  15.813  0.00  0.00    +0.023 A 
ATOM     19  C   UNL     1      28.482   3.623  16.499  0.00  0.00    +0.006 A 
ATOM     20  C   UNL     1      29.599   2.912  17.189  0.00  0.00    -0.034 A 
ATOM     24  C   UNL     1      29.670   1.495  17.184  0.00  0.00    +0.006 A 
ATOM     25  C   UNL     1      28.713   0.717  16.524  0.00  0.00    +0.023 A 
BRANCH  20  21
ATOM     21  C   UNL     1      30.738   3.564  17.968  0.00  0.00    +0.153 C 
BRANCH  21  22
ATOM     22  C   UNL     1      31.977   3.333  17.201  0.00  0.00    +0.067 C 
ATOM     23  N   UNL     1      32.901   2.957  16.638  0.00  0.00    -0.196 NA
ENDBRANCH  21  22
ENDBRANCH  20  21
ENDBRANCH  15  17
TORSDOF 5
