REMARK  Name = A8QT
REMARK  4 active torsions:
REMARK  status: ('A' for Active; 'I' for Inactive)
REMARK    1  A    between atoms: C6_3  and  C7_4
REMARK    2  A    between atoms: C6_3  and  N3_10
REMARK    3  A    between atoms: N1_7  and  C3_9
REMARK    4  A    between atoms: C3_9  and  C2_12
REMARK                            x       y       z     vdW  Elec       q    Type
REMARK                         _______ _______ _______ _____ _____    ______ ____
ROOT
ATOM      1  N   UNL     1       7.791 -12.085   6.446  0.00  0.00    +0.000 NA
ENDROOT
TORSDOF 0
