REMARK  Name = 3t3u_ligand
REMARK  6 active torsions:
REMARK  status: ('A' for Active; 'I' for Inactive)
REMARK    1  A    between atoms: C6_6  and  NAB_8
REMARK    2  A    between atoms: CAA_7  and  OAS_22
REMARK    3  A    between atoms: CAN_19  and  CBB_28
REMARK    4  A    between atoms: CAN_19  and  NBC_29
REMARK    5  A    between atoms: OAS_22  and  CAT_23
REMARK    6  A    between atoms: CAU_24  and  CAW_25
REMARK                            x       y       z     vdW  Elec       q    Type
REMARK                         _______ _______ _______ _____ _____    ______ ____
ROOT
ATOM      1  N   UNL     1      21.561  12.482  63.809  0.00  0.00    -0.266 NA
ATOM      2  C   UNL     1      20.404  13.154  63.987  0.00  0.00    +0.127 A 
ATOM      6  C   UNL     1      20.433  14.558  63.943  0.00  0.00    +0.087 A 
ATOM      7  C   UNL     1      19.536  15.632  64.073  0.00  0.00    +0.071 A 
ATOM     20  N   UNL     1      20.248  16.759  63.946  0.00  0.00    -0.194 NA
ATOM     21  N   UNL     1      21.441  16.482  63.734  0.00  0.00    -0.183 N 
ATOM     31  C   UNL     1      21.665  15.173  63.727  0.00  0.00    +0.163 A 
ATOM     32  N   UNL     1      22.786  14.442  63.580  0.00  0.00    -0.268 NA
ATOM     33  C   UNL     1      22.725  13.114  63.614  0.00  0.00    +0.160 A 
ENDROOT
BRANCH   7   8
ATOM      8  C   UNL     1      18.167  15.572  64.327  0.00  0.00    -0.010 A 
ATOM      9  C   UNL     1      17.667  14.843  65.416  0.00  0.00    +0.011 A 
ATOM     10  C   UNL     1      16.298  14.811  65.707  0.00  0.00    -0.024 A 
ATOM     11  C   UNL     1      15.405  15.525  64.921  0.00  0.00    -0.029 A 
ATOM     12  C   UNL     1      14.036  15.485  65.211  0.00  0.00    +0.021 A 
ATOM     13  C   UNL     1      13.560  14.726  66.279  0.00  0.00    +0.092 A 
ATOM     16  C   UNL     1      14.459  14.008  67.067  0.00  0.00    +0.032 A 
ATOM     17  C   UNL     1      15.897  16.279  63.846  0.00  0.00    -0.000 A 
ATOM     18  C   UNL     1      15.816  14.071  66.771  0.00  0.00    +0.005 A 
ATOM     19  C   UNL     1      17.270  16.319  63.559  0.00  0.00    +0.004 A 
BRANCH  13  14
ATOM     14  O   UNL     1      12.227  14.654  66.574  0.00  0.00    -0.320 OA
ATOM     15  C   UNL     1      11.318  15.312  65.642  0.00  0.00    +0.233 C 
ENDBRANCH  13  14
ENDBRANCH   7   8
BRANCH   2   3
ATOM      3  N   UNL     1      19.278  12.450  64.182  0.00  0.00    -0.313 N 
ATOM      4  H   UNL     1      19.310  11.421  64.193  0.00  0.00    +0.184 HD
ATOM      5  H   UNL     1      18.382  12.939  64.320  0.00  0.00    +0.184 HD
ENDBRANCH   2   3
BRANCH  21  22
ATOM     22  C   UNL     1      22.499  17.499  63.542  0.00  0.00    +0.199 C 
BRANCH  22  23
ATOM     23  C   UNL     1      22.987  17.632  62.054  0.00  0.00    +0.030 C 
ATOM     24  C   UNL     1      21.805  17.981  61.128  0.00  0.00    +0.057 C 
ATOM     25  C   UNL     1      22.218  18.493  59.724  0.00  0.00    +0.130 C 
ATOM     26  N   UNL     1      23.244  19.549  59.830  0.00  0.00    +0.227 N 
ATOM     27  H   UNL     1      22.872  20.326  60.353  0.00  0.00    +0.201 HD
ATOM     28  H   UNL     1      23.503  19.858  58.906  0.00  0.00    +0.201 HD
ATOM     29  C   UNL     1      24.433  19.018  60.521  0.00  0.00    +0.130 C 
ATOM     30  C   UNL     1      24.046  18.743  61.983  0.00  0.00    +0.057 C 
ENDBRANCH  22  23
ENDBRANCH  21  22
TORSDOF 5
