REMARK  Name = 9OF
REMARK  1 active torsions:
REMARK  status: ('A' for Active; 'I' for Inactive)
REMARK    1  A    between atoms: C8_8  and  O19_19
REMARK                            x       y       z     vdW  Elec       q    Type
REMARK                         _______ _______ _______ _____ _____    ______ ____
ROOT
ATOM      1  C   UNL     1     -16.781  14.416 -37.919  0.00  0.00    +0.030 A 
ATOM      2  C   UNL     1     -17.963  15.220 -37.367  0.00  0.00    +0.027 C 
ATOM      3  C   UNL     1     -18.142  14.897 -35.877  0.00  0.00    +0.031 C 
ATOM      4  C   UNL     1     -18.091  13.426 -35.576  0.00  0.00    -0.017 A 
ATOM      5  C   UNL     1     -18.889  12.882 -34.574  0.00  0.00    +0.033 A 
ATOM      6  C   UNL     1     -18.839  11.533 -34.286  0.00  0.00    +0.138 A 
ATOM      9  C   UNL     1     -17.999  10.689 -34.970  0.00  0.00    +0.037 A 
ATOM     10  C   UNL     1     -17.201  11.219 -35.979  0.00  0.00    +0.004 A 
ATOM     11  C   UNL     1     -17.237  12.587 -36.288  0.00  0.00    +0.014 A 
ATOM     12  C   UNL     1     -17.825  16.756 -37.431  0.00  0.00    +0.005 C 
ATOM     13  C   UNL     1     -19.204  14.831 -38.132  0.00  0.00    +0.005 C 
ATOM     14  C   UNL     1     -16.444  13.171 -37.367  0.00  0.00    +0.082 A 
ATOM     15  N   UNL     1     -15.404  12.426 -37.846  0.00  0.00    -0.224 NA
ATOM     16  C   UNL     1     -14.697  12.933 -38.854  0.00  0.00    +0.200 A 
ATOM     17  N   UNL     1     -14.928  14.084 -39.468  0.00  0.00    -0.206 NA
ATOM     18  C   UNL     1     -15.963  14.808 -38.985  0.00  0.00    +0.169 A 
ATOM     19  N   UNL     1     -16.175  15.996 -39.669  0.00  0.00    -0.107 NA
ENDROOT
BRANCH   6   7
ATOM      7  O   UNL     1     -19.687  11.122 -33.252  0.00  0.00    -0.471 OA
ATOM      8  C   UNL     1     -19.675   9.717 -33.072  0.00  0.00    +0.253 C 
ENDBRANCH   6   7
TORSDOF 1
