REMARK  Name = 1h1s_ligand
REMARK  6 active torsions:
REMARK  status: ('A' for Active; 'I' for Inactive)
REMARK    1  A    between atoms: C10_3  and  C11_4
REMARK    2  A    between atoms: C10_3  and  O6_17
REMARK    3  A    between atoms: C20_11  and  S23_26
REMARK    4  A    between atoms: N26_14  and  S23_26
REMARK    5  A    between atoms: C6_16  and  O6_17
REMARK    6  A    between atoms: N2_23  and  C17_24
REMARK                            x       y       z     vdW  Elec       q    Type
REMARK                         _______ _______ _______ _____ _____    ______ ____
ROOT
ATOM      1  C   UNL     1       7.650  43.834  49.764  0.00  0.00    +0.179 A 
ATOM      2  N   UNL     1       6.658  44.520  50.561  0.00  0.00    -0.240 NA
ATOM      3  C   UNL     1       7.080  45.467  51.369  0.00  0.00    +0.176 A 
ATOM     12  C   UNL     1       8.465  45.767  51.540  0.00  0.00    +0.104 A 
ATOM     13  N   UNL     1       9.232  46.729  52.256  0.00  0.00    -0.302 NA
ATOM     14  C   UNL     1      10.475  46.491  51.933  0.00  0.00    +0.235 A 
ATOM     15  N   UNL     1      10.588  45.505  51.047  0.00  0.00    -0.240 N 
ATOM     16  H   UNL     1      11.454  45.132  50.633  0.00  0.00    +0.238 HD
ATOM     17  C   UNL     1       9.362  45.111  50.814  0.00  0.00    +0.145 A 
ATOM     18  N   UNL     1       8.879  44.099  49.970  0.00  0.00    -0.257 NA
ATOM     19  N   UNL     1       7.286  42.856  48.978  0.00  0.00    -0.249 N 
ATOM     20  H   UNL     1       7.947  42.540  48.254  0.00  0.00    +0.216 HD
ENDROOT
BRANCH  19  21
ATOM     21  C   UNL     1       6.065  42.225  49.067  0.00  0.00    +0.064 A 
ATOM     22  C   UNL     1       5.224  42.101  50.175  0.00  0.00    +0.017 A 
ATOM     23  C   UNL     1       4.023  41.432  50.180  0.00  0.00    +0.016 A 
ATOM     24  C   UNL     1       3.602  40.753  48.977  0.00  0.00    +0.096 A 
ATOM     25  C   UNL     1       4.435  40.813  47.888  0.00  0.00    +0.016 A 
ATOM     32  C   UNL     1       5.611  41.534  47.922  0.00  0.00    +0.017 A 
BRANCH  24  26
ATOM     26  S   UNL     1       2.147  39.796  48.930  0.00  0.00    +0.061 S 
ATOM     27  O   UNL     1       2.455  38.512  49.542  0.00  0.00    -0.152 OA
ATOM     28  O   UNL     1       1.553  39.740  47.599  0.00  0.00    -0.152 OA
BRANCH  26  29
ATOM     29  N   UNL     1       1.063  40.498  49.846  0.00  0.00    -0.262 NA
ATOM     30  H   UNL     1       1.287  41.347  50.325  0.00  0.00    +0.163 HD
ATOM     31  H   UNL     1       0.154  40.093  49.946  0.00  0.00    +0.163 HD
ENDBRANCH  26  29
ENDBRANCH  24  26
ENDBRANCH  19  21
BRANCH   3   4
ATOM      4  O   UNL     1       6.254  46.229  52.073  0.00  0.00    -0.293 OA
BRANCH   4   5
ATOM      5  C   UNL     1       4.896  45.749  51.715  0.00  0.00    +0.206 C 
BRANCH   5   6
ATOM      6  C   UNL     1       3.939  46.102  52.892  0.00  0.00    +0.021 C 
ATOM      7  C   UNL     1       4.288  45.467  54.267  0.00  0.00    +0.006 C 
ATOM      8  C   UNL     1       3.397  45.857  55.441  0.00  0.00    +0.000 C 
ATOM      9  C   UNL     1       1.852  45.558  55.110  0.00  0.00    +0.000 C 
ATOM     10  C   UNL     1       1.532  46.243  53.785  0.00  0.00    +0.000 C 
ATOM     11  C   UNL     1       2.450  45.872  52.565  0.00  0.00    +0.006 C 
ENDBRANCH   5   6
ENDBRANCH   4   5
ENDBRANCH   3   4
TORSDOF 6
