REMARK  Name = 6SO
REMARK  2 active torsions:
REMARK  status: ('A' for Active; 'I' for Inactive)
REMARK    1  A    between atoms: C7_4  and  C9_6
REMARK    2  A    between atoms: C9_6  and  C10_7
REMARK                            x       y       z     vdW  Elec       q    Type
REMARK                         _______ _______ _______ _____ _____    ______ ____
ROOT
ATOM      1  C   UNL     1     -22.833 -36.514   1.614  0.00  0.00    +0.013 A 
ATOM      2  C   UNL     1     -22.477 -35.179   1.732  0.00  0.00    +0.020 A 
ATOM      3  C   UNL     1     -22.106 -34.476   0.592  0.00  0.00    +0.081 A 
ATOM      4  N   UNL     1     -21.731 -33.167   0.424  0.00  0.00    -0.244 NA
ATOM      5  C   UNL     1     -21.522 -32.927  -0.910  0.00  0.00    +0.095 A 
ATOM      6  C   UNL     1     -21.730 -34.069  -1.630  0.00  0.00    -0.000 A 
ATOM     10  C   UNL     1     -22.090 -35.085  -0.679  0.00  0.00    +0.016 A 
ATOM     11  C   UNL     1     -22.415 -36.442  -0.777  0.00  0.00    +0.013 A 
ATOM     12  C   UNL     1     -22.777 -37.130   0.367  0.00  0.00    +0.058 A 
ATOM     13 CL   UNL     1     -23.227 -38.808   0.236  0.00  0.00    -0.082 Cl
ENDROOT
BRANCH   6   7
ATOM      7  C   UNL     1     -21.663 -34.234  -3.125  0.00  0.00    +0.049 C 
BRANCH   7   8
ATOM      8  C   UNL     1     -23.068 -34.170  -3.693  0.00  0.00    +0.114 C 
ATOM      9  N   UNL     1     -23.081 -34.406  -5.159  0.00  0.00    -0.131 NA
ENDBRANCH   7   8
ENDBRANCH   6   7
TORSDOF 2
