REMARK  Name = 5ANJ
REMARK  2 active torsions:
REMARK  status: ('A' for Active; 'I' for Inactive)
REMARK    1  A    between atoms: C_2  and  N_5
REMARK    2  A    between atoms: C_10  and  C_12
REMARK                            x       y       z     vdW  Elec       q    Type
REMARK                         _______ _______ _______ _____ _____    ______ ____
ROOT
ATOM      1  C   UNL     1       0.480  -5.798 -28.012  0.00  0.00    +0.148 A 
ATOM      2  N   UNL     1      -0.509  -5.404 -27.187  0.00  0.00    -0.231 NA
ATOM      3  C   UNL     1      -0.689  -4.089 -27.333  0.00  0.00    +0.198 A 
ATOM      4  N   UNL     1       0.213  -3.603 -28.291  0.00  0.00    -0.329 N 
ATOM      5  H   UNL     1       0.327  -2.589 -28.613  0.00  0.00    +0.168 HD
ATOM      6  C   UNL     1       0.896  -4.659 -28.716  0.00  0.00    +0.163 A 
ATOM      7  N   UNL     1       1.906  -4.745 -29.564  0.00  0.00    -0.216 NA
ATOM      8  C   UNL     1       2.525  -5.981 -29.835  0.00  0.00    +0.225 A 
ATOM      9  N   UNL     1       2.158  -7.077 -29.095  0.00  0.00    -0.218 NA
ATOM     10  C   UNL     1       1.136  -6.975 -28.220  0.00  0.00    +0.156 A 
ENDROOT
BRANCH  10  11
ATOM     11  N   UNL     1       0.897  -8.203 -27.582  0.00  0.00    -0.264 N 
ATOM     12  H   UNL     1       1.770  -8.783 -27.366  0.00  0.00    +0.157 HD
ATOM     13  C   UNL     1      -0.293  -8.769 -27.194  0.00  0.00    +0.256 C 
ATOM     14  O   UNL     1      -1.388  -8.244 -27.335  0.00  0.00    -0.269 OA
BRANCH  13  15
ATOM     15  C   UNL     1      -0.235 -10.077 -26.785  0.00  0.00    +0.074 A 
ATOM     16  S   UNL     1      -1.651 -11.077 -26.820  0.00  0.00    -0.092 S 
ATOM     17  C   UNL     1      -0.831 -12.478 -26.387  0.00  0.00    +0.046 A 
ATOM     18  C   UNL     1       0.468 -12.175 -26.285  0.00  0.00    +0.008 A 
ATOM     19  C   UNL     1       0.812 -10.857 -26.519  0.00  0.00    +0.020 A 
ENDBRANCH  13  15
ENDBRANCH  10  11
TORSDOF 2
