REMARK  Name = 5OP7
REMARK  5 active torsions:
REMARK  status: ('A' for Active; 'I' for Inactive)
REMARK    1  A    between atoms: C_1  and  N_2
REMARK    2  A    between atoms: O_3  and  C_22
REMARK    3  A    between atoms: O_3  and  C_23
REMARK    4  A    between atoms: N_11  and  C_17
REMARK    5  A    between atoms: C_20  and  C_24
REMARK                            x       y       z     vdW  Elec       q    Type
REMARK                         _______ _______ _______ _____ _____    ______ ____
ROOT
ATOM      9  C   UNL     1       0.915  -3.047  20.618  0.00  0.00    +0.076 A 
ATOM     10  C   UNL     1       0.008  -2.816  21.678  0.00  0.00    +0.142 A 
ATOM     11  C   UNL     1      -1.249  -3.393  21.643  0.00  0.00    +0.060 A 
ATOM     12  C   UNL     1      -1.606  -4.225  20.592  0.00  0.00    +0.041 A 
ATOM     21  C   UNL     1      -0.704  -4.463  19.565  0.00  0.00    +0.015 A 
ATOM     24  C   UNL     1       0.542  -3.876  19.573  0.00  0.00    +0.028 A 
ENDROOT
BRANCH   9   7
ATOM      1  C   UNL     1       3.500  -6.203  17.708  0.00  0.00    +0.173 C 
ATOM      2  N   UNL     1       4.572  -5.239  17.861  0.00  0.00    -0.270 NA
ATOM      3  C   UNL     1       4.489  -4.117  18.585  0.00  0.00    +0.141 A 
ATOM      4  N   UNL     1       3.353  -3.881  19.261  0.00  0.00    -0.312 N 
ATOM      5  H   UNL     1       2.537  -4.572  19.226  0.00  0.00    +0.170 HD
ATOM      6  C   UNL     1       3.272  -2.736  19.992  0.00  0.00    +0.201 A 
ATOM      7  N   UNL     1       2.147  -2.430  20.659  0.00  0.00    -0.282 N 
ATOM      8  H   UNL     1       2.217  -1.588  21.315  0.00  0.00    +0.155 HD
ATOM     25  N   UNL     1       4.209  -1.796  20.142  0.00  0.00    -0.196 NA
ATOM     26  C   UNL     1       5.330  -2.047  19.470  0.00  0.00    +0.168 A 
ATOM     27  N   UNL     1       6.416  -1.258  19.386  0.00  0.00    -0.234 NA
ATOM     28  C   UNL     1       7.327  -1.871  18.576  0.00  0.00    +0.134 A 
ATOM     29  C   UNL     1       6.814  -3.052  18.161  0.00  0.00    +0.073 A 
ATOM     30 CL   UNL     1       7.624  -4.106  17.051  0.00  0.00    -0.081 Cl
ATOM     31  C   UNL     1       5.557  -3.183  18.663  0.00  0.00    +0.081 A 
ENDBRANCH   9   7
BRANCH  12  13
ATOM     13  C   UNL     1      -2.967  -4.837  20.584  0.00  0.00    +0.247 C 
ATOM     14  N   UNL     1      -3.171  -5.959  21.301  0.00  0.00    -0.293 N 
ATOM     15  C   UNL     1      -2.175  -6.600  22.163  0.00  0.00    +0.136 C 
ATOM     16  C   UNL     1      -2.077  -8.063  21.833  0.00  0.00    +0.178 C 
ATOM     17  O   UNL     1      -3.343  -8.708  21.920  0.00  0.00    -0.377 OA
ATOM     18  C   UNL     1      -4.264  -8.100  21.023  0.00  0.00    +0.178 C 
ATOM     19  C   UNL     1      -4.459  -6.644  21.331  0.00  0.00    +0.136 C 
ATOM     20  O   UNL     1      -3.877  -4.253  20.012  0.00  0.00    -0.270 OA
ENDBRANCH  12  13
BRANCH  10  22
ATOM     22  O   UNL     1       0.463  -1.986  22.670  0.00  0.00    -0.493 OA
ATOM     23  C   UNL     1      -0.272  -1.921  23.898  0.00  0.00    +0.277 C 
ENDBRANCH  10  22
TORSDOF 3
