REMARK  Name = M01
REMARK  1 active torsions:
REMARK  status: ('A' for Active; 'I' for Inactive)
REMARK    1  A    between atoms: C9_7  and  C10_11
REMARK                            x       y       z     vdW  Elec       q    Type
REMARK                         _______ _______ _______ _____ _____    ______ ____
ROOT
ATOM      1  N   UNL     1       5.152   9.889   4.865  0.00  0.00    -0.207 NA
ATOM      2  C   UNL     1       3.822   9.765   4.945  0.00  0.00    +0.202 A 
ATOM      3  N   UNL     1       2.940   9.613   3.955  0.00  0.00    -0.203 NA
ATOM      4  C   UNL     1       3.526   9.650   2.753  0.00  0.00    +0.186 A 
ATOM      5  C   UNL     1       4.878   9.789   2.525  0.00  0.00    +0.150 A 
ATOM      6  N   UNL     1       5.133   9.782   1.145  0.00  0.00    -0.218 NA
ATOM      7  C   UNL     1       3.934   9.630   0.596  0.00  0.00    +0.201 A 
ATOM      8  N   UNL     1       2.955   9.548   1.521  0.00  0.00    -0.203 NA
ATOM      9  C   UNL     1       5.705   9.911   3.639  0.00  0.00    +0.154 A 
ATOM     10  N   UNL     1       7.105  10.055   3.565  0.00  0.00    -0.292 N 
ATOM     11  C   UNL     1       7.977  10.300   4.715  0.00  0.00    +0.092 C 
ATOM     12  C   UNL     1       8.850   9.095   4.990  0.00  0.00    +0.023 C 
ATOM     13  C   UNL     1       9.698   8.726   3.770  0.00  0.00    +0.022 C 
ATOM     16  C   UNL     1       8.807   8.610   2.529  0.00  0.00    +0.023 C 
ATOM     17  C   UNL     1       7.900   9.807   2.355  0.00  0.00    +0.092 C 
ENDROOT
BRANCH  13  14
ATOM     14  C   UNL     1      10.405   7.411   3.995  0.00  0.00    +0.109 C 
ATOM     15  N   UNL     1      11.166   6.968   2.795  0.00  0.00    -0.131 NA
ENDBRANCH  13  14
TORSDOF 1
