REMARK  Name = 3qkm_ligand
REMARK  15 active torsions:
REMARK  status: ('A' for Active; 'I' for Inactive)
REMARK    1  A    between atoms: C1_1  and  C2_2
REMARK    2  A    between atoms: C1_1  and  N20_20
REMARK    3  A    between atoms: C2_2  and  C3_3
REMARK    4  A    between atoms: C2_2  and  O4_4
REMARK    5  A    between atoms: C3_3  and  N5_5
REMARK    6  A    between atoms: N5_5  and  C6_6
REMARK    7  A    between atoms: N5_5  and  S39_39
REMARK    8  A    between atoms: C6_6  and  C7_7
REMARK    9  A    between atoms: C7_7  and  O36_36
REMARK   10  A    between atoms: C8_8  and  S39_39
REMARK   11  A    between atoms: C9_9  and  C15_15
REMARK   12  A    between atoms: C13_13  and  C14_14
REMARK   13  A    between atoms: N24_24  and  C26_26
REMARK   14  A    between atoms: O36_36  and  C38_38
REMARK   15  A    between atoms: C37_37  and  C38_38
REMARK                            x       y       z     vdW  Elec       q    Type
REMARK                         _______ _______ _______ _____ _____    ______ ____
ROOT
ATOM      1  C   UNL     1      28.144   2.607  13.955  0.00  0.00    +0.164 C 
ENDROOT
BRANCH   1   2
ATOM      2  N   UNL     1      27.392   3.638  13.194  0.00  0.00    +0.237 N 
ATOM      3  H   UNL     1      26.682   3.144  12.677  0.00  0.00    +0.203 HD
ATOM      4  C   UNL     1      28.215   4.344  12.166  0.00  0.00    +0.140 C 
ATOM      5  C   UNL     1      27.510   5.511  11.442  0.00  0.00    +0.034 C 
ATOM      6  C   UNL     1      26.582   4.983  10.343  0.00  0.00    +0.155 C 
ATOM      7  N   UNL     1      26.595   5.990   9.266  0.00  0.00    -0.278 N 
ATOM     18  C   UNL     1      27.782   6.847   9.408  0.00  0.00    +0.144 C 
ATOM     19  C   UNL     1      28.528   6.355  10.662  0.00  0.00    +0.040 C 
ATOM     20  C   UNL     1      26.749   6.420  12.443  0.00  0.00    +0.019 C 
ATOM     21  C   UNL     1      25.836   5.619  13.396  0.00  0.00    +0.052 C 
ATOM     22  C   UNL     1      26.668   4.548  14.126  0.00  0.00    +0.131 C 
BRANCH   7   8
ATOM      8  C   UNL     1      25.519   6.300   8.482  0.00  0.00    +0.146 A 
ATOM      9  N   UNL     1      25.562   7.526   7.923  0.00  0.00    -0.254 NA
ATOM     10  C   UNL     1      24.546   7.922   7.138  0.00  0.00    +0.167 A 
ATOM     11  N   UNL     1      23.464   7.179   6.856  0.00  0.00    -0.294 NA
ATOM     12  C   UNL     1      23.366   5.949   7.385  0.00  0.00    +0.044 A 
ATOM     13  C   UNL     1      22.234   5.150   7.096  0.00  0.00    +0.023 A 
ATOM     14  C   UNL     1      22.121   3.853   7.646  0.00  0.00    +0.012 A 
ATOM     15  C   UNL     1      23.146   3.361   8.488  0.00  0.00    +0.008 A 
ATOM     16  C   UNL     1      24.281   4.162   8.771  0.00  0.00    +0.029 A 
ATOM     17  C   UNL     1      24.400   5.462   8.223  0.00  0.00    +0.055 A 
ENDBRANCH   7   8
ENDBRANCH   1   2
BRANCH   1  23
ATOM     23  C   UNL     1      28.729   1.458  13.118  0.00  0.00    +0.178 C 
BRANCH  23  24
ATOM     24  O   UNL     1      27.716   0.885  12.306  0.00  0.00    -0.385 OA
ATOM     25  H   UNL     1      27.376   1.545  11.714  0.00  0.00    +0.210 HD
ENDBRANCH  23  24
BRANCH  23  26
ATOM     26  C   UNL     1      29.296   0.401  14.089  0.00  0.00    +0.162 C 
BRANCH  26  27
ATOM     27  N   UNL     1      30.394  -0.439  13.530  0.00  0.00    -0.231 NA
BRANCH  27  28
ATOM     28  S   UNL     1      32.067   0.113  13.446  0.00  0.00    +0.066 S 
ATOM     29  O   UNL     1      32.889  -0.952  12.853  0.00  0.00    -0.152 OA
ATOM     30  O   UNL     1      32.440   0.579  14.788  0.00  0.00    -0.152 OA
BRANCH  28  31
ATOM     31  C   UNL     1      31.891   1.520  12.286  0.00  0.00    +0.110 A 
ATOM     32  C   UNL     1      31.635   1.269  10.909  0.00  0.00    -0.026 A 
ATOM     33  C   UNL     1      31.514  -0.136  10.333  0.00  0.00    +0.086 C 
ATOM     34  C   UNL     1      31.481   2.347  10.010  0.00  0.00    -0.016 A 
ATOM     35  C   UNL     1      31.572   3.674  10.479  0.00  0.00    -0.017 A 
ATOM     36  C   UNL     1      31.831   3.934  11.843  0.00  0.00    -0.016 A 
ATOM     37  C   UNL     1      31.980   2.862  12.753  0.00  0.00    -0.026 A 
ATOM     38  C   UNL     1      32.238   3.218  14.213  0.00  0.00    +0.086 C 
ENDBRANCH  28  31
ENDBRANCH  27  28
BRANCH  27  39
ATOM     39  C   UNL     1      29.961  -1.774  13.041  0.00  0.00    +0.153 C 
BRANCH  39  40
ATOM     40  C   UNL     1      29.803  -2.793  14.184  0.00  0.00    +0.180 C 
BRANCH  40  41
ATOM     41  O   UNL     1      29.995  -4.090  13.654  0.00  0.00    -0.378 OA
BRANCH  41  42
ATOM     42  C   UNL     1      29.772  -5.098  14.627  0.00  0.00    +0.156 C 
ATOM     43  C   UNL     1      29.778  -6.456  13.904  0.00  0.00    +0.034 C 
ENDBRANCH  41  42
ENDBRANCH  40  41
ENDBRANCH  39  40
ENDBRANCH  27  39
ENDBRANCH  26  27
ENDBRANCH  23  26
ENDBRANCH   1  23
TORSDOF 12
