REMARK  Name = 3LFD
REMARK  12 active torsions:
REMARK  status: ('A' for Active; 'I' for Inactive)
REMARK    1  A    between atoms: C_1  and  C_27
REMARK    2  A    between atoms: C_2  and  C_35
REMARK    3  A    between atoms: C_3  and  C_35
REMARK    4  A    between atoms: C_4  and  C_35
REMARK    5  A    between atoms: C_17  and  C_18
REMARK    6  A    between atoms: C_17  and  O_24
REMARK    7  A    between atoms: C_18  and  C_29
REMARK    8  A    between atoms: C_19  and  O_24
REMARK    9  A    between atoms: C_19  and  C_28
REMARK   10  A    between atoms: N_22  and  C_31
REMARK   11  A    between atoms: C_30  and  N_34
REMARK   12  A    between atoms: C_32  and  C_35
REMARK                            x       y       z     vdW  Elec       q    Type
REMARK                         _______ _______ _______ _____ _____    ______ ____
ROOT
ATOM      8  N   UNL     1      18.920  -6.032 -16.796  0.00  0.00    -0.254 N 
ATOM      9  H   UNL     1      19.847  -6.447 -16.460  0.00  0.00    +0.158 HD
ATOM     10  C   UNL     1      18.907  -4.802 -17.302  0.00  0.00    +0.311 C 
ATOM     11  N   UNL     1      20.096  -4.193 -17.348  0.00  0.00    -0.248 N 
ATOM     12  H   UNL     1      20.941  -4.751 -17.002  0.00  0.00    +0.158 HD
ATOM     13  C   UNL     1      20.329  -2.945 -17.788  0.00  0.00    +0.166 A 
ATOM     14  S   UNL     1      19.401  -2.003 -18.837  0.00  0.00    -0.060 S 
ATOM     15  C   UNL     1      20.429  -0.674 -18.786  0.00  0.00    +0.071 A 
ATOM     16  C   UNL     1      21.457  -0.990 -17.973  0.00  0.00    +0.053 A 
ATOM     27  N   UNL     1      21.394  -2.225 -17.431  0.00  0.00    -0.230 NA
ATOM     28  O   UNL     1      17.869  -4.283 -17.711  0.00  0.00    -0.252 OA
ENDROOT
BRANCH   8   7
ATOM      6  N   UNL     1      17.320  -7.304 -15.584  0.00  0.00    -0.218 N 
ATOM      7  C   UNL     1      17.811  -6.759 -16.697  0.00  0.00    +0.130 A 
ATOM     29  C   UNL     1      17.009  -7.066 -17.707  0.00  0.00    +0.069 A 
ATOM     30  C   UNL     1      16.049  -7.792 -17.150  0.00  0.00    +0.071 A 
ATOM     35  N   UNL     1      16.284  -7.917 -15.847  0.00  0.00    -0.169 NA
BRANCH   6   5
ATOM      1  C   UNL     1      19.495  -7.060 -10.358  0.00  0.00    +0.044 C 
ATOM      2  C   UNL     1      18.895  -7.122 -11.764  0.00  0.00    -0.050 A 
ATOM      3  C   UNL     1      19.742  -7.298 -12.856  0.00  0.00    +0.005 A 
ATOM      4  C   UNL     1      19.208  -7.361 -14.141  0.00  0.00    +0.028 A 
ATOM      5  C   UNL     1      17.833  -7.237 -14.350  0.00  0.00    +0.067 A 
ATOM     36  C   UNL     1      16.984  -7.066 -13.247  0.00  0.00    +0.028 A 
ATOM     37  C   UNL     1      17.511  -7.006 -11.954  0.00  0.00    +0.005 A 
ENDBRANCH   6   5
BRANCH  30  31
ATOM     31  C   UNL     1      14.853  -8.403 -17.885  0.00  0.00    +0.006 C 
ATOM     32  C   UNL     1      15.280  -9.730 -18.511  0.00  0.00    +0.017 C 
ATOM     33  C   UNL     1      14.385  -7.438 -18.967  0.00  0.00    +0.017 C 
ATOM     34  C   UNL     1      13.714  -8.629 -16.889  0.00  0.00    +0.017 C 
ENDBRANCH  30  31
ENDBRANCH   8   7
BRANCH  16  17
ATOM     17  C   UNL     1      22.615  -0.034 -17.672  0.00  0.00    +0.084 C 
BRANCH  17  18
ATOM     18  C   UNL     1      23.375   0.403 -18.934  0.00  0.00    +0.166 C 
BRANCH  18  19
ATOM     19  O   UNL     1      22.759   0.038 -20.190  0.00  0.00    -0.375 OA
BRANCH  19  20
ATOM     20  C   UNL     1      23.668  -0.707 -21.034  0.00  0.00    +0.195 C 
BRANCH  20  21
ATOM     21  C   UNL     1      23.708  -2.099 -20.978  0.00  0.00    -0.022 A 
ATOM     22  C   UNL     1      24.822  -2.772 -21.472  0.00  0.00    +0.006 A 
ATOM     23  C   UNL     1      24.857  -4.164 -21.413  0.00  0.00    +0.000 A 
ATOM     24  C   UNL     1      23.784  -4.872 -20.862  0.00  0.00    +0.000 A 
ATOM     25  C   UNL     1      22.669  -4.203 -20.368  0.00  0.00    +0.000 A 
ATOM     26  C   UNL     1      22.639  -2.815 -20.431  0.00  0.00    +0.006 A 
ENDBRANCH  20  21
ENDBRANCH  19  20
ENDBRANCH  18  19
ENDBRANCH  17  18
ENDBRANCH  16  17
TORSDOF 8
