REMARK  Name = 2cgx_ligand
REMARK  4 active torsions:
REMARK  status: ('A' for Active; 'I' for Inactive)
REMARK    1  A    between atoms: C6_6  and  N13_7
REMARK    2  A    between atoms: C5_10  and  S10_11
REMARK    3  A    between atoms: S10_11  and  C14_12
REMARK    4  A    between atoms: C14_12  and  C11_13
REMARK                            x       y       z     vdW  Elec       q    Type
REMARK                         _______ _______ _______ _____ _____    ______ ____
ROOT
ATOM      1  N   UNL     1       5.622  -4.839  18.026  0.00  0.00    -0.287 NA
ATOM      2  C   UNL     1       4.590  -5.663  17.858  0.00  0.00    +0.195 A 
ATOM     10  N   UNL     1       3.484  -5.216  18.451  0.00  0.00    -0.228 N 
ATOM     11  H   UNL     1       2.560  -5.670  18.483  0.00  0.00    +0.236 HD
ATOM     12  C   UNL     1       3.837  -4.054  18.992  0.00  0.00    +0.149 A 
ATOM     13  C   UNL     1       3.106  -3.132  19.723  0.00  0.00    +0.148 A 
ATOM     17  N   UNL     1       3.721  -2.009  20.162  0.00  0.00    -0.272 NA
ATOM     18  C   UNL     1       5.029  -1.797  19.879  0.00  0.00    +0.144 A 
ATOM     19  N   UNL     1       5.779  -2.663  19.201  0.00  0.00    -0.299 NA
ATOM     20  C   UNL     1       5.184  -3.803  18.749  0.00  0.00    +0.090 A 
ENDROOT
BRANCH  13  14
ATOM     14  N   UNL     1       1.807  -3.379  19.935  0.00  0.00    -0.316 N 
ATOM     15  H   UNL     1       1.231  -2.699  20.452  0.00  0.00    +0.180 HD
ATOM     16  H   UNL     1       1.384  -4.249  19.581  0.00  0.00    +0.180 HD
ENDBRANCH  13  14
BRANCH   2   3
ATOM      3  S   UNL     1       4.680  -7.174  17.012  0.00  0.00    -0.010 S 
BRANCH   3   4
ATOM      4  C   UNL     1       6.271  -7.033  16.073  0.00  0.00    +0.237 C 
BRANCH   4   5
ATOM      5  C   UNL     1       6.820  -8.347  15.418  0.00  0.00    +0.187 C 
ATOM      6  N   UNL     1       6.139  -9.486  15.648  0.00  0.00    -0.300 N 
ATOM      7  H   UNL     1       5.317  -9.471  16.218  0.00  0.00    +0.181 HD
ATOM      8  H   UNL     1       6.455 -10.347  15.249  0.00  0.00    +0.181 HD
ATOM      9  O   UNL     1       7.845  -8.315  14.721  0.00  0.00    -0.396 OA
ENDBRANCH   4   5
ENDBRANCH   3   4
ENDBRANCH   2   3
TORSDOF 4
