REMARK  Name = GVG
REMARK  1 active torsions:
REMARK  status: ('A' for Active; 'I' for Inactive)
REMARK    1  A    between atoms: C3_3  and  C6_4
REMARK                            x       y       z     vdW  Elec       q    Type
REMARK                         _______ _______ _______ _____ _____    ______ ____
ROOT
ATOM      1  C   UNL     1       4.293  10.019   2.495  0.00  0.00    +0.082 A 
ATOM      2  C   UNL     1       5.065   9.865   3.653  0.00  0.00    +0.036 A 
ATOM      3  C   UNL     1       4.157   9.530   4.650  0.00  0.00    +0.123 A 
ATOM      4  N   UNL     1       2.911   9.471   4.178  0.00  0.00    -0.147 NA
ATOM     11  N   UNL     1       3.007   9.762   2.859  0.00  0.00    -0.152 NA
ATOM     12  C   UNL     1       4.625  10.355   1.085  0.00  0.00    +0.054 C 
ENDROOT
BRANCH   2   5
ATOM      5  C   UNL     1       6.519   9.959   3.828  0.00  0.00    +0.003 A 
ATOM      6  C   UNL     1       7.064  10.181   5.086  0.00  0.00    +0.000 A 
ATOM      7  C   UNL     1       8.430  10.253   5.253  0.00  0.00    +0.000 A 
ATOM      8  C   UNL     1       9.268  10.070   4.177  0.00  0.00    +0.000 A 
ATOM      9  C   UNL     1       8.742   9.851   2.924  0.00  0.00    +0.000 A 
ATOM     10  C   UNL     1       7.378   9.774   2.750  0.00  0.00    +0.000 A 
ENDBRANCH   2   5
TORSDOF 1
