REMARK  Name = 5MQT
REMARK  8 active torsions:
REMARK  status: ('A' for Active; 'I' for Inactive)
REMARK    1  A    between atoms: N_1  and  C_9
REMARK    2  A    between atoms: C_10  and  O_11
REMARK    3  A    between atoms: C_12  and  O_15
REMARK    4  A    between atoms: C_13  and  C_16
REMARK    5  A    between atoms: C_16  and  O_17
REMARK    6  A    between atoms: O_17  and  P_18
REMARK    7  A    between atoms: P_18  and  O_21
REMARK    8  A    between atoms: O_21  and  P_22
REMARK                            x       y       z     vdW  Elec       q    Type
REMARK                         _______ _______ _______ _____ _____    ______ ____
ROOT
ATOM      2  C   UNL     1     -20.258 113.434  28.334  0.00  0.00    +0.255 C 
ATOM      3  O   UNL     1     -19.460 114.403  27.695  0.00  0.00    -0.346 OA
ATOM      4  C   UNL     1     -19.070 115.385  28.677  0.00  0.00    +0.178 C 
ATOM     15  C   UNL     1     -19.380 114.781  30.049  0.00  0.00    +0.178 C 
ATOM     18  C   UNL     1     -19.669 113.308  29.730  0.00  0.00    +0.195 C 
ENDROOT
BRANCH   2   1
ATOM      1  N   UNL     1     -20.240 112.197  27.529  0.00  0.00    -0.272 N 
ATOM     21  C   UNL     1     -19.046 111.676  27.063  0.00  0.00    +0.098 C 
ATOM     22  C   UNL     1     -18.998 110.546  26.340  0.00  0.00    +0.088 C 
ATOM     23  C   UNL     1     -20.209 109.838  26.038  0.00  0.00    +0.254 C 
ATOM     24  O   UNL     1     -20.285 108.781  25.415  0.00  0.00    -0.268 OA
ATOM     25  N   UNL     1     -21.356 110.421  26.522  0.00  0.00    -0.275 N 
ATOM     26  H   UNL     1     -22.275 109.916  26.307  0.00  0.00    +0.173 HD
ATOM     27  C   UNL     1     -21.451 111.581  27.251  0.00  0.00    +0.331 C 
ATOM     28  O   UNL     1     -22.536 112.047  27.575  0.00  0.00    -0.246 OA
ENDBRANCH   2   1
BRANCH  15  16
ATOM     16  O   UNL     1     -20.501 115.467  30.592  0.00  0.00    -0.386 OA
ATOM     17  H   UNL     1     -21.294 115.442  29.904  0.00  0.00    +0.210 HD
ENDBRANCH  15  16
BRANCH  18  19
ATOM     19  O   UNL     1     -20.577 112.676  30.624  0.00  0.00    -0.385 OA
ATOM     20  H   UNL     1     -21.459 113.242  30.686  0.00  0.00    +0.210 HD
ENDBRANCH  18  19
BRANCH   4   5
ATOM      5  C   UNL     1     -17.642 115.781  28.439  0.00  0.00    +0.202 C 
BRANCH   5   6
ATOM      6  O   UNL     1     -16.908 114.557  28.298  0.00  0.00    -0.325 OA
BRANCH   6   7
ATOM      7  P   UNL     1     -15.354 114.522  28.472  0.00  0.00    +0.215 P 
ATOM     13  O   UNL     1     -14.890 115.133  29.741  0.00  0.00    -0.517 OA
ATOM     14  O   UNL     1     -14.947 113.062  28.376  0.00  0.00    -0.437 OA
BRANCH   7   8
ATOM      8  O   UNL     1     -14.709 115.351  27.273  0.00  0.00    -0.314 OA
BRANCH   8   9
ATOM      9  P   UNL     1     -13.240 115.877  26.950  0.00  0.00    -0.007 P 
ATOM     10  O   UNL     1     -13.233 117.398  26.998  0.00  0.00    -0.577 OA
ATOM     11  O   UNL     1     -12.226 115.294  27.877  0.00  0.00    -0.637 OA
ATOM     12  O   UNL     1     -13.027 115.472  25.497  0.00  0.00    -0.577 OA
ENDBRANCH   8   9
ENDBRANCH   7   8
ENDBRANCH   6   7
ENDBRANCH   5   6
ENDBRANCH   4   5
TORSDOF 8
