REMARK  Name = 4i5m_ligand
REMARK  10 active torsions:
REMARK  status: ('A' for Active; 'I' for Inactive)
REMARK    1  A    between atoms: N3_2  and  C8_7
REMARK    2  A    between atoms: C5_4  and  C9_34
REMARK    3  A    between atoms: C7_6  and  N5_28
REMARK    4  A    between atoms: C10_8  and  C9_34
REMARK    5  A    between atoms: C21_13  and  C18_23
REMARK    6  A    between atoms: C22_14  and  N6_18
REMARK    7  A    between atoms: N7_20  and  C30_21
REMARK    8  A    between atoms: C16_24  and  O3_25
REMARK    9  A    between atoms: O3_25  and  C31_26
REMARK   10  A    between atoms: N4_36  and  C11_37
REMARK                            x       y       z     vdW  Elec       q    Type
REMARK                         _______ _______ _______ _____ _____    ______ ____
ROOT
ATOM      1  N   UNL     1       7.726   4.764  10.132  0.00  0.00    -0.288 NA
ATOM      2  C   UNL     1       7.718   6.089  10.438  0.00  0.00    +0.178 A 
ATOM      3  N   UNL     1       8.883   6.763  10.613  0.00  0.00    -0.251 NA
ATOM      4  C   UNL     1      10.084   6.146  10.490  0.00  0.00    +0.146 A 
ATOM      5  C   UNL     1      10.093   4.702  10.154  0.00  0.00    +0.127 A 
ATOM      6  N   UNL     1      11.327   4.030  10.015  0.00  0.00    -0.221 N 
ATOM      7  C   UNL     1      11.347   2.597   9.683  0.00  0.00    +0.205 C 
ATOM      8  C   UNL     1      12.552   4.725  10.210  0.00  0.00    +0.228 C 
ATOM      9  O   UNL     1      13.641   4.111  10.074  0.00  0.00    -0.384 OA
ATOM     10  C   UNL     1      12.615   6.183  10.512  0.00  0.00    +0.216 C 
ATOM     13  N   UNL     1      11.298   6.859  10.666  0.00  0.00    -0.269 N 
ATOM     19  N   UNL     1       6.507   6.691  10.557  0.00  0.00    -0.253 N 
ATOM     20  H   UNL     1       5.692   6.087  10.377  0.00  0.00    +0.212 HD
ATOM     41  C   UNL     1       8.863   4.064   9.988  0.00  0.00    +0.090 A 
ENDROOT
BRANCH  19  21
ATOM     21  C   UNL     1       6.218   7.983  10.881  0.00  0.00    +0.098 A 
ATOM     22  C   UNL     1       4.833   8.466  10.618  0.00  0.00    +0.120 A 
ATOM     25  C   UNL     1       4.500   9.779  10.946  0.00  0.00    +0.032 A 
ATOM     26  C   UNL     1       5.442  10.635  11.513  0.00  0.00    +0.029 A 
ATOM     27  C   UNL     1       6.743  10.183  11.768  0.00  0.00    -0.008 A 
ATOM     40  C   UNL     1       7.132   8.875  11.458  0.00  0.00    +0.011 A 
BRANCH  26  28
ATOM     28  C   UNL     1       5.020  12.038  11.853  0.00  0.00    +0.194 C 
ATOM     29  N   UNL     1       5.659  13.083  11.321  0.00  0.00    -0.285 N 
ATOM     30  H   UNL     1       6.515  12.928  10.827  0.00  0.00    +0.184 HD
ATOM     39  O   UNL     1       4.082  12.181  12.622  0.00  0.00    -0.390 OA
BRANCH  29  31
ATOM     31  C   UNL     1       5.149  14.440  11.438  0.00  0.00    +0.107 C 
ATOM     32  C   UNL     1       4.840  15.035  10.065  0.00  0.00    +0.078 C 
ATOM     33  C   UNL     1       4.215  16.425  10.200  0.00  0.00    +0.133 C 
ATOM     34  N   UNL     1       5.123  17.218  11.029  0.00  0.00    +0.233 N 
ATOM     35  H   UNL     1       5.914  16.763  10.601  0.00  0.00    +0.203 HD
ATOM     36  C   UNL     1       5.587  18.510  10.540  0.00  0.00    +0.190 C 
ATOM     37  C   UNL     1       5.560  16.745  12.344  0.00  0.00    +0.133 C 
ATOM     38  C   UNL     1       6.150  15.346  12.151  0.00  0.00    +0.078 C 
ENDBRANCH  29  31
ENDBRANCH  26  28
BRANCH  22  23
ATOM     23  O   UNL     1       3.906   7.624  10.053  0.00  0.00    -0.324 OA
ATOM     24  C   UNL     1       2.508   7.919  10.093  0.00  0.00    +0.229 C 
ENDBRANCH  22  23
ENDBRANCH  19  21
BRANCH  13  14
ATOM     14  C   UNL     1      11.161   8.295  11.031  0.00  0.00    +0.100 C 
ATOM     15  C   UNL     1      12.240   8.783  12.005  0.00  0.00    +0.028 C 
ATOM     16  C   UNL     1      12.575  10.234  11.621  0.00  0.00    +0.002 C 
ATOM     17  C   UNL     1      11.641  10.602  10.441  0.00  0.00    +0.002 C 
ATOM     18  C   UNL     1      11.103   9.287   9.875  0.00  0.00    +0.028 C 
ENDBRANCH  13  14
BRANCH  10  11
ATOM     11  C   UNL     1      13.396   6.790   9.331  0.00  0.00    +0.047 C 
ATOM     12  C   UNL     1      12.755   6.510   7.981  0.00  0.00    +0.009 C 
ENDBRANCH  10  11
TORSDOF 6
