REMARK  Name = 4bi0_ligand
REMARK  0 active torsions:
REMARK  status: ('A' for Active; 'I' for Inactive)
REMARK                            x       y       z     vdW  Elec       q    Type
REMARK                         _______ _______ _______ _____ _____    ______ ____
ROOT
ATOM      1  C   UNL     1       1.575  45.309  16.469  0.00  0.00    +0.174 A 
ATOM      2  N   UNL     1       0.968  44.914  17.598  0.00  0.00    -0.277 NA
ATOM      3  C   UNL     1       0.153  43.844  17.533  0.00  0.00    +0.082 A 
ATOM      4  C   UNL     1      -0.701  43.048  18.420  0.00  0.00    +0.021 A 
ATOM      5  C   UNL     1      -1.318  42.036  17.650  0.00  0.00    +0.074 A 
ATOM      6  N   UNL     1      -0.890  42.133  16.339  0.00  0.00    -0.262 N 
ATOM      7  H   UNL     1      -1.182  41.520  15.565  0.00  0.00    +0.220 HD
ATOM      8  C   UNL     1      -2.164  41.093  18.235  0.00  0.00    +0.019 A 
ATOM      9  C   UNL     1      -2.374  41.155  19.606  0.00  0.00    -0.010 A 
ATOM     10  C   UNL     1      -1.760  42.137  20.378  0.00  0.00    -0.018 A 
ATOM     11  C   UNL     1      -0.928  43.082  19.796  0.00  0.00    -0.001 A 
ATOM     12  C   UNL     1      -0.004  43.191  16.240  0.00  0.00    +0.117 A 
ATOM     13  C   UNL     1       0.704  43.686  15.138  0.00  0.00    +0.138 A 
ATOM     14  N   UNL     1       1.496  44.763  15.254  0.00  0.00    -0.277 NA
ENDROOT
TORSDOF 0
