REMARK  Name = 3tkh_ligand
REMARK  4 active torsions:
REMARK  status: ('A' for Active; 'I' for Inactive)
REMARK    1  A    between atoms: C4_4  and  C11_7
REMARK    2  A    between atoms: C21_17  and  N26_19
REMARK    3  A    between atoms: N29_22  and  C40_25
REMARK    4  A    between atoms: C40_25  and  C41_26
REMARK                            x       y       z     vdW  Elec       q    Type
REMARK                         _______ _______ _______ _____ _____    ______ ____
ROOT
ATOM      5  C   UNL     1      14.759  -0.860  10.089  0.00  0.00    +0.051 A 
ATOM      6  C   UNL     1      14.913   0.345   9.436  0.00  0.00    +0.041 A 
ATOM      7  N   UNL     1      16.152   0.601   8.918  0.00  0.00    -0.302 NA
ATOM      8  C   UNL     1      16.978  -0.395   9.174  0.00  0.00    +0.208 A 
ATOM      9  N   UNL     1      18.277  -0.333   8.772  0.00  0.00    -0.222 N 
ATOM     10  H   UNL     1      18.570   0.518   8.271  0.00  0.00    +0.227 HD
ATOM     11  C   UNL     1      19.255  -1.318   8.976  0.00  0.00    +0.127 A 
ATOM     12  C   UNL     1      20.510  -1.055   8.453  0.00  0.00    +0.057 A 
ATOM     13  C   UNL     1      21.539  -1.976   8.592  0.00  0.00    +0.051 A 
ATOM     30  C   UNL     1      21.257  -3.143   9.275  0.00  0.00    +0.023 A 
ATOM     31  C   UNL     1      19.986  -3.334   9.764  0.00  0.00    +0.059 A 
ATOM     32  N   UNL     1      18.990  -2.455   9.628  0.00  0.00    -0.297 NA
ATOM     33  S   UNL     1      16.251  -1.711  10.030  0.00  0.00    +0.027 S 
ENDROOT
BRANCH  13  14
ATOM     14  N   UNL     1      22.853  -1.747   8.107  0.00  0.00    -0.293 N 
ATOM     15  C   UNL     1      23.074  -0.671   7.152  0.00  0.00    +0.184 C 
ATOM     16  C   UNL     1      24.429  -0.080   7.496  0.00  0.00    +0.158 C 
ATOM     17  N   UNL     1      25.471  -1.144   7.641  0.00  0.00    +0.255 N 
ATOM     18  H   UNL     1      25.629  -1.491   6.708  0.00  0.00    +0.205 HD
ATOM     28  C   UNL     1      25.140  -2.355   8.459  0.00  0.00    +0.158 C 
ATOM     29  C   UNL     1      23.769  -2.880   8.074  0.00  0.00    +0.184 C 
BRANCH  17  19
ATOM     19  C   UNL     1      26.746  -0.538   8.096  0.00  0.00    +0.271 C 
BRANCH  19  20
ATOM     20  C   UNL     1      27.772  -0.734   7.022  0.00  0.00    +0.224 C 
ATOM     21  O   UNL     1      27.565  -0.385   5.867  0.00  0.00    -0.391 OA
ATOM     22  N   UNL     1      28.930  -1.319   7.498  0.00  0.00    -0.265 N 
ATOM     23  C   UNL     1      29.002  -2.742   7.776  0.00  0.00    +0.167 C 
ATOM     24  C   UNL     1      29.819  -2.987   9.035  0.00  0.00    +0.184 C 
ATOM     25  O   UNL     1      31.085  -2.322   8.928  0.00  0.00    -0.376 OA
ATOM     26  C   UNL     1      30.935  -0.900   8.838  0.00  0.00    +0.184 C 
ATOM     27  C   UNL     1      30.150  -0.538   7.588  0.00  0.00    +0.167 C 
ENDBRANCH  19  20
ENDBRANCH  17  19
ENDBRANCH  13  14
BRANCH   5   4
ATOM      1  C   UNL     1      11.516  -2.147  12.352  0.00  0.00    +0.083 A 
ATOM      2  N   UNL     1      11.520  -0.880  11.908  0.00  0.00    -0.302 NA
ATOM      3  C   UNL     1      12.575  -0.524  11.160  0.00  0.00    +0.091 A 
ATOM      4  C   UNL     1      13.623  -1.365  10.841  0.00  0.00    +0.008 A 
ATOM     34  C   UNL     1      13.585  -2.662  11.327  0.00  0.00    +0.028 A 
ATOM     35  C   UNL     1      12.504  -3.073  12.086  0.00  0.00    +0.030 A 
ENDBRANCH   5   4
TORSDOF 4
