REMARK  Name = 4kzc_ligand
REMARK  5 active torsions:
REMARK  status: ('A' for Active; 'I' for Inactive)
REMARK    1  A    between atoms: C14_2  and  C12_5
REMARK    2  A    between atoms: C11_6  and  N4_7
REMARK    3  A    between atoms: C9_11  and  C5_12
REMARK    4  A    between atoms: C2_20  and  N_21
REMARK    5  A    between atoms: C1_22  and  C_24
REMARK                            x       y       z     vdW  Elec       q    Type
REMARK                         _______ _______ _______ _____ _____    ______ ____
ROOT
ATOM      6  C   UNL     1      23.646  12.317  23.372  0.00  0.00    +0.023 A 
ATOM      7  C   UNL     1      23.412  11.378  24.452  0.00  0.00    +0.006 A 
ATOM      8  C   UNL     1      22.227  11.264  25.092  0.00  0.00    +0.035 A 
ATOM      9  C   UNL     1      21.159  12.106  24.698  0.00  0.00    +0.127 A 
ATOM     10  N   UNL     1      19.894  12.148  25.112  0.00  0.00    -0.322 NA
ATOM     11  C   UNL     1      19.279  13.153  24.336  0.00  0.00    +0.095 A 
ATOM     17  C   UNL     1      20.201  13.740  23.442  0.00  0.00    +0.123 A 
ATOM     18  N   UNL     1      21.387  13.073  23.655  0.00  0.00    -0.221 N 
ATOM     19  C   UNL     1      22.612  13.182  23.007  0.00  0.00    +0.206 A 
ENDROOT
BRANCH   6   5
ATOM      3  C   UNL     1      26.280  12.927  20.715  0.00  0.00    +0.088 A 
ATOM      4  C   UNL     1      25.096  13.006  21.447  0.00  0.00    +0.066 A 
ATOM      5  C   UNL     1      24.969  12.365  22.678  0.00  0.00    +0.021 A 
ATOM     20  C   UNL     1      26.067  11.661  23.156  0.00  0.00    +0.132 A 
ATOM     21  N   UNL     1      27.240  11.576  22.515  0.00  0.00    -0.247 NA
ATOM     22  C   UNL     1      27.392  12.187  21.317  0.00  0.00    +0.147 A 
BRANCH   3   2
ATOM      1  F   UNL     1      25.136  13.358  18.692  0.00  0.00    -0.232 F 
ATOM      2  C   UNL     1      26.274  13.565  19.351  0.00  0.00    +0.370 C 
ATOM     26  F   UNL     1      27.222  13.081  18.558  0.00  0.00    -0.232 F 
ATOM     27  F   UNL     1      26.464  14.880  19.402  0.00  0.00    -0.232 F 
ENDBRANCH   3   2
BRANCH  22  23
ATOM     23  N   UNL     1      28.587  12.117  20.724  0.00  0.00    -0.301 N 
ATOM     24  H   UNL     1      28.743  12.590  19.822  0.00  0.00    +0.193 HD
ATOM     25  H   UNL     1      29.352  11.590  21.168  0.00  0.00    +0.193 HD
ENDBRANCH  22  23
ENDBRANCH   6   5
BRANCH  11  12
ATOM     12  N   UNL     1      17.920  13.381  24.540  0.00  0.00    -0.241 N 
ATOM     13  H   UNL     1      17.469  12.750  25.171  0.00  0.00    +0.220 HD
ATOM     14  C   UNL     1      17.115  14.347  23.998  0.00  0.00    +0.196 C 
ATOM     15  C   UNL     1      15.666  14.263  24.374  0.00  0.00    +0.172 C 
ATOM     16  O   UNL     1      17.557  15.253  23.298  0.00  0.00    -0.387 OA
ENDBRANCH  11  12
TORSDOF 4
