REMARK  Name = 3nw7_ligand
REMARK  5 active torsions:
REMARK  status: ('A' for Active; 'I' for Inactive)
REMARK    1  A    between atoms: C8_8  and  C15_15
REMARK    2  A    between atoms: C10_10  and  C18_18
REMARK    3  A    between atoms: C11_11  and  N26_26
REMARK    4  A    between atoms: C14_14  and  C19_19
REMARK    5  A    between atoms: C19_19  and  N27_27
REMARK                            x       y       z     vdW  Elec       q    Type
REMARK                         _______ _______ _______ _____ _____    ______ ____
ROOT
ATOM      1  C   UNL     1     -17.457   8.933  11.308  0.00  0.00    -0.045 A 
ATOM      2  C   UNL     1     -16.749   8.369  10.264  0.00  0.00    +0.130 A 
ATOM      3  N   UNL     1     -16.827   7.011  10.394  0.00  0.00    -0.175 N 
ATOM      4  N   UNL     1     -16.263   6.091   9.567  0.00  0.00    -0.174 NA
ATOM      5  C   UNL     1     -16.497   4.865   9.918  0.00  0.00    +0.115 A 
ATOM      6  N   UNL     1     -17.226   4.457  11.009  0.00  0.00    -0.265 NA
ATOM      7  C   UNL     1     -17.788   5.307  11.833  0.00  0.00    +0.176 A 
ATOM      8  N   UNL     1     -18.537   4.938  12.947  0.00  0.00    -0.219 N 
ATOM      9  H   UNL     1     -18.949   5.704  13.499  0.00  0.00    +0.226 HD
ATOM     31  C   UNL     1     -17.577   6.697  11.507  0.00  0.00    +0.145 A 
ATOM     32  C   UNL     1     -17.982   7.873  12.095  0.00  0.00    -0.032 A 
ENDROOT
BRANCH   8  10
ATOM     10  C   UNL     1     -18.785   3.665  13.388  0.00  0.00    +0.176 A 
ATOM     11  N   UNL     1     -19.392   3.425  14.562  0.00  0.00    -0.210 N 
ATOM     12  H   UNL     1     -19.728   4.124  15.240  0.00  0.00    +0.247 HD
ATOM     13  N   UNL     1     -19.472   2.082  14.674  0.00  0.00    -0.251 NA
ATOM     14  C   UNL     1     -18.933   1.443  13.605  0.00  0.00    -0.009 A 
ATOM     18  C   UNL     1     -18.474   2.429  12.746  0.00  0.00    -0.008 A 
BRANCH  14  15
ATOM     15  C   UNL     1     -18.868  -0.076  13.428  0.00  0.00    +0.036 C 
ATOM     16  C   UNL     1     -19.818  -0.717  12.447  0.00  0.00    +0.018 C 
ATOM     17  C   UNL     1     -18.344  -0.704  12.166  0.00  0.00    +0.018 C 
ENDBRANCH  14  15
ENDBRANCH   8  10
BRANCH   5  19
ATOM     19  C   UNL     1     -15.932   3.726   9.106  0.00  0.00    +0.240 C 
BRANCH  19  20
ATOM     20  N   UNL     1     -14.947   3.104   9.967  0.00  0.00    -0.270 N 
ATOM     21  H   UNL     1     -14.034   3.507  10.027  0.00  0.00    +0.188 HD
ATOM     22  C   UNL     1     -15.227   1.980  10.703  0.00  0.00    +0.210 C 
ATOM     23  O   UNL     1     -16.305   1.397  10.682  0.00  0.00    -0.385 OA
BRANCH  22  24
ATOM     24  C   UNL     1     -14.146   1.496  11.600  0.00  0.00    +0.070 A 
ATOM     25  C   UNL     1     -14.444   0.406  12.409  0.00  0.00    +0.112 A 
ATOM     26  N   UNL     1     -13.582  -0.138  13.280  0.00  0.00    -0.258 NA
ATOM     27  C   UNL     1     -12.363   0.436  13.354  0.00  0.00    +0.218 A 
ATOM     28  F   UNL     1     -11.510  -0.109  14.223  0.00  0.00    -0.150 F 
ATOM     29  C   UNL     1     -11.954   1.521  12.609  0.00  0.00    +0.077 A 
ATOM     30  C   UNL     1     -12.869   2.072  11.707  0.00  0.00    +0.050 A 
ENDBRANCH  22  24
ENDBRANCH  19  20
ENDBRANCH   5  19
TORSDOF 5
