REMARK  Name = 4bch_ligand
REMARK  8 active torsions:
REMARK  status: ('A' for Active; 'I' for Inactive)
REMARK    1  A    between atoms: C01_1  and  N02_2
REMARK    2  A    between atoms: C05_5  and  C06_6
REMARK    3  A    between atoms: C07_7  and  C08_8
REMARK    4  A    between atoms: N11_11  and  C12_12
REMARK    5  A    between atoms: C14_14  and  S15_15
REMARK    6  A    between atoms: S15_15  and  N16_16
REMARK    7  A    between atoms: C24_24  and  C25_25
REMARK    8  A    between atoms: C30_30  and  C31_31
REMARK                            x       y       z     vdW  Elec       q    Type
REMARK                         _______ _______ _______ _____ _____    ______ ____
ROOT
ATOM      7  C   UNL     1      54.185 -15.349 -12.658  0.00  0.00    +0.069 A 
ATOM      8  C   UNL     1      53.993 -13.982 -12.627  0.00  0.00    +0.120 A 
ATOM     11  C   UNL     1      55.163 -13.170 -12.617  0.00  0.00    +0.132 A 
ATOM     12  N   UNL     1      56.398 -13.740 -12.644  0.00  0.00    -0.254 NA
ATOM     13  C   UNL     1      56.530 -15.080 -12.662  0.00  0.00    +0.201 A 
ATOM     14  N   UNL     1      57.858 -15.651 -12.656  0.00  0.00    -0.243 N 
ATOM     15  H   UNL     1      58.642 -15.033 -12.908  0.00  0.00    +0.219 HD
ATOM     32  N   UNL     1      55.436 -15.887 -12.692  0.00  0.00    -0.258 NA
ENDROOT
BRANCH   7   6
ATOM      1  C   UNL     1      49.351 -19.201 -11.330  0.00  0.00    +0.175 C 
ATOM      2  N   UNL     1      50.619 -19.277 -11.954  0.00  0.00    -0.280 N 
ATOM      3  H   UNL     1      51.061 -20.196 -12.097  0.00  0.00    +0.195 HD
ATOM      4  C   UNL     1      51.305 -18.077 -12.395  0.00  0.00    +0.193 A 
ATOM      5  S   UNL     1      52.773 -17.595 -11.828  0.00  0.00    +0.021 S 
ATOM      6  C   UNL     1      52.973 -16.258 -12.699  0.00  0.00    +0.069 A 
ATOM     33  C   UNL     1      51.833 -16.072 -13.563  0.00  0.00    +0.011 A 
ATOM     34  C   UNL     1      51.605 -14.938 -14.519  0.00  0.00    +0.107 C 
ATOM     35  N   UNL     1      50.838 -17.170 -13.377  0.00  0.00    -0.286 NA
ENDBRANCH   7   6
BRANCH  14  16
ATOM     16  C   UNL     1      58.175 -17.042 -12.319  0.00  0.00    +0.063 A 
ATOM     17  C   UNL     1      59.499 -17.447 -12.055  0.00  0.00    +0.009 A 
ATOM     18  C   UNL     1      59.816 -18.799 -11.755  0.00  0.00    -0.014 A 
ATOM     19  C   UNL     1      58.796 -19.737 -11.732  0.00  0.00    -0.030 A 
ATOM     20  C   UNL     1      59.141 -21.150 -11.421  0.00  0.00    +0.077 C 
ATOM     21  C   UNL     1      57.472 -19.350 -12.023  0.00  0.00    +0.101 A 
ATOM     31  C   UNL     1      57.169 -17.996 -12.313  0.00  0.00    +0.037 A 
BRANCH  21  22
ATOM     22  S   UNL     1      56.126 -20.555 -12.012  0.00  0.00    +0.066 S 
ATOM     23  O   UNL     1      55.821 -21.058 -13.330  0.00  0.00    -0.151 OA
ATOM     24  O   UNL     1      54.943 -19.959 -11.479  0.00  0.00    -0.151 OA
BRANCH  22  25
ATOM     25  N   UNL     1      56.596 -21.760 -11.007  0.00  0.00    -0.231 NA
ATOM     26  C   UNL     1      57.298 -22.832 -11.450  0.00  0.00    +0.153 C 
ATOM     27  C   UNL     1      56.471 -24.082 -11.372  0.00  0.00    +0.180 C 
ATOM     28  O   UNL     1      55.636 -24.221 -10.162  0.00  0.00    -0.377 OA
ATOM     29  C   UNL     1      54.925 -22.976  -9.867  0.00  0.00    +0.180 C 
ATOM     30  C   UNL     1      55.836 -21.772  -9.885  0.00  0.00    +0.153 C 
ENDBRANCH  22  25
ENDBRANCH  21  22
ENDBRANCH  14  16
BRANCH   8   9
ATOM      9  C   UNL     1      52.619 -13.426 -12.560  0.00  0.00    +0.089 C 
ATOM     10  N   UNL     1      51.535 -12.994 -12.514  0.00  0.00    -0.343 NA
ENDBRANCH   8   9
TORSDOF 5
