REMARK  Name = 3kac_ligand
REMARK  3 active torsions:
REMARK  status: ('A' for Active; 'I' for Inactive)
REMARK    1  A    between atoms: C9_9  and  C10_10
REMARK    2  A    between atoms: C10_10  and  C11_11
REMARK    3  A    between atoms: C11_11  and  C12_12
REMARK                            x       y       z     vdW  Elec       q    Type
REMARK                         _______ _______ _______ _____ _____    ______ ____
ROOT
ATOM      1  C   UNL     1      43.909   5.971  -3.408  0.00  0.00    -0.024 A 
ATOM      2  C   UNL     1      43.241   4.758  -3.525  0.00  0.00    +0.012 A 
ATOM      3  C   UNL     1      43.446   3.762  -2.578  0.00  0.00    +0.078 A 
ATOM      4  C   UNL     1      44.314   3.976  -1.519  0.00  0.00    +0.021 A 
ATOM      5  N   UNL     1      44.314   2.871  -0.782  0.00  0.00    -0.318 NA
ATOM      6  C   UNL     1      43.484   1.992  -1.344  0.00  0.00    +0.122 A 
ATOM     12  C   UNL     1      44.983   5.188  -1.399  0.00  0.00    -0.012 A 
ATOM     13  N   UNL     1      42.954   2.535  -2.440  0.00  0.00    -0.246 N 
ATOM     14  H   UNL     1      42.279   2.081  -3.072  0.00  0.00    +0.232 HD
ATOM     15  C   UNL     1      44.780   6.186  -2.345  0.00  0.00    -0.027 A 
ENDROOT
BRANCH   6   7
ATOM      7  C   UNL     1      43.188   0.586  -0.817  0.00  0.00    +0.152 C 
BRANCH   7   8
ATOM      8  C   UNL     1      43.677  -0.481  -1.798  0.00  0.00    +0.110 C 
BRANCH   8   9
ATOM      9  C   UNL     1      42.971  -1.816  -1.553  0.00  0.00    +0.038 C 
ATOM     10  O   UNL     1      43.062  -2.377  -0.462  0.00  0.00    -0.569 OA
ATOM     11  O   UNL     1      42.306  -2.342  -2.443  0.00  0.00    -0.569 OA
ENDBRANCH   8   9
ENDBRANCH   7   8
ENDBRANCH   6   7
TORSDOF 3
