REMARK  Name = 2xpb_ligand
REMARK  6 active torsions:
REMARK  status: ('A' for Active; 'I' for Inactive)
REMARK    1  A    between atoms: C4_7  and  C7_8
REMARK    2  A    between atoms: C10_11  and  C13_12
REMARK    3  A    between atoms: C9_15  and  C16_16
REMARK    4  A    between atoms: N17_18  and  C21_19
REMARK    5  A    between atoms: N17_18  and  C19_20
REMARK    6  A    between atoms: C19_20  and  C20_21
REMARK                            x       y       z     vdW  Elec       q    Type
REMARK                         _______ _______ _______ _____ _____    ______ ____
ROOT
ATOM      3  C   UNL     1      39.248 -15.842  11.488  0.00  0.00    +0.144 A 
ATOM      4  N   UNL     1      38.834 -14.997  10.489  0.00  0.00    -0.242 N 
ATOM      5  H   UNL     1      38.371 -15.274   9.612  0.00  0.00    +0.242 HD
ATOM      6  CA  UNL     1      39.144 -13.738  10.864  0.00  0.00    +0.134 A 
ATOM      7  C   UNL     1      39.739 -13.814  12.138  0.00  0.00    +0.111 A 
ATOM     22  N   UNL     1      39.783 -15.115  12.482  0.00  0.00    -0.297 NA
ENDROOT
BRANCH   3   2
ATOM      1  C   UNL     1      39.407 -17.847  12.785  0.00  0.00    +0.031 A 
ATOM      2  C   UNL     1      39.176 -17.224  11.563  0.00  0.00    +0.030 A 
ATOM     23  C   UNL     1      38.951 -18.002  10.438  0.00  0.00    +0.017 A 
ATOM     24  C   UNL     1      38.892 -19.397  10.526  0.00  0.00    +0.003 A 
ATOM     25  C   UNL     1      39.091 -20.012  11.775  0.00  0.00    +0.017 A 
ATOM     26  C   UNL     1      39.347 -19.238  12.910  0.00  0.00    +0.043 A 
ATOM     27 CL   UNL     1      39.656 -20.007  14.454  0.00  0.00    -0.070 Cl
ENDBRANCH   3   2
BRANCH   7   8
ATOM      8  C   UNL     1      40.311 -12.747  13.135  0.00  0.00    +0.203 C 
ATOM      9  N   UNL     1      41.654 -12.715  13.311  0.00  0.00    -0.267 N 
ATOM     17  C   UNL     1      42.521 -13.596  12.453  0.00  0.00    +0.170 C 
ATOM     18  O   UNL     1      39.550 -12.073  13.825  0.00  0.00    -0.394 OA
BRANCH   9  10
ATOM     10  C   UNL     1      42.228 -11.812  14.356  0.00  0.00    +0.203 C 
BRANCH  10  11
ATOM     11  C   UNL     1      42.965 -12.719  15.392  0.00  0.00    -0.021 A 
ATOM     12  C   UNL     1      44.346 -12.582  15.617  0.00  0.00    -0.003 A 
ATOM     13  C   UNL     1      45.013 -13.418  16.539  0.00  0.00    -0.009 A 
ATOM     14  C   UNL     1      44.301 -14.407  17.249  0.00  0.00    -0.013 A 
ATOM     15  C   UNL     1      42.929 -14.540  17.023  0.00  0.00    -0.009 A 
ATOM     16  C   UNL     1      42.270 -13.717  16.098  0.00  0.00    -0.003 A 
ENDBRANCH  10  11
ENDBRANCH   9  10
ENDBRANCH   7   8
BRANCH   6  19
ATOM     19  C   UNL     1      38.866 -12.465   9.988  0.00  0.00    +0.094 C 
ATOM     20  OXT UNL     1      39.070 -11.320  10.450  0.00  0.00    -0.558 OA
ATOM     21  O   UNL     1      38.426 -12.599   8.830  0.00  0.00    -0.558 OA
ENDBRANCH   6  19
TORSDOF 5
