REMARK  Name = 1K0
REMARK  6 active torsions:
REMARK  status: ('A' for Active; 'I' for Inactive)
REMARK    1  A    between atoms: O1_1  and  C2_3
REMARK    2  A    between atoms: C4_5  and  O2_8
REMARK    3  A    between atoms: O3_10  and  C13_20
REMARK    4  A    between atoms: O3_10  and  C14_21
REMARK    5  A    between atoms: C8_13  and  C9_16
REMARK    6  A    between atoms: C14_21  and  C15_22
REMARK                            x       y       z     vdW  Elec       q    Type
REMARK                         _______ _______ _______ _____ _____    ______ ____
ROOT
ATOM      2  C   UNL     1      29.061  15.990   0.005  0.00  0.00    +0.143 A 
ATOM      3  C   UNL     1      29.832  16.906   0.691  0.00  0.00    +0.074 A 
ATOM      4  C   UNL     1      31.158  17.089   0.310  0.00  0.00    +0.148 A 
ATOM      7  C   UNL     1      31.727  16.349  -0.728  0.00  0.00    +0.110 A 
ATOM      8  C   UNL     1      33.127  16.565  -1.118  0.00  0.00    +0.285 A 
ATOM      9  O   UNL     1      33.961  17.334  -0.619  0.00  0.00    -0.265 OA
ATOM     10  N   UNL     1      33.543  15.743  -2.228  0.00  0.00    -0.189 NA
ATOM     11  C   UNL     1      32.693  14.844  -2.861  0.00  0.00    +0.165 A 
ATOM     12  N   UNL     1      31.423  14.623  -2.499  0.00  0.00    -0.226 NA
ATOM     25  C   UNL     1      30.950  15.396  -1.411  0.00  0.00    +0.094 A 
ATOM     26  C   UNL     1      29.600  15.190  -1.046  0.00  0.00    +0.056 A 
ENDROOT
BRANCH  11  13
ATOM     13  C   UNL     1      33.274  13.998  -3.981  0.00  0.00    +0.035 A 
ATOM     14  C   UNL     1      34.657  13.955  -4.122  0.00  0.00    +0.002 A 
ATOM     15  C   UNL     1      35.253  13.086  -5.044  0.00  0.00    +0.012 A 
ATOM     16  C   UNL     1      36.762  13.061  -5.153  0.00  0.00    +0.034 C 
ATOM     17  C   UNL     1      34.455  12.261  -5.785  0.00  0.00    +0.131 A 
ATOM     18  C   UNL     1      33.044  12.260  -5.683  0.00  0.00    +0.012 A 
ATOM     19  C   UNL     1      32.209  11.279  -6.474  0.00  0.00    +0.034 C 
ATOM     24  C   UNL     1      32.437  13.160  -4.774  0.00  0.00    +0.002 A 
BRANCH  17  20
ATOM     20  O   UNL     1      35.083  11.314  -6.585  0.00  0.00    -0.473 OA
BRANCH  20  21
ATOM     21  C   UNL     1      35.173  10.058  -5.876  0.00  0.00    +0.241 C 
BRANCH  21  22
ATOM     22  C   UNL     1      36.645   9.607  -6.075  0.00  0.00    +0.229 C 
ATOM     23  O   UNL     1      36.609   8.922  -7.305  0.00  0.00    -0.216 OA
ENDBRANCH  21  22
ENDBRANCH  20  21
ENDBRANCH  17  20
ENDBRANCH  11  13
BRANCH   2   1
ATOM      1  O   UNL     1      27.713  15.849   0.355  0.00  0.00    -0.471 OA
ATOM     27  C   UNL     1      26.946  14.933  -0.455  0.00  0.00    +0.253 C 
ENDBRANCH   2   1
BRANCH   4   5
ATOM      5  O   UNL     1      31.944  18.011   0.971  0.00  0.00    -0.471 OA
ATOM      6  C   UNL     1      31.324  19.011   1.889  0.00  0.00    +0.253 C 
ENDBRANCH   4   5
TORSDOF 6
