REMARK  Name = 5FTO
REMARK  7 active torsions:
REMARK  status: ('A' for Active; 'I' for Inactive)
REMARK    1  A    between atoms: C_6  and  N_7
REMARK    2  A    between atoms: N_7  and  C_8
REMARK    3  A    between atoms: C_10  and  N_11
REMARK    4  A    between atoms: N_14  and  C_15
REMARK    5  A    between atoms: C_20  and  C_21
REMARK    6  A    between atoms: C_32  and  C_33
REMARK    7  A    between atoms: C_33  and  C_34
REMARK                            x       y       z     vdW  Elec       q    Type
REMARK                         _______ _______ _______ _____ _____    ______ ____
ROOT
ATOM      7  C   UNL     1       2.856  18.340   7.405  0.00  0.00    +0.251 C 
ATOM      8  N   UNL     1       2.403  17.864   8.561  0.00  0.00    -0.264 N 
ATOM      9  H   UNL     1       1.669  18.447   9.077  0.00  0.00    +0.157 HD
ATOM     10  C   UNL     1       2.787  16.720   9.133  0.00  0.00    +0.155 A 
ATOM     11  N   UNL     1       1.941  16.126   9.886  0.00  0.00    -0.157 NA
ATOM     12  N   UNL     1       2.500  15.065  10.380  0.00  0.00    -0.275 N 
ATOM     13  H   UNL     1       2.011  14.359  11.019  0.00  0.00    +0.189 HD
ATOM     14  C   UNL     1       3.716  14.980   9.998  0.00  0.00    +0.068 A 
ATOM     15  C   UNL     1       4.653  14.077  10.244  0.00  0.00    +0.028 A 
ATOM     16  C   UNL     1       5.912  14.203   9.715  0.00  0.00    +0.006 A 
ATOM     17  C   UNL     1       6.157  15.282   8.897  0.00  0.00    -0.042 A 
ATOM     27  C   UNL     1       5.127  16.165   8.672  0.00  0.00    +0.017 A 
ATOM     28  C   UNL     1       3.935  16.020   9.214  0.00  0.00    +0.042 A 
ATOM     29  O   UNL     1       3.518  17.698   6.639  0.00  0.00    -0.270 OA
ENDROOT
BRANCH   7   6
ATOM      5  C   UNL     1       3.101  20.561   6.280  0.00  0.00    +0.041 A 
ATOM      6  C   UNL     1       2.406  19.636   7.063  0.00  0.00    +0.058 A 
ATOM     30  C   UNL     1       1.185  20.076   7.474  0.00  0.00    +0.017 A 
ATOM     31  C   UNL     1       0.672  21.293   7.200  0.00  0.00    +0.024 A 
ATOM     32  C   UNL     1       1.389  22.182   6.451  0.00  0.00    +0.032 A 
ATOM     40  C   UNL     1       2.596  21.800   5.972  0.00  0.00    +0.047 A 
BRANCH  32  33
ATOM     33  N   UNL     1       0.851  23.333   6.170  0.00  0.00    -0.327 N 
ATOM     34  C   UNL     1       0.702  24.186   7.292  0.00  0.00    +0.120 C 
ATOM     35  C   UNL     1      -0.146  25.295   6.837  0.00  0.00    +0.103 C 
ATOM     36  N   UNL     1       0.642  26.137   6.019  0.00  0.00    -0.302 NA
ATOM     37  C   UNL     1      -0.170  27.274   5.790  0.00  0.00    +0.105 C 
ATOM     38  C   UNL     1       0.876  25.360   4.849  0.00  0.00    +0.103 C 
ATOM     39  C   UNL     1       1.594  24.101   5.214  0.00  0.00    +0.120 C 
ENDBRANCH  32  33
BRANCH   5   3
ATOM      3  N   UNL     1       4.267  20.214   5.820  0.00  0.00    -0.340 N 
ATOM      4  H   UNL     1       4.572  19.195   5.932  0.00  0.00    +0.146 HD
BRANCH   3   2
ATOM      1  C   UNL     1       6.346  21.177   5.983  0.00  0.00    +0.050 C 
ATOM      2  C   UNL     1       5.158  21.113   5.177  0.00  0.00    +0.075 C 
ATOM     41  C   UNL     1       5.582  20.506   3.940  0.00  0.00    +0.050 C 
ATOM     42  C   UNL     1       6.779  21.268   3.380  0.00  0.00    +0.161 C 
ATOM     43  O   UNL     1       7.825  21.371   4.286  0.00  0.00    -0.380 OA
ATOM     44  C   UNL     1       7.318  22.038   5.298  0.00  0.00    +0.161 C 
ENDBRANCH   3   2
ENDBRANCH   5   3
ENDBRANCH   7   6
BRANCH  17  18
ATOM     18  C   UNL     1       7.413  15.474   8.356  0.00  0.00    +0.070 C 
BRANCH  18  19
ATOM     19  C   UNL     1       8.022  16.618   8.900  0.00  0.00    -0.038 A 
ATOM     20  C   UNL     1       8.494  16.651  10.214  0.00  0.00    +0.042 A 
ATOM     21  C   UNL     1       9.108  17.732  10.795  0.00  0.00    +0.126 A 
ATOM     22  F   UNL     1       9.448  17.691  11.766  0.00  0.00    -0.205 F 
ATOM     23  C   UNL     1       9.229  18.862  10.011  0.00  0.00    +0.076 A 
ATOM     24  C   UNL     1       8.769  18.890   8.700  0.00  0.00    +0.126 A 
ATOM     25  F   UNL     1       8.861  19.755   8.105  0.00  0.00    -0.205 F 
ATOM     26  C   UNL     1       8.168  17.768   8.148  0.00  0.00    +0.042 A 
ENDBRANCH  18  19
ENDBRANCH  17  18
TORSDOF 6
