REMARK  Name = 31P
REMARK  6 active torsions:
REMARK  status: ('A' for Active; 'I' for Inactive)
REMARK    1  A    between atoms: OAU_2  and  CAT_3
REMARK    2  A    between atoms: CAT_3  and  CAS_5
REMARK    3  A    between atoms: CAS_5  and  CBD_6
REMARK    4  A    between atoms: CAS_5  and  CAI_8
REMARK    5  A    between atoms: CAB_19  and  OAL_20
REMARK    6  A    between atoms: CAG_24  and  CAQ_25
REMARK                            x       y       z     vdW  Elec       q    Type
REMARK                         _______ _______ _______ _____ _____    ______ ____
ROOT
ATOM      5  C   UNL     1      25.988  -4.730 -31.549  0.00  0.00    +0.172 C 
ATOM      6  C   UNL     1      24.841  -4.540 -30.629  0.00  0.00    +0.170 A 
ATOM      7  N   UNL     1      25.088  -4.037 -29.303  0.00  0.00    -0.279 N 
ATOM      8  C   UNL     1      23.810  -4.030 -28.670  0.00  0.00    +0.147 A 
ATOM      9  C   UNL     1      23.503  -3.602 -27.256  0.00  0.00    +0.074 C 
ATOM     10  N   UNL     1      22.856  -4.488 -29.541  0.00  0.00    -0.133 NA
ATOM     11  C   UNL     1      26.344  -3.656 -28.731  0.00  0.00    +0.068 A 
ATOM     12  C   UNL     1      26.354  -2.509 -27.879  0.00  0.00    +0.021 A 
ATOM     13  C   UNL     1      27.509  -2.014 -27.240  0.00  0.00    +0.038 A 
ATOM     14  C   UNL     1      28.746  -2.690 -27.452  0.00  0.00    +0.139 A 
ATOM     17  C   UNL     1      28.716  -3.845 -28.311  0.00  0.00    +0.040 A 
ATOM     18  C   UNL     1      27.558  -4.354 -28.970  0.00  0.00    +0.036 A 
ATOM     19  C   UNL     1      27.662  -5.519 -29.846  0.00  0.00    +0.078 C 
ATOM     27  N   UNL     1      23.459  -4.819 -30.741  0.00  0.00    -0.131 NA
ATOM     28  N   UNL     1      27.015  -5.610 -31.008  0.00  0.00    -0.264 NA
ENDROOT
BRANCH  19  20
ATOM     20  C   UNL     1      28.302  -6.760 -29.361  0.00  0.00    +0.017 A 
ATOM     21  C   UNL     1      28.469  -7.060 -27.994  0.00  0.00    +0.002 A 
ATOM     22  C   UNL     1      29.074  -8.204 -27.518  0.00  0.00    +0.011 A 
ATOM     23  C   UNL     1      29.579  -9.114 -28.453  0.00  0.00    +0.058 A 
ATOM     24 CL   UNL     1      30.321 -10.528 -27.936  0.00  0.00    -0.082 Cl
ATOM     25  C   UNL     1      29.466  -8.874 -29.839  0.00  0.00    +0.011 A 
ATOM     26  C   UNL     1      28.837  -7.711 -30.282  0.00  0.00    +0.002 A 
ENDBRANCH  19  20
BRANCH  14  15
ATOM     15  O   UNL     1      29.945  -2.287 -26.848  0.00  0.00    -0.471 OA
ATOM     16  C   UNL     1      29.934  -1.125 -25.976  0.00  0.00    +0.253 C 
ENDBRANCH  14  15
BRANCH   5   4
ATOM      4  C   UNL     1      25.641  -4.907 -33.103  0.00  0.00    +0.129 C 
BRANCH   4   3
ATOM      3  C   UNL     1      26.956  -5.044 -33.878  0.00  0.00    +0.319 C 
ATOM     31  O   UNL     1      27.089  -5.603 -34.938  0.00  0.00    -0.250 OA
BRANCH   3   2
ATOM      1  C   UNL     1      29.343  -4.563 -33.978  0.00  0.00    +0.256 C 
ATOM      2  O   UNL     1      28.079  -4.440 -33.265  0.00  0.00    -0.444 OA
ENDBRANCH   3   2
ENDBRANCH   4   3
BRANCH   4  29
ATOM     29  C   UNL     1      24.863  -3.663 -33.709  0.00  0.00    +0.014 C 
ATOM     30  C   UNL     1      25.481  -2.275 -33.342  0.00  0.00    +0.001 C 
ENDBRANCH   4  29
ENDBRANCH   5   4
TORSDOF 6
