REMARK  Name = 4NO7
REMARK  7 active torsions:
REMARK  status: ('A' for Active; 'I' for Inactive)
REMARK    1  A    between atoms: S_2  and  C_4
REMARK    2  A    between atoms: S_2  and  C_5
REMARK    3  A    between atoms: C_11  and  C_12
REMARK    4  A    between atoms: C_12  and  C_13
REMARK    5  A    between atoms: C_12  and  C_20
REMARK    6  A    between atoms: C_13  and  C_14
REMARK    7  A    between atoms: C_20  and  N_22
REMARK                            x       y       z     vdW  Elec       q    Type
REMARK                         _______ _______ _______ _____ _____    ______ ____
ROOT
ATOM      7  C   UNL     1      -9.421   2.728  20.716  0.00  0.00    +0.107 C 
ENDROOT
BRANCH   7   6
ATOM      3  C   UNL     1      -6.456   5.139  18.507  0.00  0.00    +0.106 A 
ATOM      4  C   UNL     1      -7.434   4.407  17.883  0.00  0.00    +0.066 A 
ATOM      5  C   UNL     1      -8.380   3.670  18.581  0.00  0.00    +0.026 A 
ATOM      6  C   UNL     1      -8.449   3.598  19.954  0.00  0.00    -0.034 A 
ATOM     25  C   UNL     1      -7.606   4.413  20.471  0.00  0.00    +0.006 A 
ATOM     26 CL   UNL     1      -7.556   4.353  16.124  0.00  0.00    -0.082 Cl
ATOM     27  C   UNL     1      -6.486   4.905  19.770  0.00  0.00    +0.029 A 
BRANCH   3   2
ATOM      1  O   UNL     1      -6.039   6.877  16.766  0.00  0.00    -0.170 OA
ATOM      2  S   UNL     1      -5.413   6.083  17.776  0.00  0.00    -0.004 S 
ATOM     28  C   UNL     1      -4.698   7.118  18.849  0.00  0.00    +0.200 C 
ATOM     29  O   UNL     1      -4.417   5.232  17.183  0.00  0.00    -0.170 OA
ENDBRANCH   3   2
ENDBRANCH   7   6
BRANCH   7   8
ATOM      8  C   UNL     1      -9.004   1.293  20.656  0.00  0.00    +0.245 C 
ATOM     17  O   UNL     1      -8.473   0.887  19.635  0.00  0.00    -0.273 OA
BRANCH   8   9
ATOM      9  N   UNL     1      -9.257   0.575  21.757  0.00  0.00    -0.161 NA
ATOM     10  C   UNL     1      -8.973  -0.738  21.968  0.00  0.00    +0.142 C 
ATOM     11  C   UNL     1      -8.335  -1.545  21.025  0.00  0.00    +0.154 C 
ATOM     12  N   UNL     1      -8.078  -2.834  21.288  0.00  0.00    -0.258 NA
ATOM     13  C   UNL     1      -8.416  -3.376  22.456  0.00  0.00    +0.128 C 
ATOM     14  C   UNL     1      -9.063  -2.580  23.407  0.00  0.00    +0.104 C 
ATOM     15  N   UNL     1      -9.336  -1.290  23.140  0.00  0.00    -0.345 N 
ATOM     16  H   UNL     1      -9.848  -0.696  23.868  0.00  0.00    +0.167 HD
ENDBRANCH   8   9
ENDBRANCH   7   8
BRANCH   7  18
ATOM     18  C   UNL     1     -10.853   2.880  20.202  0.00  0.00    +0.021 C 
BRANCH  18  19
ATOM     19  C   UNL     1     -11.343   4.318  20.199  0.00  0.00    -0.003 C 
ATOM     20  C   UNL     1     -11.562   4.841  21.620  0.00  0.00    +0.077 C 
ATOM     21  C   UNL     1     -12.732   5.759  21.444  0.00  0.00    +0.134 C 
ATOM     22  O   UNL     1     -13.058   6.585  22.280  0.00  0.00    -0.297 OA
ATOM     23  C   UNL     1     -13.484   5.553  20.156  0.00  0.00    +0.075 C 
ATOM     24  C   UNL     1     -12.693   4.428  19.485  0.00  0.00    +0.011 C 
ENDBRANCH  18  19
ENDBRANCH   7  18
TORSDOF 6
