REMARK  Name = 5AJW
REMARK  9 active torsions:
REMARK  status: ('A' for Active; 'I' for Inactive)
REMARK    1  A    between atoms: C_2  and  C_3
REMARK    2  A    between atoms: C_3  and  N_4
REMARK    3  A    between atoms: N_5  and  C_6
REMARK    4  A    between atoms: C_11  and  O_12
REMARK    5  A    between atoms: O_12  and  C_13
REMARK    6  A    between atoms: C_19  and  C_20
REMARK    7  A    between atoms: C_22  and  N_23
REMARK    8  A    between atoms: N_24  and  C_25
REMARK    9  A    between atoms: C_25  and  C_26
REMARK                            x       y       z     vdW  Elec       q    Type
REMARK                         _______ _______ _______ _____ _____    ______ ____
ROOT
ATOM     10  C   UNL     1     -41.642 -38.153 -13.098  0.00  0.00    +0.129 A 
ATOM     11  C   UNL     1     -42.589 -39.159 -12.929  0.00  0.00    +0.057 A 
ATOM     12  C   UNL     1     -42.196 -40.380 -12.377  0.00  0.00    +0.023 A 
ATOM     13  C   UNL     1     -42.868 -41.608 -12.056  0.00  0.00    +0.099 A 
ATOM     14  C   UNL     1     -41.939 -42.479 -11.473  0.00  0.00    +0.115 A 
ATOM     15  N   UNL     1     -40.724 -41.837 -11.430  0.00  0.00    -0.324 N 
ATOM     28  C   UNL     1     -40.854 -40.567 -12.012  0.00  0.00    +0.052 A 
ATOM     29  C   UNL     1     -39.909 -39.564 -12.212  0.00  0.00    +0.030 A 
ATOM     30  C   UNL     1     -40.311 -38.354 -12.752  0.00  0.00    +0.048 A 
ENDROOT
BRANCH  14  23
ATOM     23  N   UNL     1     -42.134 -43.729 -11.021  0.00  0.00    -0.343 N 
ATOM     24  H   UNL     1     -41.319 -44.277 -10.596  0.00  0.00    +0.144 HD
ATOM     25  H   UNL     1     -43.104 -44.176 -11.086  0.00  0.00    +0.144 HD
ENDBRANCH  14  23
BRANCH  13  26
ATOM     26  C   UNL     1     -44.269 -41.866 -12.204  0.00  0.00    +0.103 C 
ATOM     27  N   UNL     1     -45.396 -41.989 -12.348  0.00  0.00    -0.191 NA
ENDBRANCH  13  26
BRANCH  10   9
ATOM      9  O   UNL     1     -42.047 -36.904 -13.580  0.00  0.00    -0.456 OA
BRANCH   9   8
ATOM      5  C   UNL     1     -40.957 -35.425 -17.331  0.00  0.00    +0.034 A 
ATOM      6  C   UNL     1     -40.835 -36.787 -17.058  0.00  0.00    +0.027 A 
ATOM      7  C   UNL     1     -41.171 -37.284 -15.811  0.00  0.00    +0.048 A 
ATOM      8  C   UNL     1     -41.613 -36.417 -14.818  0.00  0.00    +0.129 A 
ATOM     31  C   UNL     1     -41.697 -35.053 -15.067  0.00  0.00    +0.048 A 
ATOM     32  C   UNL     1     -41.378 -34.562 -16.323  0.00  0.00    +0.027 A 
BRANCH   5   3
ATOM      1  O   UNL     1     -39.941 -36.685 -19.803  0.00  0.00    -0.274 OA
ATOM      2  C   UNL     1     -40.362 -35.532 -19.760  0.00  0.00    +0.231 C 
ATOM      3  N   UNL     1     -40.749 -34.895 -18.630  0.00  0.00    -0.284 N 
ATOM      4  H   UNL     1     -40.922 -33.844 -18.731  0.00  0.00    +0.155 HD
BRANCH   2  33
ATOM     33  C   UNL     1     -40.457 -34.746 -21.067  0.00  0.00    +0.175 C 
BRANCH  33  34
ATOM     34  N   UNL     1     -39.200 -34.869 -21.843  0.00  0.00    -0.323 NA
ATOM     35  H   UNL     1     -38.385 -34.484 -21.266  0.00  0.00    +0.119 HD
ATOM     36  H   UNL     1     -39.020 -35.899 -22.071  0.00  0.00    +0.119 HD
ENDBRANCH  33  34
ENDBRANCH   2  33
ENDBRANCH   5   3
ENDBRANCH   9   8
ENDBRANCH  10   9
BRANCH  15  16
ATOM     16  C   UNL     1     -39.481 -42.374 -10.827  0.00  0.00    +0.158 C 
BRANCH  16  17
ATOM     17  C   UNL     1     -38.406 -42.755 -11.818  0.00  0.00    -0.028 A 
ATOM     18  C   UNL     1     -38.730 -43.320 -13.048  0.00  0.00    +0.005 A 
ATOM     19  C   UNL     1     -37.735 -43.729 -13.927  0.00  0.00    +0.000 A 
ATOM     20  C   UNL     1     -36.403 -43.561 -13.598  0.00  0.00    +0.000 A 
ATOM     21  C   UNL     1     -36.066 -42.989 -12.385  0.00  0.00    +0.000 A 
ATOM     22  C   UNL     1     -37.061 -42.598 -11.496  0.00  0.00    +0.005 A 
ENDBRANCH  16  17
ENDBRANCH  15  16
TORSDOF 9
