REMARK  Name = 3fc2_ligand
REMARK  14 active torsions:
REMARK  status: ('A' for Active; 'I' for Inactive)
REMARK    1  A    between atoms: C16_10  and  O37_25
REMARK    2  A    between atoms: C17_11  and  C39_23
REMARK    3  A    between atoms: C21_13  and  C31_16
REMARK    4  A    between atoms: N22_14  and  C36_21
REMARK    5  A    between atoms: C31_16  and  C32_17
REMARK    6  A    between atoms: C33_18  and  C34_19
REMARK    7  A    between atoms: C33_18  and  C35_20
REMARK    8  A    between atoms: C33_18  and  N23_31
REMARK    9  A    between atoms: C38_22  and  O37_25
REMARK   10  A    between atoms: C14_26  and  N19_27
REMARK   11  A    between atoms: N41_37  and  C9_38
REMARK   12  A    between atoms: C10_39  and  N3_40
REMARK   13  A    between atoms: N4_41  and  C42_42
REMARK   14  A    between atoms: C42_42  and  C43_43
REMARK                            x       y       z     vdW  Elec       q    Type
REMARK                         _______ _______ _______ _____ _____    ______ ____
ROOT
ATOM     12  C   UNL     1      48.274  -9.229   6.984  0.00  0.00    +0.029 A 
ATOM     13  C   UNL     1      48.480 -10.281   6.099  0.00  0.00    +0.032 A 
ATOM     14  C   UNL     1      47.687 -11.432   6.153  0.00  0.00    +0.120 A 
ATOM     15  C   UNL     1      46.652 -11.544   7.078  0.00  0.00    +0.098 A 
ATOM     16  C   UNL     1      46.427 -10.498   7.966  0.00  0.00    +0.011 A 
ATOM     38  C   UNL     1      47.231  -9.355   7.919  0.00  0.00    -0.008 A 
ENDROOT
BRANCH  15  17
ATOM     17  N   UNL     1      45.958 -12.792   7.055  0.00  0.00    -0.253 N 
ATOM     18  H   UNL     1      46.172 -13.394   6.247  0.00  0.00    +0.212 HD
ATOM     19  C   UNL     1      45.019 -13.331   7.974  0.00  0.00    +0.178 A 
ATOM     20  N   UNL     1      44.408 -14.528   7.692  0.00  0.00    -0.288 NA
ATOM     21  C   UNL     1      43.468 -15.022   8.570  0.00  0.00    +0.090 A 
ATOM     22  C   UNL     1      43.122 -14.345   9.730  0.00  0.00    +0.127 A 
ATOM     23  C   UNL     1      43.744 -13.126  10.022  0.00  0.00    +0.146 A 
ATOM     24  N   UNL     1      43.395 -12.396  11.213  0.00  0.00    -0.269 N 
ATOM     28  C   UNL     1      42.442 -12.970  12.185  0.00  0.00    +0.216 C 
ATOM     29  C   UNL     1      41.755 -14.236  11.770  0.00  0.00    +0.228 C 
ATOM     30  O   UNL     1      40.928 -14.691  12.539  0.00  0.00    -0.384 OA
ATOM     33  N   UNL     1      42.124 -14.897  10.601  0.00  0.00    -0.221 N 
ATOM     34  C   UNL     1      41.442 -16.175  10.294  0.00  0.00    +0.205 C 
ATOM     35  N   UNL     1      44.688 -12.651   9.133  0.00  0.00    -0.251 NA
BRANCH  24  25
ATOM     25  C   UNL     1      43.963 -11.127  11.792  0.00  0.00    +0.093 C 
ATOM     26  C   UNL     1      43.043  -9.893  11.682  0.00  0.00    +0.034 C 
ATOM     27  C   UNL     1      45.372 -10.825  11.299  0.00  0.00    +0.034 C 
ENDBRANCH  24  25
BRANCH  28  31
ATOM     31  C   UNL     1      43.306 -13.493  13.375  0.00  0.00    +0.047 C 
ATOM     32  C   UNL     1      44.582 -14.273  12.959  0.00  0.00    +0.009 C 
ENDBRANCH  28  31
ENDBRANCH  15  17
BRANCH  12  10
ATOM      8  N   UNL     1      49.411  -7.188   8.060  0.00  0.00    -0.285 N 
ATOM      9  H   UNL     1      48.988  -7.503   8.909  0.00  0.00    +0.184 HD
ATOM     10  C   UNL     1      49.159  -7.989   6.935  0.00  0.00    +0.194 C 
ATOM     11  O   UNL     1      49.665  -7.703   5.887  0.00  0.00    -0.390 OA
BRANCH   8   7
ATOM      4  C   UNL     1      51.285  -3.452   9.748  0.00  0.00    +0.065 C 
ATOM      5  C   UNL     1      52.133  -4.706   9.400  0.00  0.00    +0.056 C 
ATOM      6  C   UNL     1      51.323  -6.023   9.235  0.00  0.00    +0.033 C 
ATOM      7  C   UNL     1      50.219  -5.932   8.179  0.00  0.00    +0.097 C 
ATOM     39  C   UNL     1      49.304  -4.803   8.651  0.00  0.00    +0.033 C 
ATOM     40  C   UNL     1      50.026  -3.445   8.830  0.00  0.00    +0.056 C 
BRANCH   4   2
ATOM      1  C   UNL     1      51.334  -0.914   9.563  0.00  0.00    +0.183 C 
ATOM      2  N   UNL     1      52.103  -2.195   9.591  0.00  0.00    +0.245 N 
ATOM      3  H   UNL     1      52.558  -2.281   8.696  0.00  0.00    +0.204 HD
ATOM     41  C   UNL     1      53.176  -2.035  10.617  0.00  0.00    +0.183 C 
ATOM     42  C   UNL     1      54.106  -0.836  10.310  0.00  0.00    +0.183 C 
ATOM     43  N   UNL     1      53.361   0.436  10.191  0.00  0.00    +0.243 N 
ATOM     44  H   UNL     1      52.955   0.627  11.094  0.00  0.00    +0.204 HD
ATOM     49  C   UNL     1      52.240   0.295   9.236  0.00  0.00    +0.183 C 
BRANCH  43  45
ATOM     45  C   UNL     1      54.247   1.572   9.880  0.00  0.00    +0.135 C 
BRANCH  45  46
ATOM     46  C   UNL     1      53.804   2.914  10.499  0.00  0.00    +0.035 C 
ATOM     47  C   UNL     1      52.732   3.713   9.713  0.00  0.00    +0.009 C 
ATOM     48  C   UNL     1      54.086   4.297   9.952  0.00  0.00    +0.009 C 
ENDBRANCH  45  46
ENDBRANCH  43  45
ENDBRANCH   4   2
ENDBRANCH   8   7
ENDBRANCH  12  10
BRANCH  14  36
ATOM     36  O   UNL     1      47.862 -12.498   5.305  0.00  0.00    -0.324 OA
ATOM     37  C   UNL     1      49.096 -12.817   4.680  0.00  0.00    +0.229 C 
ENDBRANCH  14  36
TORSDOF 9
