REMARK  Name = 41D
REMARK  6 active torsions:
REMARK  status: ('A' for Active; 'I' for Inactive)
REMARK    1  A    between atoms: C10_1  and  N05_6
REMARK    2  A    between atoms: C10_1  and  C11_11
REMARK    3  A    between atoms: C04_5  and  C07_8
REMARK    4  A    between atoms: C07_8  and  C08_9
REMARK    5  A    between atoms: C11_11  and  C12_12
REMARK    6  A    between atoms: C12_12  and  S13_13
REMARK                            x       y       z     vdW  Elec       q    Type
REMARK                         _______ _______ _______ _____ _____    ______ ____
ROOT
ATOM      2  N   UNL     1      37.139  67.148   4.197  0.00  0.00    -0.290 N 
ATOM      3  C   UNL     1      37.565  67.999   5.112  0.00  0.00    +0.027 C 
ATOM      4  C   UNL     1      36.795  68.266   6.224  0.00  0.00    -0.011 C 
ATOM      5  C   UNL     1      35.560  67.642   6.388  0.00  0.00    +0.054 C 
ATOM      6  C   UNL     1      35.166  66.755   5.383  0.00  0.00    -0.005 C 
ATOM     10  C   UNL     1      35.972  66.529   4.301  0.00  0.00    +0.061 C 
ENDROOT
BRANCH   2   1
ATOM      1  C   UNL     1      37.955  66.852   3.004  0.00  0.00    +0.097 C 
BRANCH   1  11
ATOM     11  C   UNL     1      37.479  67.742   1.820  0.00  0.00    +0.043 C 
BRANCH  11  12
ATOM     12  C   UNL     1      38.023  67.306   0.510  0.00  0.00    +0.107 C 
BRANCH  12  13
ATOM     13  S   UNL     1      37.475  68.392  -0.782  0.00  0.00    -0.196 S 
ATOM     14  O   UNL     1      37.895  69.856  -0.468  0.00  0.00    -0.308 OA
ATOM     15  O   UNL     1      35.971  68.272  -0.948  0.00  0.00    -0.308 OA
ATOM     16  O   UNL     1      38.195  68.120  -2.064  0.00  0.00    -0.308 OA
ENDBRANCH  12  13
ENDBRANCH  11  12
ENDBRANCH   1  11
ENDBRANCH   2   1
BRANCH   3   7
ATOM      7  C   UNL     1      38.918  68.708   4.981  0.00  0.00    +0.077 C 
BRANCH   7   8
ATOM      8  C   UNL     1      39.214  69.612   6.213  0.00  0.00    +0.188 C 
ATOM      9  O   UNL     1      38.514  70.832   6.073  0.00  0.00    -0.220 OA
ENDBRANCH   7   8
ENDBRANCH   3   7
TORSDOF 6
