REMARK  Name = J2V
REMARK  4 active torsions:
REMARK  status: ('A' for Active; 'I' for Inactive)
REMARK    1  A    between atoms: C16_2  and  C7_17
REMARK    2  A    between atoms: C19_4  and  O26_27
REMARK    3  A    between atoms: C8_18  and  C10_20
REMARK    4  A    between atoms: C14_22  and  N22_24
REMARK                            x       y       z     vdW  Elec       q    Type
REMARK                         _______ _______ _______ _____ _____    ______ ____
ROOT
ATOM      9  C   UNL     1       4.576   9.093   5.857  0.00  0.00    +0.038 A 
ATOM     10  C   UNL     1       4.108   9.252   7.215  0.00  0.00    +0.100 A 
ATOM     11  N   UNL     1       4.639   9.943   8.245  0.00  0.00    -0.242 NA
ATOM     12  C   UNL     1       3.944   9.941   9.402  0.00  0.00    +0.099 A 
ATOM     13  C   UNL     1       2.727   9.276   9.577  0.00  0.00    +0.022 A 
ATOM     14  C   UNL     1       2.189   8.564   8.512  0.00  0.00    +0.022 A 
ATOM     15  C   UNL     1       2.903   8.556   7.306  0.00  0.00    +0.099 A 
ATOM     16  N   UNL     1       2.638   7.981   6.089  0.00  0.00    -0.244 NA
ATOM     17  C   UNL     1       3.654   8.299   5.205  0.00  0.00    +0.083 A 
ENDROOT
BRANCH   9   8
ATOM      1  C   UNL     1       6.993   9.635   5.965  0.00  0.00    +0.102 A 
ATOM      2  N   UNL     1       8.108  10.289   5.618  0.00  0.00    -0.210 NA
ATOM      3  C   UNL     1       8.029  11.092   4.562  0.00  0.00    +0.225 A 
ATOM      6  C   UNL     1       6.859  11.304   3.803  0.00  0.00    +0.058 A 
ATOM      7  C   UNL     1       5.726  10.605   4.193  0.00  0.00    +0.006 A 
ATOM      8  C   UNL     1       5.780   9.755   5.300  0.00  0.00    +0.022 A 
BRANCH   3   4
ATOM      4  O   UNL     1       9.145  11.717   4.125  0.00  0.00    -0.456 OA
ATOM      5  C   UNL     1      10.392  11.493   4.832  0.00  0.00    +0.254 C 
ENDBRANCH   3   4
ENDBRANCH   9   8
BRANCH  17  18
ATOM     18  C   UNL     1       3.607   7.730   3.833  0.00  0.00    +0.022 A 
ATOM     19  C   UNL     1       2.389   7.300   3.288  0.00  0.00    +0.038 A 
ATOM     20  C   UNL     1       2.386   6.600   2.068  0.00  0.00    +0.155 A 
ATOM     25  N   UNL     1       3.521   6.368   1.379  0.00  0.00    -0.227 NA
ATOM     26  C   UNL     1       4.682   6.816   1.908  0.00  0.00    +0.100 A 
ATOM     27  C   UNL     1       4.774   7.498   3.107  0.00  0.00    +0.022 A 
BRANCH  20  21
ATOM     21  N   UNL     1       1.218   6.029   1.459  0.00  0.00    -0.160 NA
ATOM     22  C   UNL     1      -0.068   6.000   1.930  0.00  0.00    +0.247 C 
ATOM     23  O   UNL     1      -0.418   6.559   2.949  0.00  0.00    -0.273 OA
ATOM     24  C   UNL     1      -1.058   5.212   1.116  0.00  0.00    +0.097 C 
ENDBRANCH  20  21
ENDBRANCH  17  18
TORSDOF 4
