REMARK  Name = 2hyy_ligand
REMARK  8 active torsions:
REMARK  status: ('A' for Active; 'I' for Inactive)
REMARK    1  A    between atoms: C5_3  and  C7_7
REMARK    2  A    between atoms: N13_13  and  C14_14
REMARK    3  A    between atoms: C19_15  and  C20_37
REMARK    4  A    between atoms: C16_18  and  N21_20
REMARK    5  A    between atoms: C22_21  and  C23_22
REMARK    6  A    between atoms: C27_25  and  C46_28
REMARK    7  A    between atoms: C46_28  and  N48_29
REMARK    8  A    between atoms: N51_32  and  C54_33
REMARK                            x       y       z     vdW  Elec       q    Type
REMARK                         _______ _______ _______ _____ _____    ______ ____
ROOT
ATOM     11  C   UNL     1      15.346  12.271  17.710  0.00  0.00    +0.055 A 
ATOM     12  C   UNL     1      14.506  13.401  17.688  0.00  0.00    +0.015 A 
ATOM     13  C   UNL     1      13.560  13.633  18.698  0.00  0.00    +0.049 A 
ATOM     34  C   UNL     1      13.451  12.699  19.699  0.00  0.00    -0.019 A 
ATOM     35  C   UNL     1      14.285  11.539  19.714  0.00  0.00    -0.033 A 
ATOM     36  C   UNL     1      15.234  11.305  18.732  0.00  0.00    -0.036 A 
ATOM     37  C   UNL     1      16.075  10.053  18.815  0.00  0.00    +0.062 C 
ENDROOT
BRANCH  11   9
ATOM      6  C   UNL     1      19.778  12.261  16.119  0.00  0.00    +0.062 A 
ATOM      7  N   UNL     1      18.433  12.021  15.977  0.00  0.00    -0.246 NA
ATOM      8  C   UNL     1      17.593  12.383  16.962  0.00  0.00    +0.209 A 
ATOM      9  N   UNL     1      16.254  12.125  16.695  0.00  0.00    -0.248 N 
ATOM     10  H   UNL     1      15.951  11.831  15.756  0.00  0.00    +0.216 HD
ATOM     38  N   UNL     1      18.047  12.944  18.070  0.00  0.00    -0.252 NA
ATOM     39  C   UNL     1      19.347  13.177  18.235  0.00  0.00    +0.104 A 
ATOM     40  C   UNL     1      20.266  12.828  17.228  0.00  0.00    +0.052 A 
BRANCH   6   5
ATOM      1  C   UNL     1      22.827  11.725  13.780  0.00  0.00    +0.042 A 
ATOM      2  C   UNL     1      22.176  10.931  12.842  0.00  0.00    +0.099 A 
ATOM      3  N   UNL     1      20.892  10.570  12.904  0.00  0.00    -0.292 NA
ATOM      4  C   UNL     1      20.140  11.001  13.947  0.00  0.00    +0.111 A 
ATOM      5  C   UNL     1      20.668  11.809  14.959  0.00  0.00    +0.032 A 
ATOM     41  C   UNL     1      22.036  12.177  14.839  0.00  0.00    +0.048 A 
ENDBRANCH   6   5
ENDBRANCH  11   9
BRANCH  13  14
ATOM     14  N   UNL     1      12.659  14.735  18.814  0.00  0.00    -0.240 N 
ATOM     15  H   UNL     1      12.071  14.807  19.619  0.00  0.00    +0.223 HD
ATOM     16  C   UNL     1      12.589  15.682  17.851  0.00  0.00    +0.226 C 
ATOM     17  O   UNL     1      13.399  15.803  16.931  0.00  0.00    -0.377 OA
BRANCH  16  18
ATOM     18  C   UNL     1      11.455  16.642  17.900  0.00  0.00    +0.049 A 
ATOM     19  C   UNL     1      10.736  16.908  19.112  0.00  0.00    +0.017 A 
ATOM     20  C   UNL     1       9.662  17.854  19.065  0.00  0.00    +0.008 A 
ATOM     21  C   UNL     1       9.298  18.536  17.869  0.00  0.00    +0.006 A 
ATOM     32  C   UNL     1      10.006  18.285  16.678  0.00  0.00    +0.008 A 
ATOM     33  C   UNL     1      11.079  17.330  16.713  0.00  0.00    +0.017 A 
BRANCH  21  22
ATOM     22  C   UNL     1       8.196  19.529  17.832  0.00  0.00    +0.203 C 
BRANCH  22  23
ATOM     23  N   UNL     1       8.191  20.406  18.988  0.00  0.00    +0.255 N 
ATOM     24  H   UNL     1       8.156  19.805  19.797  0.00  0.00    +0.205 HD
ATOM     25  C   UNL     1       6.952  21.230  19.053  0.00  0.00    +0.185 C 
ATOM     26  C   UNL     1       6.928  22.029  20.380  0.00  0.00    +0.183 C 
ATOM     27  N   UNL     1       8.150  22.812  20.447  0.00  0.00    +0.240 N 
ATOM     28  H   UNL     1       8.138  23.427  19.648  0.00  0.00    +0.203 HD
ATOM     29  C   UNL     1       8.183  23.619  21.640  0.00  0.00    +0.191 C 
ATOM     30  C   UNL     1       9.448  22.049  20.402  0.00  0.00    +0.183 C 
ATOM     31  C   UNL     1       9.455  21.152  19.106  0.00  0.00    +0.185 C 
ENDBRANCH  22  23
ENDBRANCH  21  22
ENDBRANCH  16  18
ENDBRANCH  13  14
TORSDOF 6
