REMARK  Name = 1zrz_ligand
REMARK  8 active torsions:
REMARK  status: ('A' for Active; 'I' for Inactive)
REMARK    1  A    between atoms: CBD_1  and  NBC_2
REMARK    2  A    between atoms: NBC_2  and  CBE_3
REMARK    3  A    between atoms: NBC_2  and  CBB_4
REMARK    4  A    between atoms: CBB_4  and  CBA_5
REMARK    5  A    between atoms: CBA_5  and  CAY_6
REMARK    6  A    between atoms: CAY_6  and  NAH_7
REMARK    7  A    between atoms: CAG_15  and  CAI_16
REMARK    8  A    between atoms: CAJ_22  and  CAK_23
REMARK                            x       y       z     vdW  Elec       q    Type
REMARK                         _______ _______ _______ _____ _____    ______ ____
ROOT
ATOM     11  C   UNL     1      -7.351  18.630  17.767  0.00  0.00    +0.044 C 
ATOM     12  C   UNL     1      -7.711  17.511  18.685  0.00  0.00    +0.044 C 
ATOM     23  C   UNL     1      -6.805  16.408  18.233  0.00  0.00    +0.224 C 
ATOM     24  O   UNL     1      -6.746  15.242  18.735  0.00  0.00    -0.372 OA
ATOM     25  N   UNL     1      -6.013  16.728  17.225  0.00  0.00    -0.204 N 
ATOM     26  H   UNL     1      -5.340  16.140  16.777  0.00  0.00    +0.220 HD
ATOM     27  C   UNL     1      -6.298  18.007  16.925  0.00  0.00    +0.224 C 
ATOM     28  O   UNL     1      -5.688  18.616  15.981  0.00  0.00    -0.372 OA
ENDROOT
BRANCH  12  13
ATOM     13  C   UNL     1      -8.716  17.424  19.829  0.00  0.00    -0.005 A 
ATOM     14  C   UNL     1      -8.402  16.660  20.959  0.00  0.00    +0.139 A 
ATOM     15  N   UNL     1      -9.466  16.793  21.784  0.00  0.00    -0.274 N 
ATOM     16  H   UNL     1      -9.540  16.343  22.708  0.00  0.00    +0.231 HD
ATOM     17  C   UNL     1     -10.436  17.602  21.240  0.00  0.00    +0.069 A 
ATOM     18  C   UNL     1     -11.721  18.044  21.722  0.00  0.00    +0.014 A 
ATOM     19  C   UNL     1     -12.510  18.908  20.896  0.00  0.00    -0.021 A 
ATOM     20  C   UNL     1     -12.073  19.340  19.620  0.00  0.00    -0.026 A 
ATOM     21  C   UNL     1     -10.812  18.905  19.148  0.00  0.00    -0.017 A 
ATOM     22  C   UNL     1     -10.004  18.040  19.965  0.00  0.00    -0.013 A 
ENDBRANCH  12  13
BRANCH  11  10
ATOM      7  N   UNL     1      -8.515  22.061  18.345  0.00  0.00    -0.259 N 
ATOM      8  C   UNL     1      -8.585  22.096  16.993  0.00  0.00    +0.071 A 
ATOM      9  C   UNL     1      -8.170  20.821  16.500  0.00  0.00    -0.013 A 
ATOM     10  C   UNL     1      -7.858  20.074  17.641  0.00  0.00    -0.005 A 
ATOM     29  C   UNL     1      -8.139  20.541  15.095  0.00  0.00    -0.017 A 
ATOM     30  C   UNL     1      -8.530  21.566  14.179  0.00  0.00    -0.026 A 
ATOM     31  C   UNL     1      -8.944  22.845  14.669  0.00  0.00    -0.021 A 
ATOM     32  C   UNL     1      -8.972  23.104  16.053  0.00  0.00    +0.014 A 
ATOM     33  C   UNL     1      -8.069  20.840  18.780  0.00  0.00    +0.142 A 
BRANCH   7   6
ATOM      6  C   UNL     1      -8.869  23.163  19.251  0.00  0.00    +0.180 C 
BRANCH   6   5
ATOM      5  C   UNL     1     -10.197  22.853  19.929  0.00  0.00    +0.083 C 
BRANCH   5   4
ATOM      4  C   UNL     1     -10.532  24.046  20.822  0.00  0.00    +0.133 C 
BRANCH   4   2
ATOM      1  C   UNL     1     -11.245  24.787  23.067  0.00  0.00    +0.190 C 
ATOM      2  N   UNL     1     -10.900  23.667  22.209  0.00  0.00    +0.231 N 
ATOM      3  H   UNL     1      -9.931  23.724  22.480  0.00  0.00    +0.203 HD
ATOM     34  C   UNL     1     -10.947  22.311  22.758  0.00  0.00    +0.190 C 
ENDBRANCH   4   2
ENDBRANCH   5   4
ENDBRANCH   6   5
ENDBRANCH   7   6
ENDBRANCH  11  10
TORSDOF 6
