REMARK  Name = 2oj9_ligand
REMARK  6 active torsions:
REMARK  status: ('A' for Active; 'I' for Inactive)
REMARK    1  A    between atoms: N_3  and  C1_5
REMARK    2  A    between atoms: N_3  and  C4_8
REMARK    3  A    between atoms: C4_8  and  C8_12
REMARK    4  A    between atoms: C10_15  and  C17_25
REMARK    5  A    between atoms: C12_17  and  N3_19
REMARK    6  A    between atoms: C19_28  and  C21_30
REMARK                            x       y       z     vdW  Elec       q    Type
REMARK                         _______ _______ _______ _____ _____    ______ ____
ROOT
ATOM      1  C   UNL     1       3.146  -4.525  18.441  0.00  0.00    +0.186 C 
ATOM      2  C   UNL     1       3.819  -4.549  19.750  0.00  0.00    +0.299 C 
ATOM     19  C   UNL     1       4.224  -3.363  20.427  0.00  0.00    +0.107 C 
ATOM     20  C   UNL     1       3.951  -2.166  19.742  0.00  0.00    +0.021 C 
ATOM     21  C   UNL     1       3.289  -2.238  18.576  0.00  0.00    +0.083 C 
ATOM     31  N   UNL     1       2.898  -3.331  17.932  0.00  0.00    -0.297 NA
ATOM     32  O   UNL     1       2.756  -5.636  17.883  0.00  0.00    -0.393 OA
ENDROOT
BRANCH   2   3
ATOM      3  C   UNL     1       4.162  -5.822  20.321  0.00  0.00    +0.162 A 
ATOM      4  N   UNL     1       4.205  -6.953  19.674  0.00  0.00    -0.246 N 
ATOM      5  H   UNL     1       3.894  -7.112  18.705  0.00  0.00    +0.231 HD
ATOM      6  C   UNL     1       4.738  -7.889  20.515  0.00  0.00    +0.070 A 
ATOM      7  C   UNL     1       5.003  -7.257  21.587  0.00  0.00    +0.021 A 
ATOM      8  C   UNL     1       5.531  -7.888  22.618  0.00  0.00    -0.049 A 
ATOM      9  C   UNL     1       5.795  -7.059  23.834  0.00  0.00    +0.079 C 
ATOM     10  C   UNL     1       5.799  -9.170  22.620  0.00  0.00    +0.003 A 
ATOM     11  C   UNL     1       5.565  -9.854  21.528  0.00  0.00    +0.078 A 
ATOM     17  C   UNL     1       5.023  -9.259  20.449  0.00  0.00    +0.029 A 
ATOM     18  N   UNL     1       4.679  -5.943  21.420  0.00  0.00    -0.317 NA
BRANCH  11  12
ATOM     12  N   UNL     1       5.905 -11.214  21.502  0.00  0.00    -0.217 N 
ATOM     13  C   UNL     1       6.311 -11.860  20.405  0.00  0.00    +0.233 A 
ATOM     14  N   UNL     1       6.600 -13.151  20.650  0.00  0.00    -0.328 NA
ATOM     15  C   UNL     1       6.352 -13.341  21.989  0.00  0.00    +0.024 A 
ATOM     16  C   UNL     1       5.925 -12.107  22.539  0.00  0.00    +0.136 A 
ENDBRANCH  11  12
ENDBRANCH   2   3
BRANCH  19  22
ATOM     22  N   UNL     1       4.931  -3.267  21.682  0.00  0.00    -0.274 N 
ATOM     23  H   UNL     1       4.622  -3.840  22.480  0.00  0.00    +0.202 HD
BRANCH  22  24
ATOM     24  C   UNL     1       6.146  -2.319  21.852  0.00  0.00    +0.234 C 
BRANCH  24  25
ATOM     25  C   UNL     1       7.211  -3.234  22.412  0.00  0.00    +0.052 A 
ATOM     26  N   UNL     1       7.762  -4.150  21.576  0.00  0.00    -0.296 NA
ATOM     27  C   UNL     1       8.657  -5.006  22.063  0.00  0.00    +0.083 A 
ATOM     28  C   UNL     1       9.036  -4.965  23.423  0.00  0.00    +0.024 A 
ATOM     29  C   UNL     1       8.458  -4.030  24.291  0.00  0.00    +0.023 A 
ATOM     30  C   UNL     1       7.542  -3.167  23.748  0.00  0.00    +0.035 A 
ENDBRANCH  24  25
ENDBRANCH  22  24
ENDBRANCH  19  22
TORSDOF 5
