REMARK  Name = 2xpa_ligand
REMARK  6 active torsions:
REMARK  status: ('A' for Active; 'I' for Inactive)
REMARK    1  A    between atoms: C9_6  and  C5_7
REMARK    2  A    between atoms: C3_10  and  C15_11
REMARK    3  A    between atoms: C2_14  and  C6_15
REMARK    4  A    between atoms: N7_17  and  C22_18
REMARK    5  A    between atoms: N7_17  and  C18_19
REMARK    6  A    between atoms: C18_19  and  C19_20
REMARK                            x       y       z     vdW  Elec       q    Type
REMARK                         _______ _______ _______ _____ _____    ______ ____
ROOT
ATOM      3  C   UNL     1      39.040 -15.700  11.342  0.00  0.00    +0.144 A 
ATOM      4  N   UNL     1      38.675 -14.852  10.340  0.00  0.00    -0.242 N 
ATOM      5  H   UNL     1      38.227 -15.113   9.450  0.00  0.00    +0.242 HD
ATOM      6  CA  UNL     1      39.011 -13.604  10.733  0.00  0.00    +0.134 A 
ATOM      7  C   UNL     1      39.614 -13.711  11.993  0.00  0.00    +0.111 A 
ATOM     21  N   UNL     1      39.608 -14.995  12.324  0.00  0.00    -0.297 NA
ENDROOT
BRANCH   3   2
ATOM      1  C   UNL     1      39.011 -17.867  10.252  0.00  0.00    +0.017 A 
ATOM      2  C   UNL     1      38.955 -17.092  11.420  0.00  0.00    +0.029 A 
ATOM     22  C   UNL     1      38.931 -17.718  12.666  0.00  0.00    +0.017 A 
ATOM     23  C   UNL     1      38.901 -19.120  12.748  0.00  0.00    +0.003 A 
ATOM     24  C   UNL     1      38.908 -19.896  11.587  0.00  0.00    +0.003 A 
ATOM     25  C   UNL     1      38.963 -19.259  10.340  0.00  0.00    +0.003 A 
ENDBRANCH   3   2
BRANCH   7   8
ATOM      8  C   UNL     1      40.225 -12.680  12.980  0.00  0.00    +0.203 C 
ATOM      9  N   UNL     1      41.565 -12.772  13.215  0.00  0.00    -0.259 N 
ATOM     16  C   UNL     1      42.373 -13.743  12.411  0.00  0.00    +0.170 C 
ATOM     17  O   UNL     1      39.483 -11.921  13.597  0.00  0.00    -0.394 OA
BRANCH   9  10
ATOM     10  C   UNL     1      42.200 -11.907  14.240  0.00  0.00    +0.274 C 
BRANCH  10  11
ATOM     11  C   UNL     1      42.660 -12.783  15.470  0.00  0.00    +0.196 C 
ATOM     12  N   UNL     1      43.808 -12.378  16.035  0.00  0.00    -0.299 N 
ATOM     13  H   UNL     1      44.292 -11.583  15.669  0.00  0.00    +0.181 HD
ATOM     14  H   UNL     1      44.179 -12.871  16.822  0.00  0.00    +0.181 HD
ATOM     15  O   UNL     1      42.021 -13.766  15.886  0.00  0.00    -0.395 OA
ENDBRANCH  10  11
ENDBRANCH   9  10
ENDBRANCH   7   8
BRANCH   6  18
ATOM     18  C   UNL     1      38.802 -12.297   9.931  0.00  0.00    +0.094 C 
ATOM     19  OXT UNL     1      38.985 -11.215  10.515  0.00  0.00    -0.558 OA
ATOM     20  O   UNL     1      38.533 -12.328   8.711  0.00  0.00    -0.558 OA
ENDBRANCH   6  18
TORSDOF 5
