REMARK  Name = 4anx_ligand
REMARK  7 active torsions:
REMARK  status: ('A' for Active; 'I' for Inactive)
REMARK    1  A    between atoms: C26_1  and  C25_2
REMARK    2  A    between atoms: C25_2  and  C27_3
REMARK    3  A    between atoms: C25_2  and  C12_4
REMARK    4  A    between atoms: C5_9  and  C3_10
REMARK    5  A    between atoms: N4_21  and  S1_22
REMARK    6  A    between atoms: S1_22  and  C15_25
REMARK    7  A    between atoms: C19_30  and  C21_31
REMARK                            x       y       z     vdW  Elec       q    Type
REMARK                         _______ _______ _______ _____ _____    ______ ____
ROOT
ATOM      7  C   UNL     1      42.956  18.853  33.495  0.00  0.00    +0.097 A 
ATOM      8  C   UNL     1      41.866  18.039  33.780  0.00  0.00    +0.152 A 
ATOM      9  N   UNL     1      41.955  16.620  33.884  0.00  0.00    -0.283 N 
ATOM     10  C   UNL     1      40.878  15.835  33.197  0.00  0.00    +0.157 C 
ATOM     11  C   UNL     1      40.680  14.477  33.822  0.00  0.00    +0.150 C 
ATOM     12  N   UNL     1      42.008  13.862  33.923  0.00  0.00    -0.230 NA
ATOM     31  C   UNL     1      42.798  14.499  34.994  0.00  0.00    +0.150 C 
ATOM     32  C   UNL     1      43.079  15.958  34.613  0.00  0.00    +0.157 C 
ATOM     33  N   UNL     1      40.658  18.637  33.909  0.00  0.00    -0.262 NA
ATOM     34  C   UNL     1      40.486  19.946  33.797  0.00  0.00    +0.109 A 
ATOM     35  C   UNL     1      41.591  20.732  33.540  0.00  0.00    +0.103 A 
ATOM     36  N   UNL     1      42.774  20.170  33.389  0.00  0.00    -0.283 NA
ENDROOT
BRANCH   7   6
ATOM      3  C   UNL     1      46.931  17.545  33.054  0.00  0.00    -0.039 A 
ATOM      4  C   UNL     1      45.989  17.316  32.045  0.00  0.00    -0.002 A 
ATOM      5  C   UNL     1      44.656  17.736  32.180  0.00  0.00    +0.003 A 
ATOM      6  C   UNL     1      44.247  18.399  33.328  0.00  0.00    -0.004 A 
ATOM     37  C   UNL     1      45.175  18.638  34.332  0.00  0.00    +0.003 A 
ATOM     38  C   UNL     1      46.498  18.208  34.201  0.00  0.00    -0.002 A 
BRANCH   3   2
ATOM      1  C   UNL     1      48.434  15.552  32.929  0.00  0.00    +0.024 C 
ATOM      2  C   UNL     1      48.399  17.073  32.909  0.00  0.00    +0.034 C 
ATOM     39  C   UNL     1      49.024  17.586  31.606  0.00  0.00    +0.024 C 
ENDBRANCH   3   2
ENDBRANCH   7   6
BRANCH  12  13
ATOM     13  S   UNL     1      41.923  12.207  34.042  0.00  0.00    +0.071 S 
ATOM     29  O   UNL     1      40.500  11.757  34.263  0.00  0.00    -0.150 OA
ATOM     30  O   UNL     1      42.823  11.673  35.117  0.00  0.00    -0.150 OA
BRANCH  13  14
ATOM     14  C   UNL     1      42.529  11.763  32.468  0.00  0.00    +0.108 A 
ATOM     15  C   UNL     1      41.634  11.328  31.485  0.00  0.00    +0.028 A 
ATOM     16  C   UNL     1      42.140  10.998  30.229  0.00  0.00    +0.002 A 
ATOM     17  C   UNL     1      43.517  11.120  29.941  0.00  0.00    +0.007 A 
ATOM     18  C   UNL     1      44.408  11.580  30.922  0.00  0.00    -0.012 A 
ATOM     28  C   UNL     1      43.906  11.905  32.188  0.00  0.00    +0.036 A 
BRANCH  18  19
ATOM     19  C   UNL     1      45.770  11.698  30.636  0.00  0.00    +0.021 A 
ATOM     20  C   UNL     1      46.501  10.615  30.160  0.00  0.00    +0.114 A 
ATOM     21  N   UNL     1      47.788  10.750  29.886  0.00  0.00    -0.252 NA
ATOM     22  C   UNL     1      48.415  11.928  30.067  0.00  0.00    +0.192 A 
ATOM     23  N   UNL     1      49.711  12.033  29.785  0.00  0.00    -0.302 N 
ATOM     24  H   UNL     1      50.226  11.222  29.442  0.00  0.00    +0.183 HD
ATOM     25  H   UNL     1      50.190  12.925  29.911  0.00  0.00    +0.183 HD
ATOM     26  N   UNL     1      47.738  13.000  30.519  0.00  0.00    -0.252 NA
ATOM     27  C   UNL     1      46.447  12.901  30.805  0.00  0.00    +0.114 A 
ENDBRANCH  18  19
ENDBRANCH  13  14
ENDBRANCH  12  13
TORSDOF 5
