REMARK  Name = 2c5n_ligand
REMARK  7 active torsions:
REMARK  status: ('A' for Active; 'I' for Inactive)
REMARK    1  A    between atoms: C4_5  and  C5A_7
REMARK    2  A    between atoms: C1A_8  and  C6A_12
REMARK    3  A    between atoms: C3A_10  and  C7A_13
REMARK    4  A    between atoms: N7_14  and  C1B_15
REMARK    5  A    between atoms: C4B_18  and  N7B_21
REMARK    6  A    between atoms: N7B_21  and  C8B_22
REMARK    7  A    between atoms: N7B_21  and  C9B_23
REMARK                            x       y       z     vdW  Elec       q    Type
REMARK                         _______ _______ _______ _____ _____    ______ ____
ROOT
ATOM      1  C   UNL     1       5.188  51.113   2.554  0.00  0.00    +0.087 A 
ATOM      2  C   UNL     1       5.504  49.849   2.050  0.00  0.00    +0.031 A 
ATOM      3  C   UNL     1       4.495  48.895   1.913  0.00  0.00    +0.042 A 
ATOM     11  N   UNL     1       3.285  49.227   2.318  0.00  0.00    -0.266 NA
ATOM     12  C   UNL     1       3.006  50.421   2.844  0.00  0.00    +0.193 A 
ATOM     13  N   UNL     1       1.719  50.681   3.196  0.00  0.00    -0.251 N 
ATOM     14  H   UNL     1       1.585  51.632   3.569  0.00  0.00    +0.214 HD
ATOM     24  N   UNL     1       3.951  51.393   2.985  0.00  0.00    -0.266 NA
ENDROOT
BRANCH   3   4
ATOM      4  C   UNL     1       4.683  47.616   1.391  0.00  0.00    +0.067 A 
ATOM      5  S   UNL     1       3.577  46.360   1.185  0.00  0.00    -0.001 S 
ATOM      6  C   UNL     1       4.843  45.422   0.552  0.00  0.00    +0.097 A 
ATOM      7  C   UNL     1       4.659  44.025   0.027  0.00  0.00    +0.164 C 
ATOM      8  N   UNL     1       6.056  45.962   0.459  0.00  0.00    -0.296 NA
ATOM      9  C   UNL     1       6.016  47.208   0.948  0.00  0.00    +0.015 A 
ATOM     10  C   UNL     1       7.291  47.977   0.950  0.00  0.00    +0.102 C 
ENDBRANCH   3   4
BRANCH  13  15
ATOM     15  C   UNL     1       0.568  49.950   3.160  0.00  0.00    +0.053 A 
ATOM     16  C   UNL     1       0.415  48.639   2.721  0.00  0.00    +0.002 A 
ATOM     17  C   UNL     1      -0.848  48.045   2.757  0.00  0.00    -0.004 A 
ATOM     18  C   UNL     1      -1.957  48.719   3.262  0.00  0.00    +0.029 A 
ATOM     22  C   UNL     1      -1.795  50.007   3.728  0.00  0.00    -0.004 A 
ATOM     23  C   UNL     1      -0.547  50.604   3.660  0.00  0.00    +0.002 A 
BRANCH  18  19
ATOM     19  N   UNL     1      -3.191  48.156   3.338  0.00  0.00    -0.321 N 
ATOM     20  C   UNL     1      -4.313  48.908   3.882  0.00  0.00    +0.155 C 
ATOM     21  C   UNL     1      -3.418  46.797   2.874  0.00  0.00    +0.155 C 
ENDBRANCH  18  19
ENDBRANCH  13  15
TORSDOF 3
