REMARK  Name = 2w1i_ligand
REMARK  5 active torsions:
REMARK  status: ('A' for Active; 'I' for Inactive)
REMARK    1  A    between atoms: N3_3  and  C4_4
REMARK    2  A    between atoms: N7_7  and  C8_8
REMARK    3  A    between atoms: C13_12  and  C14_13
REMARK    4  A    between atoms: C19_18  and  C20_19
REMARK    5  A    between atoms: C20_19  and  N21_20
REMARK                            x       y       z     vdW  Elec       q    Type
REMARK                         _______ _______ _______ _____ _____    ______ ____
ROOT
ATOM      7  C   UNL     1      42.347   3.977  -3.198  0.00  0.00    +0.141 A 
ATOM      8  N   UNL     1      43.601   3.481  -3.194  0.00  0.00    -0.253 N 
ATOM      9  H   UNL     1      44.404   3.852  -2.666  0.00  0.00    +0.229 HD
ATOM     10  C   UNL     1      43.605   2.394  -4.022  0.00  0.00    +0.074 A 
ATOM     11  C   UNL     1      44.612   1.512  -4.395  0.00  0.00    +0.013 A 
ATOM     12  C   UNL     1      44.292   0.482  -5.272  0.00  0.00    -0.011 A 
ATOM     21  C   UNL     1      42.979   0.359  -5.732  0.00  0.00    -0.021 A 
ATOM     22  C   UNL     1      41.983   1.239  -5.359  0.00  0.00    -0.013 A 
ATOM     23  C   UNL     1      42.298   2.272  -4.486  0.00  0.00    +0.024 A 
ATOM     24  N   UNL     1      41.538   3.251  -3.972  0.00  0.00    -0.314 NA
ENDROOT
BRANCH   7   6
ATOM      5  C   UNL     1      40.680   5.581  -2.207  0.00  0.00    +0.094 A 
ATOM      6  C   UNL     1      41.964   5.137  -2.435  0.00  0.00    +0.117 A 
ATOM     25  N   UNL     1      42.838   5.955  -1.854  0.00  0.00    -0.204 NA
ATOM     26  N   UNL     1      42.088   6.898  -1.237  0.00  0.00    -0.230 N 
ATOM     27  H   UNL     1      42.476   7.681  -0.691  0.00  0.00    +0.254 HD
ATOM     28  C   UNL     1      40.780   6.687  -1.425  0.00  0.00    +0.141 A 
BRANCH   5   3
ATOM      1  O   UNL     1      37.858   6.290  -2.779  0.00  0.00    -0.394 OA
ATOM      2  C   UNL     1      38.381   5.227  -3.020  0.00  0.00    +0.279 C 
ATOM      3  N   UNL     1      39.607   4.875  -2.672  0.00  0.00    -0.235 N 
ATOM      4  H   UNL     1      39.784   3.896  -2.769  0.00  0.00    +0.215 HD
ATOM     29  N   UNL     1      37.816   4.104  -3.481  0.00  0.00    -0.266 N 
ATOM     30  H   UNL     1      37.825   3.305  -2.879  0.00  0.00    +0.185 HD
BRANCH  29  31
ATOM     31  C   UNL     1      37.198   3.952  -4.768  0.00  0.00    +0.098 C 
ATOM     32  C   UNL     1      36.999   2.545  -5.239  0.00  0.00    +0.030 C 
ATOM     33  C   UNL     1      38.142   3.343  -5.754  0.00  0.00    +0.030 C 
ENDBRANCH  29  31
ENDBRANCH   5   3
ENDBRANCH   7   6
BRANCH  12  13
ATOM     13  C   UNL     1      45.337  -0.537  -5.684  0.00  0.00    +0.191 C 
BRANCH  13  14
ATOM     14  N   UNL     1      46.432  -0.101  -6.617  0.00  0.00    +0.250 N 
ATOM     15  H   UNL     1      45.988   0.288  -7.434  0.00  0.00    +0.205 HD
ATOM     16  C   UNL     1      47.257  -1.274  -7.061  0.00  0.00    +0.161 C 
ATOM     17  C   UNL     1      48.341  -0.801  -8.025  0.00  0.00    +0.210 C 
ATOM     18  O   UNL     1      49.230   0.157  -7.420  0.00  0.00    -0.369 OA
ATOM     19  C   UNL     1      48.503   1.310  -6.943  0.00  0.00    +0.210 C 
ATOM     20  C   UNL     1      47.317   0.970  -6.039  0.00  0.00    +0.161 C 
ENDBRANCH  13  14
ENDBRANCH  12  13
TORSDOF 5
