REMARK  Name = 5ANK
REMARK  2 active torsions:
REMARK  status: ('A' for Active; 'I' for Inactive)
REMARK    1  A    between atoms: C_6  and  N_7
REMARK    2  A    between atoms: C_15  and  C_16
REMARK                            x       y       z     vdW  Elec       q    Type
REMARK                         _______ _______ _______ _____ _____    ______ ____
ROOT
ATOM      3  N   UNL     1       9.012  11.899 -10.274  0.00  0.00    -0.193 N 
ATOM      4  C   UNL     1       9.386  10.923 -11.139  0.00  0.00    +0.319 C 
ATOM      5  N   UNL     1      10.603  11.024 -11.815  0.00  0.00    -0.238 N 
ATOM      6  H   UNL     1      10.822  10.321 -12.591  0.00  0.00    +0.159 HD
ATOM      7  C   UNL     1      11.524  11.988 -11.521  0.00  0.00    +0.241 C 
ATOM      8  C   UNL     1      11.119  13.132 -10.744  0.00  0.00    +0.247 C 
ATOM     14  O   UNL     1      12.564  11.943 -12.175  0.00  0.00    -0.274 OA
ATOM     15  O   UNL     1       8.630   9.987 -11.448  0.00  0.00    -0.251 OA
ATOM     16  C   UNL     1       9.868  12.934  -9.984  0.00  0.00    +0.248 C 
ATOM     17  O   UNL     1       9.460  13.845  -9.222  0.00  0.00    -0.273 OA
ENDROOT
BRANCH   3   2
ATOM      1  C   UNL     1       6.631  12.569 -10.139  0.00  0.00    +0.024 A 
ATOM      2  C   UNL     1       7.761  11.838  -9.675  0.00  0.00    +0.045 A 
ATOM     18  C   UNL     1       7.617  11.017  -8.545  0.00  0.00    +0.024 A 
ATOM     19  C   UNL     1       6.406  10.913  -7.868  0.00  0.00    +0.002 A 
ATOM     20  C   UNL     1       5.290  11.631  -8.335  0.00  0.00    +0.000 A 
ATOM     21  C   UNL     1       5.400  12.458  -9.468  0.00  0.00    +0.002 A 
ENDBRANCH   3   2
BRANCH   8   9
ATOM      9  C   UNL     1      12.140  13.917 -10.090  0.00  0.00    +0.232 C 
ATOM     10  N   UNL     1      13.339  13.898 -10.762  0.00  0.00    -0.328 N 
ATOM     11  H   UNL     1      14.176  14.442 -10.378  0.00  0.00    +0.145 HD
ATOM     12  H   UNL     1      13.435  13.339 -11.669  0.00  0.00    +0.145 HD
ATOM     13  O   UNL     1      11.899  14.654  -9.077  0.00  0.00    -0.275 OA
ENDBRANCH   8   9
TORSDOF 2
