REMARK  Name = 4QYF
REMARK  4 active torsions:
REMARK  status: ('A' for Active; 'I' for Inactive)
REMARK    1  A    between atoms: C_2  and  C_4
REMARK    2  A    between atoms: C_9  and  C_10
REMARK    3  A    between atoms: C_12  and  C_17
REMARK    4  A    between atoms: C_19  and  O_20
REMARK                            x       y       z     vdW  Elec       q    Type
REMARK                         _______ _______ _______ _____ _____    ______ ____
ROOT
ATOM      7  C   UNL     1       5.264   8.435  18.694  0.00  0.00    +0.111 A 
ATOM      8  C   UNL     1       5.430   9.656  19.352  0.00  0.00    +0.142 A 
ATOM      9  N   UNL     1       6.647  10.260  19.349  0.00  0.00    -0.341 N 
ATOM     10  H   UNL     1       6.781  11.195  19.851  0.00  0.00    +0.144 HD
ATOM     11  H   UNL     1       7.471   9.800  18.845  0.00  0.00    +0.144 HD
ATOM     12  N   UNL     1       4.382  10.229  20.011  0.00  0.00    -0.236 NA
ATOM     13  C   UNL     1       3.187   9.641  20.000  0.00  0.00    +0.141 A 
ATOM     14  C   UNL     1       3.004   8.416  19.333  0.00  0.00    +0.090 A 
ATOM     23  N   UNL     1       4.039   7.837  18.660  0.00  0.00    -0.242 NA
ENDROOT
BRANCH   7   6
ATOM      3  C   UNL     1       8.589   6.995  16.402  0.00  0.00    -0.003 A 
ATOM      4  C   UNL     1       8.787   7.457  17.696  0.00  0.00    +0.010 A 
ATOM      5  C   UNL     1       7.729   7.921  18.476  0.00  0.00    +0.011 A 
ATOM      6  C   UNL     1       6.436   7.898  17.951  0.00  0.00    +0.004 A 
ATOM     24  C   UNL     1       6.236   7.441  16.646  0.00  0.00    +0.011 A 
ATOM     25  C   UNL     1       7.304   6.976  15.882  0.00  0.00    +0.010 A 
BRANCH   3   2
ATOM      1  O   UNL     1      10.817   7.165  15.605  0.00  0.00    -0.545 OA
ATOM      2  C   UNL     1       9.756   6.496  15.606  0.00  0.00    +0.072 C 
ATOM     26  O   UNL     1       9.652   5.428  14.979  0.00  0.00    -0.545 OA
ENDBRANCH   3   2
ENDBRANCH   7   6
BRANCH  14  15
ATOM     15  C   UNL     1       1.644   7.826  19.285  0.00  0.00    +0.005 A 
ATOM     16  C   UNL     1       1.284   7.065  18.163  0.00  0.00    +0.010 A 
ATOM     17  C   UNL     1       0.001   6.534  18.052  0.00  0.00    +0.004 A 
ATOM     18  C   UNL     1      -0.939   6.788  19.053  0.00  0.00    +0.045 A 
ATOM     19  C   UNL     1      -0.585   7.578  20.154  0.00  0.00    +0.117 A 
ATOM     22  C   UNL     1       0.693   8.106  20.260  0.00  0.00    +0.055 A 
BRANCH  19  20
ATOM     20  O   UNL     1      -1.478   7.845  21.141  0.00  0.00    -0.507 OA
ATOM     21  H   UNL     1      -1.111   7.479  22.054  0.00  0.00    +0.292 HD
ENDBRANCH  19  20
ENDBRANCH  14  15
TORSDOF 4
