REMARK  Name = 4F9C
REMARK  1 active torsions:
REMARK  status: ('A' for Active; 'I' for Inactive)
REMARK    1  A    between atoms: C_5  and  C_6
REMARK                            x       y       z     vdW  Elec       q    Type
REMARK                         _______ _______ _______ _____ _____    ______ ____
ROOT
ATOM      3  C   UNL     1      18.380  19.259  58.519  0.00  0.00    +0.128 C 
ATOM      4  N   UNL     1      17.693  18.070  58.779  0.00  0.00    -0.306 N 
ATOM      5  H   UNL     1      16.648  17.998  58.561  0.00  0.00    +0.170 HD
ATOM      6  C   UNL     1      18.364  16.983  59.319  0.00  0.00    +0.295 C 
ATOM      7  O   UNL     1      17.734  15.931  59.533  0.00  0.00    -0.264 OA
ATOM      8  C   UNL     1      19.677  17.106  59.587  0.00  0.00    +0.218 A 
ATOM      9  O   UNL     1      20.488  16.265  60.068  0.00  0.00    -0.448 OA
ATOM     10  C   UNL     1      21.711  16.797  60.168  0.00  0.00    +0.138 A 
ATOM     11  C   UNL     1      22.855  16.280  60.629  0.00  0.00    +0.048 A 
ATOM     12  C   UNL     1      24.031  17.046  60.625  0.00  0.00    +0.023 A 
ATOM     13  C   UNL     1      23.950  18.357  60.152  0.00  0.00    +0.042 A 
ATOM     14 CL   UNL     1      25.413  19.372  60.123  0.00  0.00    -0.084 Cl
ATOM     15  C   UNL     1      22.718  18.849  59.695  0.00  0.00    +0.034 A 
ATOM     16  C   UNL     1      21.625  18.061  59.712  0.00  0.00    +0.048 A 
ATOM     17  C   UNL     1      20.352  18.254  59.339  0.00  0.00    +0.124 A 
ATOM     18  N   UNL     1      19.703  19.324  58.806  0.00  0.00    -0.228 NA
ENDROOT
BRANCH   3   2
ATOM      1  C   UNL     1      17.309  21.398  58.966  0.00  0.00    +0.028 C 
ATOM      2  C   UNL     1      17.658  20.316  57.947  0.00  0.00    +0.120 C 
ATOM     19  N   UNL     1      16.361  19.792  57.397  0.00  0.00    -0.307 NA
ATOM     20  H   UNL     1      16.345  19.901  56.333  0.00  0.00    +0.123 HD
ATOM     21  C   UNL     1      15.269  20.587  58.004  0.00  0.00    +0.081 C 
ATOM     22  C   UNL     1      15.871  21.067  59.338  0.00  0.00    +0.017 C 
ENDBRANCH   3   2
TORSDOF 1
