REMARK  Name = 3tzm_ligand
REMARK  4 active torsions:
REMARK  status: ('A' for Active; 'I' for Inactive)
REMARK    1  A    between atoms: CAW_9  and  CBB_10
REMARK    2  A    between atoms: CBA_12  and  CAV_13
REMARK    3  A    between atoms: CAU_18  and  CAT_19
REMARK    4  A    between atoms: CBC_23  and  CAX_24
REMARK                            x       y       z     vdW  Elec       q    Type
REMARK                         _______ _______ _______ _____ _____    ______ ____
ROOT
ATOM      3  C   UNL     1       4.650   8.758   5.945  0.00  0.00    +0.038 A 
ATOM      4  C   UNL     1       5.605   9.701   6.332  0.00  0.00    +0.108 A 
ATOM     11  N   UNL     1       5.594   9.737   7.673  0.00  0.00    -0.249 N 
ATOM     12  H   UNL     1       6.193  10.338   8.257  0.00  0.00    +0.237 HD
ATOM     13  C   UNL     1       4.687   8.873   8.134  0.00  0.00    +0.144 A 
ATOM     25  N   UNL     1       4.129   8.277   7.077  0.00  0.00    -0.304 NA
ENDROOT
BRANCH   3   2
ATOM      1  C   UNL     1       2.980   7.842   4.451  0.00  0.00    +0.012 A 
ATOM      2  C   UNL     1       4.291   8.276   4.663  0.00  0.00    -0.037 A 
ATOM     26  C   UNL     1       5.214   8.106   3.620  0.00  0.00    -0.027 A 
ATOM     27  C   UNL     1       4.830   7.554   2.392  0.00  0.00    +0.010 A 
ATOM     28  C   UNL     1       3.514   7.156   2.197  0.00  0.00    +0.123 A 
ATOM     29  O   UNL     1       2.890   6.613   1.114  0.00  0.00    -0.291 OA
ATOM     30  C   UNL     1       1.487   6.539   1.449  0.00  0.00    +0.382 C 
ATOM     31  O   UNL     1       1.362   6.847   2.825  0.00  0.00    -0.291 OA
ATOM     32  C   UNL     1       2.585   7.302   3.233  0.00  0.00    +0.122 A 
ENDBRANCH   3   2
BRANCH   4   5
ATOM      5  C   UNL     1       6.423  10.512   5.523  0.00  0.00    +0.072 A 
ATOM      6  N   UNL     1       5.984  11.075   4.366  0.00  0.00    -0.296 NA
ATOM      7  C   UNL     1       6.774  11.879   3.624  0.00  0.00    +0.087 A 
ATOM      8  C   UNL     1       8.080  12.188   4.036  0.00  0.00    +0.030 A 
ATOM      9  C   UNL     1       8.546  11.633   5.231  0.00  0.00    +0.027 A 
ATOM     10  C   UNL     1       7.705  10.812   5.981  0.00  0.00    +0.040 A 
ENDBRANCH   4   5
BRANCH  13  14
ATOM     14  C   UNL     1       4.370   8.618   9.473  0.00  0.00    +0.033 A 
ATOM     15  C   UNL     1       3.546   7.530   9.801  0.00  0.00    +0.023 A 
ATOM     16  C   UNL     1       3.226   7.254  11.135  0.00  0.00    +0.027 A 
ATOM     17  C   UNL     1       3.719   8.066  12.157  0.00  0.00    +0.051 A 
ATOM     23  C   UNL     1       4.551   9.146  11.840  0.00  0.00    +0.027 A 
ATOM     24  C   UNL     1       4.881   9.419  10.506  0.00  0.00    +0.023 A 
BRANCH  17  18
ATOM     18  C   UNL     1       3.365   7.776  13.619  0.00  0.00    +0.203 C 
ATOM     19  N   UNL     1       2.135   7.302  13.811  0.00  0.00    -0.300 N 
ATOM     20  H   UNL     1       1.525   7.163  13.031  0.00  0.00    +0.181 HD
ATOM     21  H   UNL     1       1.821   7.085  14.736  0.00  0.00    +0.181 HD
ATOM     22  O   UNL     1       4.168   8.005  14.532  0.00  0.00    -0.385 OA
ENDBRANCH  17  18
ENDBRANCH  13  14
TORSDOF 4
