REMARK  Name = 1r78_ligand
REMARK  11 active torsions:
REMARK  status: ('A' for Active; 'I' for Inactive)
REMARK    1  A    between atoms: C2_3  and  C18_4
REMARK    2  A    between atoms: C19_5  and  C20_6
REMARK    3  A    between atoms: C20_6  and  O27_7
REMARK    4  A    between atoms: C20_6  and  C23_8
REMARK    5  A    between atoms: C23_8  and  N28_9
REMARK    6  A    between atoms: C23_8  and  C24_10
REMARK    7  A    between atoms: C24_10  and  O26_11
REMARK    8  A    between atoms: C24_10  and  C25_12
REMARK    9  A    between atoms: C11_21  and  C12_22
REMARK   10  A    between atoms: C13_23  and  O21_24
REMARK   11  A    between atoms: O21_24  and  C22_25
REMARK                            x       y       z     vdW  Elec       q    Type
REMARK                         _______ _______ _______ _____ _____    ______ ____
ROOT
ATOM      1  F   UNL     1      16.820  -6.294  12.779  0.00  0.00    -0.195 F 
ATOM      2  C   UNL     1      16.024  -7.208  13.363  0.00  0.00    +0.127 A 
ATOM      3  C   UNL     1      16.366  -7.720  14.623  0.00  0.00    +0.007 A 
ATOM      4  C   UNL     1      15.558  -8.685  15.255  0.00  0.00    +0.001 A 
ATOM      5  C   UNL     1      14.416  -9.125  14.601  0.00  0.00    +0.063 A 
ATOM      6  N   UNL     1      13.440 -10.033  14.962  0.00  0.00    -0.243 N 
ATOM      7  H   UNL     1      13.451 -10.526  15.832  0.00  0.00    +0.223 HD
ATOM      8  C   UNL     1      12.430 -10.203  13.999  0.00  0.00    +0.206 C 
ATOM      9  C   UNL     1      12.887  -9.235  12.944  0.00  0.00    +0.033 C 
ATOM     10  C   UNL     1      12.151  -9.008  11.689  0.00  0.00    +0.040 C 
ATOM     19  O   UNL     1      11.492 -10.964  14.129  0.00  0.00    -0.390 OA
ATOM     20  C   UNL     1      14.035  -8.616  13.321  0.00  0.00    +0.006 A 
ATOM     21  C   UNL     1      14.877  -7.607  12.658  0.00  0.00    +0.044 A 
ENDROOT
BRANCH  10  11
ATOM     11  C   UNL     1      10.890  -9.521  11.157  0.00  0.00    +0.094 A 
ATOM     12  N   UNL     1      10.141 -10.458  11.840  0.00  0.00    -0.284 N 
ATOM     13  H   UNL     1      10.391 -10.874  12.749  0.00  0.00    +0.228 HD
ATOM     14  C   UNL     1       9.023 -10.745  11.126  0.00  0.00    +0.122 A 
ATOM     15  C   UNL     1       9.036 -10.021   9.977  0.00  0.00    +0.005 A 
ATOM     16  C   UNL     1      10.257  -9.222   9.966  0.00  0.00    +0.098 A 
BRANCH  16  17
ATOM     17  O   UNL     1      10.702  -8.329   9.010  0.00  0.00    -0.331 OA
ATOM     18  C   UNL     1      10.250  -8.469   7.653  0.00  0.00    +0.230 C 
ENDBRANCH  16  17
ENDBRANCH  10  11
BRANCH  21  22
ATOM     22  C   UNL     1      14.588  -7.039  11.402  0.00  0.00    -0.074 C 
ATOM     23  C   UNL     1      14.326  -6.571  10.333  0.00  0.00    -0.067 C 
BRANCH  23  24
ATOM     24  C   UNL     1      13.963  -6.027   9.086  0.00  0.00    +0.236 C 
BRANCH  24  34
ATOM     34  O   UNL     1      14.161  -4.611   9.140  0.00  0.00    -0.374 OA
ATOM     35  H   UNL     1      13.921  -4.227   8.305  0.00  0.00    +0.211 HD
ENDBRANCH  24  34
BRANCH  24  25
ATOM     25  C   UNL     1      14.603  -6.731   7.862  0.00  0.00    +0.130 C 
BRANCH  25  30
ATOM     30  N   UNL     1      15.006  -8.116   8.140  0.00  0.00    +0.225 N 
ATOM     31  H   UNL     1      15.683  -8.126   8.886  0.00  0.00    +0.200 HD
ATOM     32  H   UNL     1      14.198  -8.653   8.413  0.00  0.00    +0.200 HD
ATOM     33  H   UNL     1      15.414  -8.520   7.311  0.00  0.00    +0.200 HD
ENDBRANCH  25  30
BRANCH  25  26
ATOM     26  C   UNL     1      13.526  -6.726   6.761  0.00  0.00    +0.163 C 
ATOM     27  C   UNL     1      12.550  -5.532   6.867  0.00  0.00    +0.043 C 
BRANCH  26  28
ATOM     28  O   UNL     1      14.086  -6.757   5.441  0.00  0.00    -0.386 OA
ATOM     29  H   UNL     1      13.384  -6.753   4.800  0.00  0.00    +0.210 HD
ENDBRANCH  26  28
ENDBRANCH  25  26
ENDBRANCH  24  25
ENDBRANCH  23  24
ENDBRANCH  21  22
TORSDOF 9
