REMARK  Name = 3nga_ligand
REMARK  2 active torsions:
REMARK  status: ('A' for Active; 'I' for Inactive)
REMARK    1  A    between atoms: C5_5  and  C23_23
REMARK    2  A    between atoms: N15_15  and  C16_16
REMARK                            x       y       z     vdW  Elec       q    Type
REMARK                         _______ _______ _______ _____ _____    ______ ____
ROOT
ATOM      1  C   UNL     1      46.187  -4.719  37.631  0.00  0.00    +0.031 A 
ATOM      2  N   UNL     1      46.570  -4.675  36.335  0.00  0.00    -0.283 NA
ATOM      3  C   UNL     1      45.974  -5.454  35.449  0.00  0.00    +0.152 A 
ATOM      4  N   UNL     1      46.375  -5.396  34.165  0.00  0.00    -0.250 N 
ATOM      5  H   UNL     1      45.874  -6.029  33.542  0.00  0.00    +0.220 HD
ATOM     13  C   UNL     1      44.920  -6.345  35.823  0.00  0.00    +0.059 A 
ATOM     14  C   UNL     1      44.267  -7.194  34.899  0.00  0.00    +0.058 A 
ATOM     15  C   UNL     1      43.242  -8.008  35.348  0.00  0.00    +0.095 A 
ATOM     16  N   UNL     1      42.843  -8.085  36.637  0.00  0.00    -0.292 NA
ATOM     17  C   UNL     1      43.465  -7.271  37.514  0.00  0.00    +0.111 A 
ATOM     18  C   UNL     1      44.509  -6.391  37.188  0.00  0.00    +0.027 A 
ATOM     19  C   UNL     1      46.865  -3.889  38.544  0.00  0.00    +0.030 A 
ATOM     20  C   UNL     1      46.495  -3.837  39.886  0.00  0.00    +0.010 A 
ATOM     24  C   UNL     1      45.465  -4.655  40.364  0.00  0.00    +0.015 A 
ATOM     25  C   UNL     1      44.811  -5.515  39.498  0.00  0.00    +0.014 A 
ATOM     26  C   UNL     1      45.151  -5.553  38.122  0.00  0.00    +0.006 A 
ENDROOT
BRANCH   4   6
ATOM      6  C   UNL     1      47.354  -4.625  33.530  0.00  0.00    +0.067 A 
ATOM      7  C   UNL     1      47.067  -4.218  32.216  0.00  0.00    +0.017 A 
ATOM      8  C   UNL     1      47.979  -3.473  31.475  0.00  0.00    -0.012 A 
ATOM      9  C   UNL     1      49.202  -3.136  32.028  0.00  0.00    -0.006 A 
ATOM     10  C   UNL     1      49.485  -3.524  33.333  0.00  0.00    +0.032 A 
ATOM     11 CL   UNL     1      50.988  -3.052  34.007  0.00  0.00    -0.074 Cl
ATOM     12  C   UNL     1      48.582  -4.283  34.091  0.00  0.00    +0.031 A 
ENDBRANCH   4   6
BRANCH  20  21
ATOM     21  C   UNL     1      47.178  -2.882  40.776  0.00  0.00    +0.064 C 
ATOM     22  O   UNL     1      46.556  -2.546  41.845  0.00  0.00    -0.560 OA
ATOM     23  O   UNL     1      48.302  -2.438  40.351  0.00  0.00    -0.560 OA
ENDBRANCH  20  21
TORSDOF 2
