REMARK  Name = 3zlw_ligand
REMARK  2 active torsions:
REMARK  status: ('A' for Active; 'I' for Inactive)
REMARK    1  A    between atoms: C1_1  and  O1_2
REMARK    2  A    between atoms: C1_1  and  C6_5
REMARK                            x       y       z     vdW  Elec       q    Type
REMARK                         _______ _______ _______ _____ _____    ______ ____
ROOT
ATOM      1  C   UNL     1     -17.269  29.354  -3.035  0.00  0.00    +0.036 C 
ATOM      2  C   UNL     1     -17.619  27.865  -3.168  0.00  0.00    -0.013 A 
ATOM      3  C   UNL     1     -18.976  27.445  -3.060  0.00  0.00    +0.113 A 
ATOM      4  C   UNL     1     -19.278  26.068  -3.164  0.00  0.00    +0.017 A 
ATOM      5  C   UNL     1     -18.244  25.156  -3.383  0.00  0.00    +0.027 A 
ATOM      6  C   UNL     1     -16.928  25.580  -3.504  0.00  0.00    +0.002 A 
ATOM      7  C   UNL     1     -20.693  25.598  -2.940  0.00  0.00    +0.089 C 
ATOM      8  C   UNL     1     -21.733  26.623  -3.300  0.00  0.00    +0.162 C 
ATOM      9  C   UNL     1     -21.424  28.034  -2.880  0.00  0.00    +0.226 C 
ATOM     10  O   UNL     1     -22.344  28.800  -2.595  0.00  0.00    -0.374 OA
ATOM     11  N   UNL     1     -20.102  28.391  -2.825  0.00  0.00    -0.195 N 
ATOM     12  C   UNL     1     -19.699  29.760  -2.449  0.00  0.00    +0.183 C 
ATOM     13  C   UNL     1     -16.612  26.928  -3.395  0.00  0.00    +0.011 A 
ATOM     14  C   UNL     1     -16.108  29.755  -3.959  0.00  0.00    -0.037 C 
ATOM     15  C   UNL     1     -18.494  30.236  -3.251  0.00  0.00    +0.004 C 
ENDROOT
BRANCH   1  16
ATOM     16  O   UNL     1     -16.855  29.596  -1.748  0.00  0.00    -0.441 OA
ATOM     17  H   UNL     1     -16.088  29.068  -1.559  0.00  0.00    +0.190 HD
ENDBRANCH   1  16
TORSDOF 1
