REMARK  Name = 2yer_ligand
REMARK  3 active torsions:
REMARK  status: ('A' for Active; 'I' for Inactive)
REMARK    1  A    between atoms: C6_7  and  C3_10
REMARK    2  A    between atoms: C10_12  and  C20_15
REMARK    3  A    between atoms: C20_15  and  O21_21
REMARK                            x       y       z     vdW  Elec       q    Type
REMARK                         _______ _______ _______ _____ _____    ______ ____
ROOT
ATOM      6  C   UNL     1       0.671  36.482  11.716  0.00  0.00    -0.013 A 
ATOM      7  C   UNL     1       1.287  36.071  10.595  0.00  0.00    +0.025 A 
ATOM      8  C   UNL     1       2.587  36.663  10.217  0.00  0.00    +0.113 A 
ATOM      9  N   UNL     1       3.240  36.315   9.164  0.00  0.00    -0.141 N 
ATOM     10  C   UNL     1       2.943  35.269   8.092  0.00  0.00    +0.345 A 
ATOM     11  O   UNL     1       1.954  34.559   8.099  0.00  0.00    -0.396 OA
ATOM     12  N   UNL     1       4.047  35.403   7.300  0.00  0.00    -0.186 N 
ATOM     13  H   UNL     1       4.196  34.862   6.448  0.00  0.00    +0.236 HD
ATOM     14  N   UNL     1       4.932  36.336   7.764  0.00  0.00    -0.230 NA
ATOM     15  C   UNL     1       4.459  36.846   8.822  0.00  0.00    +0.145 A 
ATOM     16  C   UNL     1       5.032  37.785   9.566  0.00  0.00    +0.026 A 
ATOM     17  C   UNL     1       4.339  38.211  10.747  0.00  0.00    -0.008 A 
ATOM     21  C   UNL     1       3.153  37.692  11.109  0.00  0.00    +0.020 A 
ATOM     22  C   UNL     1       2.426  38.055  12.281  0.00  0.00    -0.002 A 
ATOM     23  C   UNL     1       1.259  37.484  12.564  0.00  0.00    -0.014 A 
ENDROOT
BRANCH   6   5
ATOM      1  C   UNL     1      -2.476  35.523  13.093  0.00  0.00    -0.046 A 
ATOM      2  C   UNL     1      -2.399  34.543  12.134  0.00  0.00    +0.105 A 
ATOM      3  N   UNL     1      -1.186  34.748  11.439  0.00  0.00    -0.286 N 
ATOM      4  H   UNL     1      -0.837  34.183  10.665  0.00  0.00    +0.233 HD
ATOM      5  C   UNL     1      -0.556  35.843  11.987  0.00  0.00    +0.056 A 
ATOM     24  C   UNL     1      -1.359  36.304  12.998  0.00  0.00    -0.038 A 
ENDBRANCH   6   5
BRANCH  17  18
ATOM     18  C   UNL     1       5.032  39.228  11.575  0.00  0.00    +0.227 C 
BRANCH  18  19
ATOM     19  O   UNL     1       5.534  38.543  12.716  0.00  0.00    -0.381 OA
ATOM     20  H   UNL     1       5.993  39.165  13.285  0.00  0.00    +0.213 HD
ENDBRANCH  18  19
ENDBRANCH  17  18
TORSDOF 3
