REMARK  Name = 5JK3
REMARK  7 active torsions:
REMARK  status: ('A' for Active; 'I' for Inactive)
REMARK    1  A    between atoms: C_1  and  N_14
REMARK    2  A    between atoms: C_4  and  N_23
REMARK    3  A    between atoms: C_5  and  C_24
REMARK    4  A    between atoms: C_5  and  C_25
REMARK    5  A    between atoms: N_11  and  C_12
REMARK    6  A    between atoms: C_18  and  O_19
REMARK    7  A    between atoms: O_19  and  C_20
REMARK                            x       y       z     vdW  Elec       q    Type
REMARK                         _______ _______ _______ _____ _____    ______ ____
ROOT
ATOM      6  N   UNL     1     -16.454 -47.364 -17.065  0.00  0.00    -0.281 N 
ATOM      7  H   UNL     1     -16.282 -46.629 -17.823  0.00  0.00    +0.155 HD
ATOM      8  C   UNL     1     -15.145 -47.672 -16.503  0.00  0.00    +0.223 A 
ATOM      9  N   UNL     1     -14.653 -48.900 -16.565  0.00  0.00    -0.178 NA
ATOM     10  C   UNL     1     -13.462 -49.185 -16.060  0.00  0.00    +0.243 A 
ATOM     24  C   UNL     1     -12.722 -48.174 -15.448  0.00  0.00    +0.121 A 
ATOM     25  C   UNL     1     -13.278 -46.904 -15.406  0.00  0.00    +0.139 A 
ATOM     26 CL   UNL     1     -11.114 -48.491 -14.745  0.00  0.00    -0.076 Cl
ATOM     27  N   UNL     1     -14.470 -46.692 -15.934  0.00  0.00    -0.221 NA
ENDROOT
BRANCH   6   5
ATOM      1  C   UNL     1     -18.062 -51.398 -19.420  0.00  0.00    +0.172 C 
ATOM      2  N   UNL     1     -18.032 -50.131 -18.707  0.00  0.00    -0.273 N 
ATOM      3  N   UNL     1     -19.139 -49.402 -18.362  0.00  0.00    -0.178 NA
ATOM      4  C   UNL     1     -18.711 -48.307 -17.722  0.00  0.00    +0.157 A 
ATOM      5  C   UNL     1     -17.322 -48.366 -17.670  0.00  0.00    +0.071 A 
ATOM     28  C   UNL     1     -16.940 -49.523 -18.306  0.00  0.00    +0.131 A 
ENDBRANCH   6   5
BRANCH  10  11
ATOM     11  O   UNL     1     -12.910 -50.490 -16.102  0.00  0.00    -0.435 OA
BRANCH  11  12
ATOM     12  C   UNL     1     -13.496 -51.391 -17.011  0.00  0.00    +0.152 A 
ATOM     13  C   UNL     1     -12.690 -52.001 -17.966  0.00  0.00    +0.076 A 
ATOM     20  C   UNL     1     -13.227 -52.904 -18.870  0.00  0.00    +0.027 A 
ATOM     21  C   UNL     1     -14.578 -53.214 -18.818  0.00  0.00    +0.002 A 
ATOM     22  C   UNL     1     -15.386 -52.619 -17.860  0.00  0.00    +0.004 A 
ATOM     23  C   UNL     1     -14.843 -51.718 -16.954  0.00  0.00    +0.048 A 
BRANCH  13  14
ATOM     14  N   UNL     1     -11.276 -51.673 -18.015  0.00  0.00    -0.283 N 
ATOM     15  H   UNL     1     -10.757 -52.570 -18.281  0.00  0.00    +0.155 HD
ATOM     16  C   UNL     1     -10.817 -50.635 -18.920  0.00  0.00    +0.217 C 
ATOM     17  O   UNL     1     -11.591 -50.067 -19.607  0.00  0.00    -0.276 OA
BRANCH  16  18
ATOM     18  C   UNL     1      -9.334 -50.276 -18.972  0.00  0.00    +0.093 C 
ATOM     19  C   UNL     1      -9.096 -48.904 -18.354  0.00  0.00    +0.013 C 
ENDBRANCH  16  18
ENDBRANCH  13  14
ENDBRANCH  11  12
ENDBRANCH  10  11
TORSDOF 5
