REMARK  Name = 3qcx_ligand
REMARK  3 active torsions:
REMARK  status: ('A' for Active; 'I' for Inactive)
REMARK    1  A    between atoms: C6_6  and  C8_8
REMARK    2  A    between atoms: C10_10  and  N22_22
REMARK    3  A    between atoms: C15_15  and  C16_16
REMARK                            x       y       z     vdW  Elec       q    Type
REMARK                         _______ _______ _______ _____ _____    ______ ____
ROOT
ATOM     13  C   UNL     1     -44.188  17.133  11.677  0.00  0.00    +0.038 A 
ATOM     14  N   UNL     1     -45.144  16.421  11.068  0.00  0.00    -0.271 NA
ATOM     15  C   UNL     1     -46.258  17.072  10.673  0.00  0.00    +0.167 A 
ATOM     16  N   UNL     1     -47.281  16.382  10.028  0.00  0.00    -0.307 N 
ATOM     17  H   UNL     1     -48.128  16.883   9.724  0.00  0.00    +0.182 HD
ATOM     18  H   UNL     1     -47.191  15.371   9.855  0.00  0.00    +0.182 HD
ATOM     19  N   UNL     1     -46.479  18.374  10.845  0.00  0.00    -0.245 NA
ATOM     20  C   UNL     1     -45.524  19.070  11.471  0.00  0.00    +0.114 A 
ATOM     21  N   UNL     1     -45.691  20.468  11.654  0.00  0.00    -0.283 N 
ATOM     22  C   UNL     1     -44.748  21.109  12.573  0.00  0.00    +0.122 C 
ATOM     23  C   UNL     1     -45.204  21.040  14.005  0.00  0.00    +0.037 C 
ATOM     24  C   UNL     1     -44.744  22.551  12.117  0.00  0.00    +0.187 C 
ATOM     25  O   UNL     1     -46.078  23.073  12.225  0.00  0.00    -0.375 OA
ATOM     26  C   UNL     1     -46.977  22.392  11.348  0.00  0.00    +0.184 C 
ATOM     27  C   UNL     1     -47.061  20.929  11.730  0.00  0.00    +0.165 C 
ATOM     28  C   UNL     1     -44.354  18.477  11.895  0.00  0.00    +0.055 A 
ENDROOT
BRANCH  13  12
ATOM      1  C   UNL     1     -40.685  16.455  12.935  0.00  0.00    +0.030 A 
ATOM      2  C   UNL     1     -40.615  15.077  12.719  0.00  0.00    +0.079 A 
ATOM      3  C   UNL     1     -39.652  14.024  12.886  0.00  0.00    +0.241 A 
ATOM      7  N   UNL     1     -40.152  12.840  12.500  0.00  0.00    -0.255 N 
ATOM      8  H   UNL     1     -39.682  11.924  12.510  0.00  0.00    +0.254 HD
ATOM      9  N   UNL     1     -41.404  13.119  12.098  0.00  0.00    -0.440 NA
ATOM     10  C   UNL     1     -41.737  14.443  12.214  0.00  0.00    -0.048 A 
ATOM     11  C   UNL     1     -42.910  15.075  11.878  0.00  0.00    +0.012 A 
ATOM     12  C   UNL     1     -42.972  16.435  12.080  0.00  0.00    -0.001 A 
ATOM     29  C   UNL     1     -41.875  17.093  12.612  0.00  0.00    +0.018 A 
BRANCH   3   4
ATOM      4  N   UNL     1     -38.384  14.187  13.382  0.00  0.00    -0.261 N 
ATOM      5  H   UNL     1     -37.759  13.374  13.475  0.00  0.00    +0.210 HD
ATOM      6  H   UNL     1     -38.057  15.123  13.662  0.00  0.00    +0.210 HD
ENDBRANCH   3   4
ENDBRANCH  13  12
TORSDOF 2
