REMARK  Name = 2xm9_ligand
REMARK  4 active torsions:
REMARK  status: ('A' for Active; 'I' for Inactive)
REMARK    1  A    between atoms: C08_8  and  C17_17
REMARK    2  A    between atoms: C11_11  and  N15_15
REMARK    3  A    between atoms: C18_18  and  O28_28
REMARK    4  A    between atoms: C21_21  and  C23_23
REMARK                            x       y       z     vdW  Elec       q    Type
REMARK                         _______ _______ _______ _____ _____    ______ ____
ROOT
ATOM      1  C   UNL     1      45.579 -19.156  -7.415  0.00  0.00    +0.027 A 
ATOM      2  C   UNL     1      46.280 -17.974  -7.661  0.00  0.00    +0.052 A 
ATOM      3  C   UNL     1      46.122 -17.306  -8.862  0.00  0.00    +0.141 A 
ATOM      4  N   UNL     1      45.245 -17.767  -9.900  0.00  0.00    -0.285 N 
ATOM      5  H   UNL     1      44.843 -18.701  -9.823  0.00  0.00    +0.192 HD
ATOM     13  N   UNL     1      46.812 -16.165  -9.071  0.00  0.00    -0.255 NA
ATOM     14  C   UNL     1      47.668 -15.686  -8.113  0.00  0.00    +0.093 A 
ATOM     29  N   UNL     1      47.823 -16.341  -6.915  0.00  0.00    -0.296 NA
ATOM     30  C   UNL     1      47.133 -17.473  -6.693  0.00  0.00    +0.039 A 
ATOM     31  C   UNL     1      47.288 -18.144  -5.482  0.00  0.00    +0.020 A 
ATOM     32  C   UNL     1      46.589 -19.315  -5.241  0.00  0.00    +0.011 A 
ATOM     33  C   UNL     1      45.740 -19.817  -6.205  0.00  0.00    +0.007 A 
ENDROOT
BRANCH   4   6
ATOM      6  C   UNL     1      44.909 -16.958 -11.053  0.00  0.00    +0.151 C 
ATOM      7  C   UNL     1      43.980 -17.561 -12.053  0.00  0.00    +0.085 C 
ATOM      8  C   UNL     1      43.703 -16.361 -12.883  0.00  0.00    +0.132 C 
ATOM      9  N   UNL     1      43.416 -15.337 -11.889  0.00  0.00    +0.229 N 
ATOM     10  H   UNL     1      42.460 -15.405 -11.539  0.00  0.00    +0.201 HD
ATOM     11  H   UNL     1      43.484 -14.398 -12.281  0.00  0.00    +0.201 HD
ATOM     12  C   UNL     1      44.411 -15.560 -10.819  0.00  0.00    +0.159 C 
ENDBRANCH   4   6
BRANCH  14  15
ATOM     15  C   UNL     1      48.332 -14.387  -8.416  0.00  0.00    +0.046 A 
ATOM     16  C   UNL     1      47.997 -13.725  -9.604  0.00  0.00    +0.018 A 
ATOM     17  C   UNL     1      48.528 -12.474  -9.887  0.00  0.00    -0.019 A 
ATOM     24  C   UNL     1      49.328 -11.864  -8.926  0.00  0.00    +0.005 A 
ATOM     25  C   UNL     1      49.595 -12.488  -7.704  0.00  0.00    +0.030 A 
ATOM     26  C   UNL     1      49.060 -13.738  -7.427  0.00  0.00    +0.107 A 
BRANCH  17  18
ATOM     18  C   UNL     1      48.249 -11.792 -11.197  0.00  0.00    +0.030 A 
ATOM     19  N   UNL     1      47.818 -12.381 -12.363  0.00  0.00    -0.218 NA
ATOM     20  N   UNL     1      47.698 -11.436 -13.334  0.00  0.00    -0.223 N 
ATOM     21  H   UNL     1      47.396 -11.601 -14.294  0.00  0.00    +0.258 HD
ATOM     22  C   UNL     1      48.060 -10.198 -12.788  0.00  0.00    +0.146 A 
ATOM     23  C   UNL     1      48.405 -10.420 -11.475  0.00  0.00    -0.009 A 
ENDBRANCH  17  18
BRANCH  26  27
ATOM     27  O   UNL     1      49.309 -14.378  -6.232  0.00  0.00    -0.327 OA
ATOM     28  H   UNL     1      48.857 -15.225  -6.224  0.00  0.00    +0.252 HD
ENDBRANCH  26  27
ENDBRANCH  14  15
TORSDOF 4
