REMARK  Name = ASVQ
REMARK  2 active torsions:
REMARK  status: ('A' for Active; 'I' for Inactive)
REMARK    1  A    between atoms: C8_3  and  C7_4
REMARK    2  A    between atoms: C7_4  and  C2_5
REMARK                            x       y       z     vdW  Elec       q    Type
REMARK                         _______ _______ _______ _____ _____    ______ ____
ROOT
ATOM      4  C   UNL     1      55.974  17.794  11.909  0.00  0.00    -0.021 A 
ATOM      5  C   UNL     1      54.988  16.986  12.457  0.00  0.00    -0.003 A 
ATOM      6  C   UNL     1      53.921  16.569  11.684  0.00  0.00    +0.011 A 
ATOM      7  C   UNL     1      53.852  16.965  10.347  0.00  0.00    +0.058 A 
ATOM      8  C   UNL     1      54.832  17.774   9.785  0.00  0.00    +0.011 A 
ATOM      9 CL   UNL     1      52.485  16.412   9.337  0.00  0.00    -0.082 Cl
ATOM     10  C   UNL     1      55.899  18.181  10.577  0.00  0.00    -0.003 A 
ENDROOT
BRANCH   4   3
ATOM      3  C   UNL     1      57.141  18.227  12.773  0.00  0.00    +0.047 C 
BRANCH   3   2
ATOM      1  N   UNL     1      59.128  17.150  13.850  0.00  0.00    -0.131 NA
ATOM      2  C   UNL     1      57.936  16.949  13.029  0.00  0.00    +0.114 C 
ENDBRANCH   3   2
ENDBRANCH   4   3
TORSDOF 2
