REMARK  Name = 1S9J
REMARK  9 active torsions:
REMARK  status: ('A' for Active; 'I' for Inactive)
REMARK    1  A    between atoms: C_2  and  C_10
REMARK    2  A    between atoms: N_3  and  O_4
REMARK    3  A    between atoms: O_4  and  C_5
REMARK    4  A    between atoms: C_5  and  C_6
REMARK    5  A    between atoms: C_6  and  C_7
REMARK    6  A    between atoms: C_6  and  O_9
REMARK    7  A    between atoms: C_7  and  O_8
REMARK    8  A    between atoms: C_18  and  N_19
REMARK    9  A    between atoms: N_19  and  C_20
REMARK                            x       y       z     vdW  Elec       q    Type
REMARK                         _______ _______ _______ _____ _____    ______ ____
ROOT
ATOM      3  C   UNL     1      30.849  27.387  39.707  0.00  0.00    +0.064 A 
ATOM      4  C   UNL     1      31.599  26.519  40.678  0.00  0.00    +0.082 A 
ATOM     15  C   UNL     1      31.717  25.061  40.388  0.00  0.00    +0.181 A 
ATOM     16  F   UNL     1      32.361  24.263  41.277  0.00  0.00    -0.201 F 
ATOM     17  C   UNL     1      31.094  24.536  39.132  0.00  0.00    +0.174 A 
ATOM     18  F   UNL     1      31.174  23.236  38.745  0.00  0.00    -0.201 F 
ATOM     19  C   UNL     1      30.374  25.487  38.243  0.00  0.00    +0.057 A 
ATOM     20 BR   UNL     1      29.564  24.839  36.661  0.00  0.00    -0.047 Br
ATOM     21  C   UNL     1      30.275  26.843  38.555  0.00  0.00    +0.033 A 
ENDROOT
BRANCH   3   2
ATOM      1  O   UNL     1      30.552  29.231  41.114  0.00  0.00    -0.268 OA
ATOM      2  C   UNL     1      30.671  28.858  39.959  0.00  0.00    +0.269 C 
ATOM     22  N   UNL     1      30.599  29.713  38.940  0.00  0.00    -0.190 N 
ATOM     23  H   UNL     1      30.976  29.440  37.977  0.00  0.00    +0.183 HD
BRANCH  22  24
ATOM     24  O   UNL     1      30.009  31.006  39.150  0.00  0.00    -0.277 OA
BRANCH  24  25
ATOM     25  C   UNL     1      28.711  31.313  38.642  0.00  0.00    +0.223 C 
BRANCH  25  26
ATOM     26  C   UNL     1      27.694  31.376  39.779  0.00  0.00    +0.168 C 
BRANCH  26  27
ATOM     27  O   UNL     1      28.214  32.104  40.900  0.00  0.00    -0.387 OA
ATOM     28  H   UNL     1      29.082  31.631  41.253  0.00  0.00    +0.210 HD
ENDBRANCH  26  27
BRANCH  26  29
ATOM     29  C   UNL     1      26.428  32.059  39.278  0.00  0.00    +0.189 C 
BRANCH  29  30
ATOM     30  O   UNL     1      26.665  33.466  39.165  0.00  0.00    -0.392 OA
ATOM     31  H   UNL     1      26.926  33.854  40.105  0.00  0.00    +0.209 HD
ENDBRANCH  29  30
ENDBRANCH  26  29
ENDBRANCH  25  26
ENDBRANCH  24  25
ENDBRANCH  22  24
ENDBRANCH   3   2
BRANCH   4   5
ATOM      5  N   UNL     1      32.182  27.030  41.804  0.00  0.00    -0.309 N 
ATOM      6  H   UNL     1      31.544  27.436  42.561  0.00  0.00    +0.152 HD
BRANCH   5   7
ATOM      7  C   UNL     1      33.549  27.054  42.024  0.00  0.00    +0.067 A 
ATOM      8  C   UNL     1      34.499  26.319  41.301  0.00  0.00    +0.027 A 
ATOM      9  C   UNL     1      35.865  26.393  41.611  0.00  0.00    +0.016 A 
ATOM     10  C   UNL     1      36.360  27.190  42.649  0.00  0.00    +0.016 A 
ATOM     11  C   UNL     1      35.456  27.941  43.397  0.00  0.00    +0.054 A 
ATOM     12  I   UNL     1      38.431  27.256  43.053  0.00  0.00    -0.044 I 
ATOM     13  C   UNL     1      34.085  27.897  43.124  0.00  0.00    +0.145 A 
ATOM     14  F   UNL     1      33.222  28.621  43.853  0.00  0.00    -0.203 F 
ENDBRANCH   5   7
ENDBRANCH   4   5
TORSDOF 9
