REMARK  Name = 3qri_ligand
REMARK  11 active torsions:
REMARK  status: ('A' for Active; 'I' for Inactive)
REMARK    1  A    between atoms: C1_1  and  N49_26
REMARK    2  A    between atoms: C24_13  and  C70_34
REMARK    3  A    between atoms: C26_15  and  O65_32
REMARK    4  A    between atoms: C36_19  and  O65_32
REMARK    5  A    between atoms: C39_22  and  N60_30
REMARK    6  A    between atoms: C46_23  and  C79_38
REMARK    7  A    between atoms: C48_25  and  N56_28
REMARK    8  A    between atoms: N74_36  and  C76_37
REMARK    9  A    between atoms: C79_38  and  C81_39
REMARK   10  A    between atoms: C79_38  and  C83_40
REMARK   11  A    between atoms: C79_38  and  C85_41
REMARK                            x       y       z     vdW  Elec       q    Type
REMARK                         _______ _______ _______ _____ _____    ______ ____
ROOT
ATOM     11  N   UNL     1      27.522  10.607  28.733  0.00  0.00    -0.180 N 
ATOM     12  H   UNL     1      28.039   9.963  29.297  0.00  0.00    +0.234 HD
ATOM     13  C   UNL     1      27.600  11.919  29.040  0.00  0.00    +0.320 C 
ATOM     14  O   UNL     1      27.033  12.787  28.377  0.00  0.00    -0.380 OA
ATOM     15  N   UNL     1      28.347  12.222  30.116  0.00  0.00    -0.218 N 
ATOM     16  H   UNL     1      28.795  11.460  30.584  0.00  0.00    +0.222 HD
ENDROOT
BRANCH  15  17
ATOM     17  C   UNL     1      28.553  13.471  30.631  0.00  0.00    +0.092 A 
ATOM     18  C   UNL     1      29.681  13.717  31.413  0.00  0.00    +0.145 A 
ATOM     19  F   UNL     1      30.593  12.768  31.617  0.00  0.00    -0.196 F 
ATOM     20  C   UNL     1      29.905  14.954  31.997  0.00  0.00    +0.044 A 
ATOM     21  C   UNL     1      28.991  15.985  31.808  0.00  0.00    +0.103 A 
ATOM     34  C   UNL     1      27.855  15.750  31.045  0.00  0.00    +0.004 A 
ATOM     35  C   UNL     1      27.622  14.502  30.466  0.00  0.00    -0.003 A 
BRANCH  21  22
ATOM     22  O   UNL     1      29.224  17.183  32.434  0.00  0.00    -0.257 OA
BRANCH  22  23
ATOM     23  C   UNL     1      29.008  18.459  31.985  0.00  0.00    +0.138 A 
ATOM     24  C   UNL     1      29.292  18.832  30.684  0.00  0.00    +0.070 A 
ATOM     25  C   UNL     1      29.089  20.152  30.300  0.00  0.00    +0.086 A 
ATOM     26  N   UNL     1      28.633  21.058  31.180  0.00  0.00    -0.292 NA
ATOM     27  C   UNL     1      28.331  20.722  32.446  0.00  0.00    +0.112 A 
ATOM     33  C   UNL     1      28.531  19.410  32.876  0.00  0.00    +0.088 A 
BRANCH  27  28
ATOM     28  C   UNL     1      27.810  21.782  33.389  0.00  0.00    +0.221 C 
ATOM     29  N   UNL     1      27.805  23.051  32.993  0.00  0.00    -0.287 N 
ATOM     30  H   UNL     1      27.956  23.264  32.028  0.00  0.00    +0.184 HD
ATOM     31  C   UNL     1      27.585  24.131  33.934  0.00  0.00    +0.164 C 
ATOM     32  O   UNL     1      27.414  21.453  34.496  0.00  0.00    -0.379 OA
ENDBRANCH  27  28
ENDBRANCH  22  23
ENDBRANCH  21  22
ENDBRANCH  15  17
BRANCH  11  10
ATOM      2  N   UNL     1      26.457   8.788  27.717  0.00  0.00    -0.101 N 
ATOM      3  N   UNL     1      25.659   8.411  26.640  0.00  0.00    -0.165 NA
ATOM      4  C   UNL     1      25.505   9.567  25.991  0.00  0.00    -0.003 A 
ATOM      9  C   UNL     1      26.091  10.645  26.625  0.00  0.00    +0.004 A 
ATOM     10  C   UNL     1      26.781  10.102  27.699  0.00  0.00    +0.220 A 
BRANCH   2   1
ATOM      1  C   UNL     1      26.540   7.935  28.759  0.00  0.00    +0.135 A 
ATOM     36  C   UNL     1      26.224   8.225  30.090  0.00  0.00    +0.056 A 
ATOM     37  C   UNL     1      26.350   7.282  31.125  0.00  0.00    +0.005 A 
ATOM     38  C   UNL     1      26.030   7.611  32.442  0.00  0.00    +0.039 A 
ATOM     39  C   UNL     1      26.270   6.679  33.448  0.00  0.00    +0.036 A 
ATOM     40  C   UNL     1      26.548   5.360  33.087  0.00  0.00    +0.094 A 
ATOM     41  N   UNL     1      26.980   5.104  31.839  0.00  0.00    -0.297 NA
ATOM     42  C   UNL     1      26.892   6.036  30.863  0.00  0.00    +0.044 A 
ATOM     43  C   UNL     1      27.130   5.685  29.541  0.00  0.00    +0.027 A 
ATOM     44  C   UNL     1      26.992   6.631  28.532  0.00  0.00    +0.054 A 
ENDBRANCH   2   1
BRANCH   4   5
ATOM      5  C   UNL     1      24.490   9.705  24.886  0.00  0.00    -0.045 C 
ATOM      6  C   UNL     1      23.464   8.579  24.989  0.00  0.00    -0.045 C 
ATOM      7  C   UNL     1      23.779  11.062  24.943  0.00  0.00    -0.045 C 
ATOM      8  C   UNL     1      25.269   9.569  23.581  0.00  0.00    -0.045 C 
ENDBRANCH   4   5
ENDBRANCH  11  10
TORSDOF 7
