REMARK  Name = 4RX8
REMARK  5 active torsions:
REMARK  status: ('A' for Active; 'I' for Inactive)
REMARK    1  A    between atoms: C_6  and  C_9
REMARK    2  A    between atoms: C_8  and  N_21
REMARK    3  A    between atoms: C_14  and  N_18
REMARK    4  A    between atoms: C_15  and  N_17
REMARK    5  A    between atoms: C_19  and  N_21
REMARK                            x       y       z     vdW  Elec       q    Type
REMARK                         _______ _______ _______ _____ _____    ______ ____
ROOT
ATOM      4  N   UNL     1       3.075   3.696  12.739  0.00  0.00    -0.308 N 
ATOM      5  H   UNL     1       3.756   4.501  12.554  0.00  0.00    +0.149 HD
ATOM      6  C   UNL     1       3.490   2.672  13.459  0.00  0.00    +0.237 A 
ATOM      7  N   UNL     1       2.702   1.604  13.583  0.00  0.00    -0.196 NA
ATOM      8  C   UNL     1       3.061   0.546  14.294  0.00  0.00    +0.159 A 
ATOM     20  C   UNL     1       4.270   0.571  14.943  0.00  0.00    +0.187 A 
ATOM     21  N   UNL     1       5.055   1.661  14.830  0.00  0.00    -0.138 NA
ATOM     27  N   UNL     1       4.651   2.678  14.091  0.00  0.00    -0.112 NA
ENDROOT
BRANCH   4   3
ATOM      1  C   UNL     1       0.404   4.576  10.266  0.00  0.00    +0.002 C 
ATOM      2  C   UNL     1       1.778   4.575  10.896  0.00  0.00    +0.024 C 
ATOM      3  C   UNL     1       1.767   3.777  12.200  0.00  0.00    +0.090 C 
ATOM     28  C   UNL     1       0.806   4.447  13.210  0.00  0.00    +0.071 C 
ATOM     32  C   UNL     1      -0.578   4.463  12.586  0.00  0.00    +0.020 C 
ATOM     33  C   UNL     1      -0.606   5.166  11.246  0.00  0.00    +0.002 C 
BRANCH  28  29
ATOM     29  N   UNL     1       1.205   5.829  13.536  0.00  0.00    -0.326 NA
ATOM     30  H   UNL     1       1.221   6.417  12.642  0.00  0.00    +0.118 HD
ATOM     31  H   UNL     1       0.504   6.250  14.227  0.00  0.00    +0.118 HD
ENDBRANCH  28  29
ENDBRANCH   4   3
BRANCH  20  22
ATOM     22  C   UNL     1       4.763  -0.562  15.787  0.00  0.00    +0.265 C 
ATOM     23  N   UNL     1       6.002  -0.485  16.174  0.00  0.00    -0.324 N 
ATOM     24  H   UNL     1       6.422  -1.260  16.780  0.00  0.00    +0.145 HD
ATOM     25  H   UNL     1       6.601   0.353  15.886  0.00  0.00    +0.145 HD
ATOM     26  O   UNL     1       4.055  -1.447  16.068  0.00  0.00    -0.269 OA
ENDBRANCH  20  22
BRANCH   8   9
ATOM      9  N   UNL     1       2.217  -0.493  14.430  0.00  0.00    -0.296 N 
ATOM     10  H   UNL     1       2.626  -1.376  14.876  0.00  0.00    +0.154 HD
BRANCH   9  11
ATOM     11  C   UNL     1       0.917  -0.556  14.072  0.00  0.00    +0.059 A 
ATOM     12  C   UNL     1       0.271   0.217  13.125  0.00  0.00    +0.025 A 
ATOM     13  C   UNL     1      -1.094   0.041  12.848  0.00  0.00    +0.003 A 
ATOM     14  C   UNL     1      -1.866  -0.965  13.460  0.00  0.00    +0.010 A 
ATOM     15  C   UNL     1      -1.209  -1.765  14.379  0.00  0.00    +0.004 A 
ATOM     16  C   UNL     1      -1.573  -2.937  15.271  0.00  0.00    +0.029 A 
ATOM     17  C   UNL     1      -0.473  -3.220  15.946  0.00  0.00    +0.112 A 
ATOM     18  N   UNL     1       0.496  -2.430  15.586  0.00  0.00    -0.253 NA
ATOM     19  C   UNL     1       0.118  -1.567  14.671  0.00  0.00    +0.092 A 
ENDBRANCH   9  11
ENDBRANCH   8   9
TORSDOF 5
