REMARK  Name = 4uwg_ligand
REMARK  7 active torsions:
REMARK  status: ('A' for Active; 'I' for Inactive)
REMARK    1  A    between atoms: N5_5  and  C18_18
REMARK    2  A    between atoms: C8_8  and  C9_9
REMARK    3  A    between atoms: C18_18  and  C21_21
REMARK    4  A    between atoms: C21_21  and  O22_22
REMARK    5  A    between atoms: O22_22  and  C25_25
REMARK    6  A    between atoms: C25_25  and  C26_26
REMARK    7  A    between atoms: C25_25  and  C27_27
REMARK                            x       y       z     vdW  Elec       q    Type
REMARK                         _______ _______ _______ _____ _____    ______ ____
ROOT
ATOM      1  C   UNL     1      18.757 -16.884 -24.497  0.00  0.00    +0.267 C 
ATOM      2  N   UNL     1      20.226 -16.887 -24.696  0.00  0.00    -0.277 N 
ATOM      9  C   UNL     1      20.828 -18.144 -25.182  0.00  0.00    +0.208 C 
ATOM     10  C   UNL     1      20.169 -19.377 -24.541  0.00  0.00    +0.064 C 
ATOM     11  C   UNL     1      18.666 -19.408 -24.831  0.00  0.00    +0.145 C 
ATOM     16  N   UNL     1      18.010 -18.070 -24.635  0.00  0.00    -0.217 N 
ATOM     17  C   UNL     1      16.568 -18.020 -24.477  0.00  0.00    +0.252 C 
ATOM     18  O   UNL     1      15.980 -19.053 -24.770  0.00  0.00    -0.365 OA
ATOM     19  C   UNL     1      15.968 -16.770 -24.098  0.00  0.00    +0.505 C 
ATOM     20  C   UNL     1      16.744 -15.594 -23.934  0.00  0.00    +0.444 C 
ATOM     21  N   UNL     1      16.281 -14.371 -23.735  0.00  0.00    -0.128 N 
ATOM     22  C   UNL     1      14.864 -13.996 -23.916  0.00  0.00    +0.364 C 
ATOM     23  C   UNL     1      14.451 -13.016 -22.849  0.00  0.00    +0.224 C 
ATOM     24  O   UNL     1      15.313 -11.884 -22.822  0.00  0.00    -0.369 OA
ATOM     25  C   UNL     1      16.644 -12.290 -22.502  0.00  0.00    +0.224 C 
ATOM     26  C   UNL     1      17.205 -13.235 -23.534  0.00  0.00    +0.364 C 
ATOM     27  N   UNL     1      18.161 -15.691 -24.159  0.00  0.00    -0.107 N 
ATOM     28  H   UNL     1      18.744 -14.847 -24.065  0.00  0.00    +0.319 HD
ENDROOT
BRANCH   9  12
ATOM     12  C   UNL     1      20.905 -18.182 -26.694  0.00  0.00    +0.415 C 
ATOM     13  F   UNL     1      21.689 -17.222 -27.159  0.00  0.00    -0.168 F 
ATOM     14  F   UNL     1      19.723 -18.020 -27.280  0.00  0.00    -0.168 F 
ATOM     15  F   UNL     1      21.401 -19.335 -27.138  0.00  0.00    -0.168 F 
ENDBRANCH   9  12
BRANCH   2   3
ATOM      3  C   UNL     1      20.984 -16.230 -23.629  0.00  0.00    +0.171 C 
BRANCH   3   4
ATOM      4  C   UNL     1      21.205 -14.755 -23.745  0.00  0.00    +0.187 C 
BRANCH   4   5
ATOM      5  O   UNL     1      21.457 -14.223 -22.443  0.00  0.00    -0.375 OA
BRANCH   5   6
ATOM      6  C   UNL     1      21.135 -12.841 -22.206  0.00  0.00    +0.112 C 
ATOM      7  C   UNL     1      21.304 -12.612 -20.755  0.00  0.00    +0.037 C 
ATOM      8  C   UNL     1      22.085 -12.005 -23.009  0.00  0.00    +0.037 C 
ENDBRANCH   5   6
ENDBRANCH   4   5
ENDBRANCH   3   4
ENDBRANCH   2   3
TORSDOF 5
