REMARK  Name = 2xch_ligand
REMARK  4 active torsions:
REMARK  status: ('A' for Active; 'I' for Inactive)
REMARK    1  A    between atoms: C8_2  and  C5_4
REMARK    2  A    between atoms: N7_8  and  C17_9
REMARK    3  A    between atoms: C17_9  and  C25_10
REMARK    4  A    between atoms: N15_24  and  C16_25
REMARK                            x       y       z     vdW  Elec       q    Type
REMARK                         _______ _______ _______ _____ _____    ______ ____
ROOT
ATOM      3  C   UNL     1     -43.088  17.700  11.945  0.00  0.00    +0.136 A 
ATOM      4  N   UNL     1     -42.297  18.473  12.702  0.00  0.00    -0.171 NA
ATOM      5  N   UNL     1     -41.177  17.701  13.031  0.00  0.00    -0.185 N 
ATOM      6  C   UNL     1     -41.298  16.462  12.514  0.00  0.00    +0.123 A 
ATOM      7  C   UNL     1     -40.422  15.386  12.538  0.00  0.00    +0.078 A 
ATOM      8  C   UNL     1     -40.883  14.152  12.107  0.00  0.00    +0.015 A 
ATOM      9  C   UNL     1     -42.338  13.962  11.707  0.00  0.00    -0.001 A 
ATOM     10  C   UNL     1     -42.963  15.210  11.059  0.00  0.00    -0.002 A 
ATOM     11  C   UNL     1     -39.998  13.093  12.061  0.00  0.00    +0.123 A 
ATOM     12  N   UNL     1     -38.717  13.255  12.426  0.00  0.00    -0.244 NA
ATOM     13  C   UNL     1     -38.264  14.467  12.825  0.00  0.00    +0.207 A 
ATOM     14  N   UNL     1     -36.965  14.523  13.186  0.00  0.00    -0.243 N 
ATOM     15  H   UNL     1     -36.442  13.651  13.024  0.00  0.00    +0.218 HD
ATOM     22  N   UNL     1     -39.125  15.527  12.881  0.00  0.00    -0.259 NA
ATOM     32  C   UNL     1     -42.493  16.449  11.798  0.00  0.00    +0.032 A 
ENDROOT
BRANCH  14  16
ATOM     16  C   UNL     1     -36.223  15.531  13.728  0.00  0.00    +0.066 A 
ATOM     17  C   UNL     1     -34.897  15.238  14.054  0.00  0.00    +0.016 A 
ATOM     18  C   UNL     1     -34.029  16.207  14.586  0.00  0.00    -0.013 A 
ATOM     19  C   UNL     1     -34.507  17.499  14.811  0.00  0.00    -0.021 A 
ATOM     20  C   UNL     1     -35.842  17.799  14.493  0.00  0.00    -0.013 A 
ATOM     21  C   UNL     1     -36.703  16.821  13.944  0.00  0.00    +0.016 A 
ENDBRANCH  14  16
BRANCH   3   2
ATOM      1  O   UNL     1     -45.162  17.395  10.832  0.00  0.00    -0.386 OA
ATOM      2  C   UNL     1     -44.392  18.155  11.386  0.00  0.00    +0.212 C 
ATOM     33  N   UNL     1     -44.670  19.462  11.533  0.00  0.00    -0.300 N 
ATOM     34  H   UNL     1     -45.530  19.833  11.182  0.00  0.00    +0.181 HD
ATOM     35  H   UNL     1     -44.017  20.063  11.993  0.00  0.00    +0.181 HD
ENDBRANCH   3   2
BRANCH   5  23
ATOM     23  C   UNL     1     -40.190  18.353  13.898  0.00  0.00    +0.202 C 
BRANCH  23  24
ATOM     24  C   UNL     1     -39.285  19.354  13.181  0.00  0.00    +0.031 C 
ATOM     25  C   UNL     1     -39.984  20.727  13.148  0.00  0.00    +0.057 C 
ATOM     26  C   UNL     1     -39.091  21.752  12.472  0.00  0.00    +0.130 C 
ATOM     27  N   UNL     1     -38.679  21.269  11.159  0.00  0.00    +0.227 N 
ATOM     28  H   UNL     1     -37.977  21.906  10.816  0.00  0.00    +0.201 HD
ATOM     29  H   UNL     1     -39.490  21.308  10.561  0.00  0.00    +0.201 HD
ATOM     30  C   UNL     1     -38.129  19.924  11.047  0.00  0.00    +0.130 C 
ATOM     31  C   UNL     1     -38.971  18.884  11.764  0.00  0.00    +0.057 C 
ENDBRANCH  23  24
ENDBRANCH   5  23
TORSDOF 4
