REMARK  Name = 2ITU
REMARK  5 active torsions:
REMARK  status: ('A' for Active; 'I' for Inactive)
REMARK    1  A    between atoms: C_4  and  N_34
REMARK    2  A    between atoms: C_5  and  O_32
REMARK    3  A    between atoms: C_6  and  C_7
REMARK    4  A    between atoms: O_32  and  C_33
REMARK    5  A    between atoms: N_34  and  C_35
REMARK                            x       y       z     vdW  Elec       q    Type
REMARK                         _______ _______ _______ _____ _____    ______ ____
ROOT
ATOM      1  O   UNL     1     -47.136  -1.209 -19.533  0.00  0.00    -0.321 OA
ATOM      2  C   UNL     1     -47.397  -2.200 -20.591  0.00  0.00    +0.175 C 
ATOM      3  N   UNL     1     -48.480  -1.560 -21.586  0.00  0.00    -0.307 N 
ATOM      4  C   UNL     1     -48.547  -1.745 -22.936  0.00  0.00    +0.053 A 
ATOM      5  C   UNL     1     -47.769  -2.472 -23.853  0.00  0.00    +0.026 A 
ATOM      6  C   UNL     1     -48.067  -2.475 -25.220  0.00  0.00    +0.002 A 
ATOM      7  C   UNL     1     -49.162  -1.754 -25.698  0.00  0.00    +0.001 A 
ATOM      8  C   UNL     1     -49.953  -1.026 -24.807  0.00  0.00    +0.010 A 
ATOM      9  C   UNL     1     -49.651  -1.019 -23.437  0.00  0.00    +0.008 A 
ATOM     10  C   UNL     1     -50.254  -0.391 -22.348  0.00  0.00    +0.015 A 
ATOM     11  C   UNL     1     -51.362   0.449 -22.169  0.00  0.00    -0.008 A 
ATOM     12  C   UNL     1     -52.305   0.974 -23.226  0.00  0.00    +0.141 C 
ATOM     13  N   UNL     1     -53.245   1.787 -22.433  0.00  0.00    -0.307 N 
ATOM     14  H   UNL     1     -54.075   2.329 -22.836  0.00  0.00    +0.149 HD
ATOM     15  C   UNL     1     -52.916   1.751 -21.148  0.00  0.00    +0.245 C 
ATOM     16  O   UNL     1     -53.598   2.362 -20.324  0.00  0.00    -0.270 OA
ATOM     17  C   UNL     1     -51.772   0.950 -20.919  0.00  0.00    +0.051 A 
ATOM     18  C   UNL     1     -51.012   0.583 -19.787  0.00  0.00    +0.018 A 
ATOM     19  C   UNL     1     -51.045   0.844 -18.404  0.00  0.00    -0.018 A 
ATOM     20  C   UNL     1     -52.035   1.710 -17.598  0.00  0.00    +0.037 C 
ATOM     21  C   UNL     1     -51.441   2.112 -16.224  0.00  0.00    +0.005 C 
ATOM     22  C   UNL     1     -50.796   0.919 -15.473  0.00  0.00    +0.006 C 
ATOM     23  C   UNL     1     -49.681   0.197 -16.274  0.00  0.00    +0.054 C 
ATOM     24  C   UNL     1     -49.976   0.154 -17.802  0.00  0.00    +0.026 A 
ATOM     25  N   UNL     1     -49.308  -0.501 -18.785  0.00  0.00    -0.309 N 
ATOM     26  C   UNL     1     -49.899  -0.257 -19.967  0.00  0.00    +0.077 A 
ATOM     27  C   UNL     1     -49.509  -0.748 -21.232  0.00  0.00    +0.077 A 
ATOM     28  C   UNL     1     -46.042  -2.427 -21.275  0.00  0.00    +0.069 C 
ATOM     29  C   UNL     1     -47.945  -3.603 -19.956  0.00  0.00    +0.188 C 
ATOM     32  C   UNL     1     -47.771  -3.706 -18.386  0.00  0.00    +0.092 C 
ATOM     36  C   UNL     1     -48.297  -2.444 -17.675  0.00  0.00    +0.084 C 
ATOM     37  C   UNL     1     -48.214  -1.284 -18.691  0.00  0.00    +0.199 C 
ENDROOT
BRANCH  32  33
ATOM     33  N   UNL     1     -48.404  -4.917 -17.813  0.00  0.00    -0.314 NA
ATOM     34  H   UNL     1     -49.212  -5.227 -18.442  0.00  0.00    +0.122 HD
ATOM     35  C   UNL     1     -47.410  -6.006 -17.720  0.00  0.00    +0.101 C 
ENDBRANCH  32  33
BRANCH  29  30
ATOM     30  O   UNL     1     -49.335  -4.005 -20.362  0.00  0.00    -0.374 OA
ATOM     31  C   UNL     1     -49.393  -5.374 -20.846  0.00  0.00    +0.194 C 
ENDBRANCH  29  30
TORSDOF 2
