REMARK  Name = 5KKR
REMARK  9 active torsions:
REMARK  status: ('A' for Active; 'I' for Inactive)
REMARK    1  A    between atoms: C_1  and  N_15
REMARK    2  A    between atoms: C_6  and  O_7
REMARK    3  A    between atoms: O_7  and  C_8
REMARK    4  A    between atoms: C_10  and  O_11
REMARK    5  A    between atoms: O_11  and  C_12
REMARK    6  A    between atoms: N_15  and  C_16
REMARK    7  A    between atoms: C_17  and  C_18
REMARK    8  A    between atoms: C_22  and  O_23
REMARK    9  A    between atoms: O_23  and  C_24
REMARK                            x       y       z     vdW  Elec       q    Type
REMARK                         _______ _______ _______ _____ _____    ______ ____
ROOT
ATOM      2  N   UNL     1     -69.376  54.605  -7.832  0.00  0.00    -0.299 N 
ATOM      3  H   UNL     1     -69.561  55.518  -7.306  0.00  0.00    +0.154 HD
ENDROOT
BRANCH   2   1
ATOM      1  C   UNL     1     -70.104  53.520  -7.577  0.00  0.00    +0.134 A 
ATOM     18  N   UNL     1     -70.070  52.429  -8.352  0.00  0.00    -0.220 NA
ATOM     19  C   UNL     1     -70.875  51.335  -8.014  0.00  0.00    +0.224 A 
ATOM     20  N   UNL     1     -71.701  51.396  -6.881  0.00  0.00    -0.235 NA
ATOM     21  C   UNL     1     -71.723  52.498  -6.118  0.00  0.00    +0.080 A 
ATOM     22  C   UNL     1     -72.545  52.552  -4.995  0.00  0.00    +0.077 A 
ATOM     23  C   UNL     1     -72.557  53.705  -4.216  0.00  0.00    +0.164 A 
ATOM     24  C   UNL     1     -71.758  54.787  -4.550  0.00  0.00    +0.162 A 
ATOM     25  C   UNL     1     -70.937  54.738  -5.671  0.00  0.00    +0.063 A 
ATOM     30  C   UNL     1     -70.923  53.587  -6.455  0.00  0.00    +0.044 A 
BRANCH  24  26
ATOM     26  O   UNL     1     -71.837  55.870  -3.725  0.00  0.00    -0.491 OA
ATOM     27  C   UNL     1     -70.575  56.538  -3.624  0.00  0.00    +0.277 C 
ENDBRANCH  24  26
BRANCH  23  28
ATOM     28  O   UNL     1     -73.325  53.850  -3.101  0.00  0.00    -0.491 OA
ATOM     29  C   UNL     1     -74.525  53.077  -3.191  0.00  0.00    +0.277 C 
ENDBRANCH  23  28
ENDBRANCH   2   1
BRANCH   2   4
ATOM      4  C   UNL     1     -68.413  54.539  -8.752  0.00  0.00    +0.036 A 
ATOM      5  C   UNL     1     -67.116  54.158  -8.430  0.00  0.00    +0.027 A 
ATOM      6  C   UNL     1     -66.144  54.121  -9.425  0.00  0.00    +0.048 A 
ATOM      7  C   UNL     1     -66.477  54.458 -10.736  0.00  0.00    +0.129 A 
ATOM     15  C   UNL     1     -67.774  54.849 -11.044  0.00  0.00    +0.051 A 
ATOM     16  C   UNL     1     -68.748  54.892 -10.056  0.00  0.00    -0.026 A 
ATOM     17  C   UNL     1     -70.039  55.281 -10.390  0.00  0.00    +0.046 C 
BRANCH   7   8
ATOM      8  O   UNL     1     -65.543  54.440 -11.728  0.00  0.00    -0.456 OA
BRANCH   8   9
ATOM      9  C   UNL     1     -65.033  53.215 -12.036  0.00  0.00    +0.128 A 
ATOM     10  C   UNL     1     -65.794  52.056 -11.910  0.00  0.00    +0.046 A 
ATOM     11  C   UNL     1     -65.240  50.825 -12.239  0.00  0.00    +0.004 A 
ATOM     12  C   UNL     1     -63.930  50.753 -12.700  0.00  0.00    +0.000 A 
ATOM     13  C   UNL     1     -63.172  51.910 -12.832  0.00  0.00    +0.004 A 
ATOM     14  C   UNL     1     -63.727  53.139 -12.502  0.00  0.00    +0.046 A 
ENDBRANCH   8   9
ENDBRANCH   7   8
ENDBRANCH   2   4
TORSDOF 6
