REMARK  Name = B6Q
REMARK  6 active torsions:
REMARK  status: ('A' for Active; 'I' for Inactive)
REMARK    1  A    between atoms: NAE_7  and  CAH_8
REMARK    2  A    between atoms: CAK_13  and  NAL_14
REMARK    3  A    between atoms: CAP_20  and  CAR_21
REMARK    4  A    between atoms: CAR_21  and  CAT_23
REMARK    5  A    between atoms: CAX_28  and  NAZ_29
REMARK    6  A    between atoms: CBA_30  and  CBC_32
REMARK                            x       y       z     vdW  Elec       q    Type
REMARK                         _______ _______ _______ _____ _____    ______ ____
ROOT
ATOM     12  N   UNL     1       6.297 -31.200  -9.558  0.00  0.00    -0.189 NA
ATOM     13  C   UNL     1       6.748 -30.055 -10.094  0.00  0.00    +0.185 A 
ATOM     14  N   UNL     1       7.996 -29.611  -9.907  0.00  0.00    -0.204 NA
ATOM     15  C   UNL     1       8.274 -28.445 -10.526  0.00  0.00    +0.181 A 
ATOM     16  N   UNL     1       9.482 -27.900 -10.414  0.00  0.00    -0.107 NA
ATOM     17  C   UNL     1       7.247 -27.946 -11.221  0.00  0.00    +0.106 A 
ATOM     31  S   UNL     1       5.966 -28.972 -11.067  0.00  0.00    -0.045 S 
ENDROOT
BRANCH  12  11
ATOM      8  C   UNL     1       2.299 -32.168  -9.106  0.00  0.00    +0.048 A 
ATOM      9  C   UNL     1       3.177 -32.248  -8.031  0.00  0.00    +0.016 A 
ATOM     10  C   UNL     1       4.517 -31.918  -8.201  0.00  0.00    +0.018 A 
ATOM     11  C   UNL     1       4.992 -31.493  -9.438  0.00  0.00    +0.073 A 
ATOM     32  C   UNL     1       4.105 -31.437 -10.510  0.00  0.00    +0.018 A 
ATOM     33  C   UNL     1       2.765 -31.758 -10.346  0.00  0.00    +0.016 A 
BRANCH   8   7
ATOM      1  C   UNL     1      -0.029 -31.623  -9.585  0.00  0.00    +0.108 C 
ATOM      2  C   UNL     1      -1.310 -31.604  -8.767  0.00  0.00    +0.094 C 
ATOM      3  N   UNL     1      -1.735 -32.964  -8.413  0.00  0.00    -0.269 NA
ATOM      4  C   UNL     1      -0.717 -33.553  -7.530  0.00  0.00    +0.094 C 
ATOM      5  C   UNL     1       0.617 -33.713  -8.239  0.00  0.00    +0.108 C 
ATOM      6  C   UNL     1      -3.012 -32.894  -7.688  0.00  0.00    +0.090 C 
ATOM      7  N   UNL     1       1.005 -32.483  -8.964  0.00  0.00    -0.305 N 
ENDBRANCH   8   7
ENDBRANCH  12  11
BRANCH  17  18
ATOM     18  C   UNL     1       7.295 -26.804 -11.918  0.00  0.00    +0.204 C 
ATOM     19  O   UNL     1       8.260 -26.045 -11.832  0.00  0.00    -0.286 OA
BRANCH  18  20
ATOM     20  C   UNL     1       6.238 -26.532 -12.786  0.00  0.00    +0.041 A 
ATOM     21  C   UNL     1       5.003 -26.110 -12.306  0.00  0.00    +0.020 A 
ATOM     22  C   UNL     1       3.946 -25.857 -13.176  0.00  0.00    +0.073 A 
ATOM     28  C   UNL     1       4.149 -25.982 -14.544  0.00  0.00    +0.017 A 
ATOM     29  C   UNL     1       5.385 -26.388 -15.031  0.00  0.00    +0.001 A 
ATOM     30  C   UNL     1       6.429 -26.661 -14.156  0.00  0.00    +0.003 A 
BRANCH  22  23
ATOM     23  N   UNL     1       2.757 -25.449 -12.722  0.00  0.00    -0.179 NA
ATOM     24  C   UNL     1       1.911 -26.298 -12.097  0.00  0.00    +0.246 C 
ATOM     25  O   UNL     1       0.812 -25.947 -11.671  0.00  0.00    -0.273 OA
BRANCH  24  26
ATOM     26  C   UNL     1       2.359 -27.757 -11.933  0.00  0.00    +0.087 C 
ATOM     27  C   UNL     1       1.360 -28.662 -11.210  0.00  0.00    +0.010 C 
ENDBRANCH  24  26
ENDBRANCH  22  23
ENDBRANCH  18  20
ENDBRANCH  17  18
TORSDOF 6
