REMARK  Name = 3Q9W
REMARK  0 active torsions:
REMARK  status: ('A' for Active; 'I' for Inactive)
REMARK                            x       y       z     vdW  Elec       q    Type
REMARK                         _______ _______ _______ _____ _____    ______ ____
ROOT
ATOM      1  C   UNL     1      17.167  -9.133 -45.994  0.00  0.00    +0.202 A 
ATOM      2  C   UNL     1      17.025  -8.186 -44.965  0.00  0.00    +0.081 A 
ATOM      3  C   UNL     1      17.123  -6.799 -45.254  0.00  0.00    +0.202 C 
ATOM      4  O   UNL     1      17.352  -6.408 -46.403  0.00  0.00    -0.286 OA
ATOM      5  C   UNL     1      16.956  -5.850 -44.242  0.00  0.00    +0.081 A 
ATOM      6  C   UNL     1      17.138  -4.475 -44.505  0.00  0.00    +0.199 A 
ATOM      7  O   UNL     1      17.424  -4.024 -45.766  0.00  0.00    -0.286 OA
ATOM      8  C   UNL     1      16.998  -3.518 -43.495  0.00  0.00    +0.038 A 
ATOM      9  C   UNL     1      16.734  -3.949 -42.182  0.00  0.00    -0.019 A 
ATOM     10  C   UNL     1      16.566  -2.837 -41.170  0.00  0.00    +0.031 C 
ATOM     11  C   UNL     1      16.564  -5.319 -41.916  0.00  0.00    -0.001 A 
ATOM     12  C   UNL     1      16.702  -6.299 -42.910  0.00  0.00    +0.045 A 
ATOM     13  C   UNL     1      16.551  -7.676 -42.595  0.00  0.00    +0.196 C 
ATOM     14  O   UNL     1      16.268  -8.086 -41.390  0.00  0.00    -0.287 OA
ATOM     15  C   UNL     1      16.721  -8.626 -43.633  0.00  0.00    +0.048 A 
ATOM     16  C   UNL     1      16.587  -9.986 -43.379  0.00  0.00    +0.045 A 
ATOM     17  C   UNL     1      16.725 -10.926 -44.447  0.00  0.00    +0.199 A 
ATOM     18  O   UNL     1      16.589 -12.254 -44.190  0.00  0.00    -0.286 OA
ATOM     19  C   UNL     1      17.009 -10.491 -45.760  0.00  0.00    +0.084 A 
ATOM     20  O   UNL     1      17.385  -8.668 -47.232  0.00  0.00    -0.286 OA
ENDROOT
TORSDOF 0
