REMARK  Name = 6EIM
REMARK  6 active torsions:
REMARK  status: ('A' for Active; 'I' for Inactive)
REMARK    1  A    between atoms: C_2  and  C_3
REMARK    2  A    between atoms: C_7  and  O_34
REMARK    3  A    between atoms: C_13  and  O_34
REMARK    4  A    between atoms: C_16  and  N_38
REMARK    5  A    between atoms: C_22  and  N_39
REMARK    6  A    between atoms: C_24  and  C_29
REMARK                            x       y       z     vdW  Elec       q    Type
REMARK                         _______ _______ _______ _____ _____    ______ ____
ROOT
ATOM     17  C   UNL     1     -17.741   6.971   1.776  0.00  0.00    +0.129 A 
ATOM     18  C   UNL     1     -16.979   5.916   1.297  0.00  0.00    +0.048 A 
ATOM     19  C   UNL     1     -15.690   5.730   1.765  0.00  0.00    +0.027 A 
ATOM     20  C   UNL     1     -15.155   6.597   2.710  0.00  0.00    +0.035 A 
ATOM     38  C   UNL     1     -15.925   7.653   3.178  0.00  0.00    +0.027 A 
ATOM     39  C   UNL     1     -17.213   7.839   2.715  0.00  0.00    +0.048 A 
ENDROOT
BRANCH  20  21
ATOM     21  N   UNL     1     -13.880   6.425   3.293  0.00  0.00    -0.269 N 
ATOM     22  H   UNL     1     -13.621   7.194   3.902  0.00  0.00    +0.156 HD
ATOM     23  C   UNL     1     -13.015   5.380   3.120  0.00  0.00    +0.308 C 
ATOM     24  N   UNL     1     -11.974   5.424   4.002  0.00  0.00    -0.267 N 
ATOM     25  H   UNL     1     -11.968   6.131   4.730  0.00  0.00    +0.157 HD
ATOM     37  O   UNL     1     -13.212   4.440   2.355  0.00  0.00    -0.252 OA
BRANCH  24  26
ATOM     26  C   UNL     1     -10.857   4.565   4.020  0.00  0.00    +0.071 A 
ATOM     27  C   UNL     1      -9.971   4.673   5.075  0.00  0.00    +0.144 A 
ATOM     28  F   UNL     1     -10.243   5.593   6.027  0.00  0.00    -0.203 F 
ATOM     29  C   UNL     1      -8.868   3.869   5.208  0.00  0.00    +0.041 A 
ATOM     30  C   UNL     1      -8.623   2.919   4.236  0.00  0.00    +0.015 A 
ATOM     31  C   UNL     1      -9.466   2.800   3.138  0.00  0.00    +0.057 A 
ATOM     36  C   UNL     1     -10.581   3.625   3.031  0.00  0.00    +0.038 A 
BRANCH  31  32
ATOM     32  C   UNL     1      -9.183   1.800   2.065  0.00  0.00    +0.417 C 
ATOM     33  F   UNL     1      -8.278   0.907   2.420  0.00  0.00    -0.166 F 
ATOM     34  F   UNL     1     -10.259   1.102   1.723  0.00  0.00    -0.166 F 
ATOM     35  F   UNL     1      -8.734   2.364   0.946  0.00  0.00    -0.166 F 
ENDBRANCH  31  32
ENDBRANCH  24  26
ENDBRANCH  20  21
BRANCH  17  16
ATOM     16  O   UNL     1     -19.064   7.217   1.407  0.00  0.00    -0.456 OA
BRANCH  16  15
ATOM      6  C   UNL     1     -25.080   4.270  -2.442  0.00  0.00    +0.286 C 
ATOM      7  N   UNL     1     -23.870   4.461  -3.060  0.00  0.00    -0.249 N 
ATOM      8  H   UNL     1     -23.737   4.234  -4.040  0.00  0.00    +0.158 HD
ATOM      9  C   UNL     1     -22.760   4.961  -2.429  0.00  0.00    +0.201 A 
ATOM     10  N   UNL     1     -21.620   5.355  -3.051  0.00  0.00    -0.326 N 
ATOM     11  H   UNL     1     -21.392   5.305  -4.039  0.00  0.00    +0.169 HD
ATOM     12  C   UNL     1     -20.774   5.861  -2.089  0.00  0.00    +0.068 A 
ATOM     13  C   UNL     1     -19.510   6.426  -2.159  0.00  0.00    +0.031 A 
ATOM     14  C   UNL     1     -18.920   6.851  -0.983  0.00  0.00    +0.048 A 
ATOM     15  C   UNL     1     -19.592   6.705   0.226  0.00  0.00    +0.131 A 
ATOM     40  C   UNL     1     -20.851   6.126   0.303  0.00  0.00    +0.076 A 
ATOM     41  C   UNL     1     -21.451   5.714  -0.883  0.00  0.00    +0.094 A 
ATOM     42  N   UNL     1     -22.702   5.146  -1.123  0.00  0.00    -0.214 NA
ATOM     43  O   UNL     1     -25.283   4.544  -1.261  0.00  0.00    -0.266 OA
BRANCH   6   5
ATOM      1  C   UNL     1     -27.437   3.412  -2.990  0.00  0.00    +0.054 A 
ATOM      2  C   UNL     1     -28.022   2.937  -4.191  0.00  0.00    +0.042 A 
ATOM      3  C   UNL     1     -27.080   2.990  -5.125  0.00  0.00    +0.196 A 
ATOM      4  O   UNL     1     -25.906   3.475  -4.603  0.00  0.00    -0.458 OA
ATOM      5  C   UNL     1     -26.157   3.725  -3.283  0.00  0.00    +0.189 A 
ENDBRANCH   6   5
ENDBRANCH  16  15
ENDBRANCH  17  16
TORSDOF 6
