REMARK  Name = 4JLJ
REMARK  10 active torsions:
REMARK  status: ('A' for Active; 'I' for Inactive)
REMARK    1  A    between atoms: C_2  and  C_3
REMARK    2  A    between atoms: C_3  and  O_4
REMARK    3  A    between atoms: O_4  and  C_5
REMARK    4  A    between atoms: C_7  and  O_8
REMARK    5  A    between atoms: O_8  and  C_9
REMARK    6  A    between atoms: C_12  and  C_13
REMARK    7  A    between atoms: C_17  and  C_18
REMARK    8  A    between atoms: C_18  and  S_19
REMARK    9  A    between atoms: S_19  and  C_20
REMARK   10  A    between atoms: C_26  and  N_27
REMARK                            x       y       z     vdW  Elec       q    Type
REMARK                         _______ _______ _______ _____ _____    ______ ____
ROOT
ATOM     10  C   UNL     1     -33.940  12.009  -4.318  0.00  0.00    +0.109 A 
ATOM     11  S   UNL     1     -33.791  12.973  -5.644  0.00  0.00    -0.075 S 
ATOM     12  C   UNL     1     -32.139  13.220  -5.465  0.00  0.00    +0.071 A 
ATOM     13  C   UNL     1     -31.770  12.541  -4.368  0.00  0.00    +0.059 A 
ATOM     28  N   UNL     1     -32.753  11.876  -3.725  0.00  0.00    -0.243 NA
ENDROOT
BRANCH  10   9
ATOM      5  C   UNL     1     -36.471  10.071  -2.564  0.00  0.00    +0.163 A 
ATOM      6  C   UNL     1     -37.616  10.649  -3.125  0.00  0.00    +0.162 A 
ATOM      7  C   UNL     1     -37.522  11.663  -4.070  0.00  0.00    +0.050 A 
ATOM      8  C   UNL     1     -36.249  12.087  -4.442  0.00  0.00    +0.014 A 
ATOM      9  C   UNL     1     -35.094  11.506  -3.901  0.00  0.00    +0.011 A 
ATOM     31  C   UNL     1     -35.185  10.485  -2.953  0.00  0.00    +0.060 A 
BRANCH   6  29
ATOM     29  O   UNL     1     -38.816  10.182  -2.707  0.00  0.00    -0.491 OA
ATOM     30  C   UNL     1     -39.894  10.862  -3.382  0.00  0.00    +0.277 C 
ENDBRANCH   6  29
BRANCH   5   4
ATOM      4  O   UNL     1     -36.703   9.082  -1.654  0.00  0.00    -0.486 OA
BRANCH   4   3
ATOM      3  C   UNL     1     -35.803   9.018  -0.517  0.00  0.00    +0.262 C 
BRANCH   3   2
ATOM      1  F   UNL     1     -35.910   8.444   2.014  0.00  0.00    -0.246 F 
ATOM      2  C   UNL     1     -36.412   8.090   0.549  0.00  0.00    +0.254 C 
ENDBRANCH   3   2
ENDBRANCH   4   3
ENDBRANCH   5   4
ENDBRANCH  10   9
BRANCH  13  14
ATOM     14  C   UNL     1     -30.310  12.515  -3.874  0.00  0.00    +0.133 C 
BRANCH  14  15
ATOM     15  S   UNL     1     -29.476  10.925  -4.265  0.00  0.00    -0.080 S 
BRANCH  15  16
ATOM     16  C   UNL     1     -27.783  11.290  -4.134  0.00  0.00    +0.192 A 
ATOM     17  N   UNL     1     -27.362  12.566  -3.965  0.00  0.00    -0.207 NA
ATOM     18  C   UNL     1     -26.060  12.816  -3.885  0.00  0.00    +0.122 A 
ATOM     19  C   UNL     1     -25.124  11.768  -3.970  0.00  0.00    +0.086 A 
ATOM     20  C   UNL     1     -25.590  10.468  -4.149  0.00  0.00    +0.122 A 
ATOM     24  N   UNL     1     -25.672  14.066  -3.736  0.00  0.00    -0.343 N 
ATOM     25  H   UNL     1     -24.630  14.298  -3.668  0.00  0.00    +0.144 HD
ATOM     26  H   UNL     1     -26.399  14.849  -3.682  0.00  0.00    +0.144 HD
ATOM     27  N   UNL     1     -26.900  10.265  -4.237  0.00  0.00    -0.207 NA
BRANCH  20  21
ATOM     21  N   UNL     1     -24.731   9.444  -4.264  0.00  0.00    -0.343 N 
ATOM     22  H   UNL     1     -23.678   9.618  -4.192  0.00  0.00    +0.144 HD
ATOM     23  H   UNL     1     -25.099   8.453  -4.428  0.00  0.00    +0.144 HD
ENDBRANCH  20  21
ENDBRANCH  15  16
ENDBRANCH  14  15
ENDBRANCH  13  14
TORSDOF 9
