REMARK  Name = 5oty
REMARK  7 active torsions:
REMARK  status: ('A' for Active; 'I' for Inactive)
REMARK    1  A    between atoms: C2_1  and  C1_2
REMARK    2  A    between atoms: C8_5  and  C7_6
REMARK    3  A    between atoms: C11_13  and  C12_17
REMARK    4  A    between atoms: C12_17  and  N_18
REMARK    5  A    between atoms: N_18  and  C13_19
REMARK    6  A    between atoms: C13_19  and  C14_20
REMARK    7  A    between atoms: C14_20  and  C15_21
REMARK                            x       y       z     vdW  Elec       q    Type
REMARK                         _______ _______ _______ _____ _____    ______ ____
ROOT
ATOM      7  C   UNL     1    -112.033-175.961 311.567  0.00  0.00    +0.019 A 
ATOM      8  C   UNL     1    -112.488-174.701 311.173  0.00  0.00    +0.050 A 
ATOM      9 CL   UNL     1    -111.347-173.407 310.987  0.00  0.00    -0.084 Cl
ATOM     10  C   UNL     1    -113.825-174.441 310.933  0.00  0.00    +0.026 A 
ATOM     11  C   UNL     1    -114.778-175.444 311.083  0.00  0.00    -0.031 A 
ATOM     25  C   UNL     1    -114.345-176.715 311.441  0.00  0.00    +0.026 A 
ATOM     26  C   UNL     1    -113.005-176.956 311.666  0.00  0.00    +0.050 A 
ATOM     27 CL   UNL     1    -112.512-178.574 311.999  0.00  0.00    -0.084 Cl
ENDROOT
BRANCH   7   6
ATOM      1  C   UNL     1    -109.694-176.719 310.897  0.00  0.00    -0.040 A 
ATOM      2  C   UNL     1    -108.392-177.052 311.274  0.00  0.00    +0.004 A 
ATOM      3  C   UNL     1    -107.970-176.892 312.583  0.00  0.00    +0.000 A 
ATOM      4  C   UNL     1    -108.847-176.424 313.542  0.00  0.00    +0.001 A 
ATOM      5  C   UNL     1    -110.150-176.095 313.191  0.00  0.00    +0.009 A 
ATOM      6  C   UNL     1    -110.590-176.235 311.868  0.00  0.00    -0.012 A 
BRANCH   1  28
ATOM     28  C   UNL     1    -110.135-176.907 309.460  0.00  0.00    +0.033 C 
ATOM     29  C   UNL     1    -109.654-175.881 308.481  0.00  0.00    +0.009 C 
ENDBRANCH   1  28
ENDBRANCH   7   6
BRANCH  11  12
ATOM     12  C   UNL     1    -116.249-175.149 310.911  0.00  0.00    +0.116 C 
BRANCH  12  13
ATOM     13  N   UNL     1    -116.950-176.088 310.026  0.00  0.00    -0.190 NA
BRANCH  13  14
ATOM     14  C   UNL     1    -118.395-175.829 309.955  0.00  0.00    +0.089 C 
BRANCH  14  15
ATOM     15  C   UNL     1    -119.031-176.999 309.238  0.00  0.00    +0.090 C 
BRANCH  15  16
ATOM     16  C   UNL     1    -120.523-176.966 309.210  0.00  0.00    +0.108 A 
ATOM     17  N   UNL     1    -121.249-177.998 308.722  0.00  0.00    -0.174 NA
ATOM     18  C   UNL     1    -122.580-177.635 308.803  0.00  0.00    +0.066 A 
ATOM     19  C   UNL     1    -123.754-178.274 308.415  0.00  0.00    +0.028 A 
ATOM     20  C   UNL     1    -124.954-177.594 308.584  0.00  0.00    +0.002 A 
ATOM     21  C   UNL     1    -124.976-176.316 309.155  0.00  0.00    +0.002 A 
ATOM     22  C   UNL     1    -123.797-175.693 309.552  0.00  0.00    +0.030 A 
ATOM     23  C   UNL     1    -122.585-176.357 309.361  0.00  0.00    +0.089 A 
ATOM     24  N   UNL     1    -121.273-175.956 309.615  0.00  0.00    -0.233 NA
ENDBRANCH  15  16
ENDBRANCH  14  15
ENDBRANCH  13  14
ENDBRANCH  12  13
ENDBRANCH  11  12
TORSDOF 7
