REMARK  Name = 5MAG
REMARK  10 active torsions:
REMARK  status: ('A' for Active; 'I' for Inactive)
REMARK    1  A    between atoms: C_6  and  N_30
REMARK    2  A    between atoms: C_10  and  C_19
REMARK    3  A    between atoms: C_10  and  C_20
REMARK    4  A    between atoms: C_11  and  O_26
REMARK    5  A    between atoms: C_12  and  N_13
REMARK    6  A    between atoms: C_12  and  C_23
REMARK    7  A    between atoms: N_13  and  C_14
REMARK    8  A    between atoms: N_13  and  C_24
REMARK    9  A    between atoms: C_22  and  C_23
REMARK   10  A    between atoms: C_23  and  N_25
REMARK                            x       y       z     vdW  Elec       q    Type
REMARK                         _______ _______ _______ _____ _____    ______ ____
ROOT
ATOM     13  C   UNL     1     -16.310   7.981  -3.601  0.00  0.00    +0.409 C 
ATOM     14  N   UNL     1     -17.074   6.929  -3.600  0.00  0.00    +0.087 NA
ATOM     15  N   UNL     1     -17.571   6.741  -4.812  0.00  0.00    -0.032 NA
ATOM     16  C   UNL     1     -17.125   7.696  -5.608  0.00  0.00    +0.180 C 
ATOM     17  C   UNL     1     -17.218   8.145  -6.958  0.00  0.00    +0.216 C 
ATOM     18  C   UNL     1     -18.680   8.529  -7.266  0.00  0.00    +0.097 C 
ATOM     19  C   UNL     1     -16.738   7.028  -7.930  0.00  0.00    +0.097 C 
ATOM     20  N   UNL     1     -16.356   9.362  -7.039  0.00  0.00    -0.141 N 
ATOM     21  C   UNL     1     -15.783   9.539  -5.719  0.00  0.00    +0.333 C 
ATOM     22  C   UNL     1     -16.165  10.159  -8.093  0.00  0.00    +0.445 C 
ATOM     25  N   UNL     1     -15.354  11.202  -7.939  0.00  0.00    -0.251 N 
ATOM     26  H   UNL     1     -14.900  11.364  -6.984  0.00  0.00    +0.155 HD
ATOM     38  C   UNL     1     -16.315   8.451  -4.856  0.00  0.00    +0.169 C 
ENDROOT
BRANCH  13  12
ATOM      1  C   UNL     1     -14.781   9.806  -0.960  0.00  0.00    +0.104 C 
ATOM      2  S   UNL     1     -14.280   8.744   0.312  0.00  0.00    -0.089 S 
ATOM      3  C   UNL     1     -13.616   9.965   1.235  0.00  0.00    +0.048 C 
ATOM      4  C   UNL     1     -13.791  11.141   0.596  0.00  0.00    +0.034 C 
ATOM      5  C   UNL     1     -15.413   9.588  -2.128  0.00  0.00    +0.264 C 
ATOM      6  N   UNL     1     -15.705  10.681  -2.948  0.00  0.00    -0.305 N 
ATOM      7  H   UNL     1     -16.227  10.530  -3.870  0.00  0.00    +0.171 HD
ATOM      8  C   UNL     1     -15.324  11.955  -2.576  0.00  0.00    +0.105 C 
ATOM      9  N   UNL     1     -14.700  12.111  -1.398  0.00  0.00    -0.341 N 
ATOM     10  H   UNL     1     -14.414  13.095  -1.088  0.00  0.00    +0.167 HD
ATOM     11  C   UNL     1     -15.616  13.017  -3.426  0.00  0.00    +0.056 C 
ATOM     12  N   UNL     1     -15.719   8.315  -2.433  0.00  0.00    -0.013 NA
ATOM     39  C   UNL     1     -14.423  11.068  -0.595  0.00  0.00    +0.061 C 
ENDBRANCH  13  12
BRANCH  22  23
ATOM     23  O   UNL     1     -16.747   9.952  -9.158  0.00  0.00    -0.447 OA
ATOM     24  H   UNL     1     -16.487   9.002  -9.521  0.00  0.00    +0.300 HD
ENDBRANCH  22  23
BRANCH  25  27
ATOM     27  C   UNL     1     -15.059  12.134  -9.023  0.00  0.00    +0.123 C 
BRANCH  27  28
ATOM     28  C   UNL     1     -15.358  13.401  -8.542  0.00  0.00    -0.026 A 
ATOM     29  C   UNL     1     -16.290  14.174  -9.224  0.00  0.00    +0.005 A 
ATOM     30  C   UNL     1     -16.609  15.448  -8.770  0.00  0.00    +0.000 A 
ATOM     31  C   UNL     1     -15.998  15.955  -7.627  0.00  0.00    +0.000 A 
ATOM     32  C   UNL     1     -15.059  15.194  -6.934  0.00  0.00    +0.000 A 
ATOM     33  C   UNL     1     -14.740  13.918  -7.395  0.00  0.00    +0.005 A 
ENDBRANCH  27  28
BRANCH  27  34
ATOM     34  C   UNL     1     -13.598  11.963  -9.374  0.00  0.00    +0.111 C 
BRANCH  34  35
ATOM     35  N   UNL     1     -13.274  12.591 -10.701  0.00  0.00    -0.306 NA
ATOM     36  C   UNL     1     -12.966  14.055 -10.636  0.00  0.00    +0.104 C 
ATOM     37  C   UNL     1     -12.088  11.890 -11.244  0.00  0.00    +0.104 C 
ENDBRANCH  34  35
ENDBRANCH  27  34
ENDBRANCH  25  27
TORSDOF 6
