REMARK  Name = 4dli_ligand
REMARK  4 active torsions:
REMARK  status: ('A' for Active; 'I' for Inactive)
REMARK    1  A    between atoms: C2_2  and  CAP_20
REMARK    2  A    between atoms: C6_6  and  NAN_18
REMARK    3  A    between atoms: NAA_7  and  CAO_19
REMARK    4  A    between atoms: NAN_18  and  CAU_21
REMARK                            x       y       z     vdW  Elec       q    Type
REMARK                         _______ _______ _______ _____ _____    ______ ____
ROOT
ATOM      1  N   UNL     1      23.951 -17.020 -10.787  0.00  0.00    -0.258 NA
ATOM      2  C   UNL     1      24.414 -15.753 -10.753  0.00  0.00    +0.135 A 
ATOM      8  C   UNL     1      24.655 -15.176  -9.511  0.00  0.00    +0.044 A 
ATOM      9  C   UNL     1      25.150 -13.864  -9.393  0.00  0.00    +0.021 A 
ATOM     10  C   UNL     1      25.439 -13.295  -8.148  0.00  0.00    +0.025 A 
ATOM     11  C   UNL     1      25.236 -14.089  -7.005  0.00  0.00    +0.042 A 
ATOM     12  C   UNL     1      24.785 -15.404  -7.130  0.00  0.00    +0.019 A 
ATOM     16  C   UNL     1      24.477 -15.956  -8.373  0.00  0.00    +0.028 A 
ATOM     17  N   UNL     1      24.014 -17.213  -8.470  0.00  0.00    -0.300 NA
ATOM     18  C   UNL     1      23.761 -17.767  -9.672  0.00  0.00    +0.092 A 
ENDROOT
BRANCH  18  19
ATOM     19  C   UNL     1      23.242 -19.065  -9.799  0.00  0.00    +0.014 A 
ATOM     20  C   UNL     1      22.954 -19.895  -8.688  0.00  0.00    +0.020 A 
ATOM     21  C   UNL     1      22.369 -21.160  -8.875  0.00  0.00    +0.006 A 
ATOM     22  C   UNL     1      22.070 -21.624 -10.173  0.00  0.00    +0.007 A 
ATOM     23  C   UNL     1      22.356 -20.803 -11.258  0.00  0.00    +0.006 A 
ATOM     24  C   UNL     1      22.928 -19.544 -11.069  0.00  0.00    +0.020 A 
ENDBRANCH  18  19
BRANCH  11  13
ATOM     13  N   UNL     1      25.488 -13.593  -5.791  0.00  0.00    -0.333 N 
ATOM     14  H   UNL     1      25.349 -14.180  -4.956  0.00  0.00    +0.175 HD
ATOM     15  H   UNL     1      25.821 -12.624  -5.690  0.00  0.00    +0.175 HD
ENDBRANCH  11  13
BRANCH   2   3
ATOM      3  N   UNL     1      24.587 -15.037 -11.893  0.00  0.00    -0.291 N 
ATOM      4  H   UNL     1      24.875 -14.050 -11.840  0.00  0.00    +0.191 HD
BRANCH   3   5
ATOM      5  C   UNL     1      24.365 -15.663 -13.198  0.00  0.00    +0.101 C 
ATOM      6  C   UNL     1      25.105 -14.978 -14.379  0.00  0.00    +0.031 C 
ATOM      7  C   UNL     1      25.617 -16.292 -13.811  0.00  0.00    +0.031 C 
ENDBRANCH   3   5
ENDBRANCH   2   3
TORSDOF 4
