REMARK  Name = 1e9h_ligand
REMARK  1 active torsions:
REMARK  status: ('A' for Active; 'I' for Inactive)
REMARK    1  A    between atoms: C19_17  and  S21_21
REMARK                            x       y       z     vdW  Elec       q    Type
REMARK                         _______ _______ _______ _____ _____    ______ ____
ROOT
ATOM      1  C   UNL     1       5.479  42.288  49.591  0.00  0.00    +0.082 A 
ATOM      2  C   UNL     1       4.474  42.643  50.507  0.00  0.00    +0.059 A 
ATOM      3  C   UNL     1       3.185  42.041  50.488  0.00  0.00    +0.010 A 
ATOM      4  C   UNL     1       2.939  41.052  49.489  0.00  0.00    -0.015 A 
ATOM      5  C   UNL     1       3.962  40.688  48.549  0.00  0.00    -0.005 A 
ATOM      6  C   UNL     1       5.139  43.688  51.353  0.00  0.00    +0.192 C 
ATOM      7  O   UNL     1       4.608  44.260  52.282  0.00  0.00    -0.361 OA
ATOM      8  C   UNL     1       6.514  43.828  50.830  0.00  0.00    +0.146 C 
ATOM      9  C   UNL     1       7.575  44.609  51.186  0.00  0.00    +0.084 C 
ATOM     10  C   UNL     1       8.895  44.592  50.514  0.00  0.00    +0.218 C 
ATOM     11  O   UNL     1       9.167  43.886  49.543  0.00  0.00    -0.384 OA
ATOM     12  N   UNL     1       9.694  45.429  51.104  0.00  0.00    -0.239 N 
ATOM     13  H   UNL     1      10.639  45.592  50.819  0.00  0.00    +0.225 HD
ATOM     14  C   UNL     1       9.111  46.047  52.134  0.00  0.00    +0.069 A 
ATOM     15  C   UNL     1       9.716  47.006  52.984  0.00  0.00    +0.006 A 
ATOM     16  C   UNL     1       8.941  47.558  54.040  0.00  0.00    -0.001 A 
ATOM     17  C   UNL     1       7.591  47.156  54.223  0.00  0.00    +0.032 A 
ATOM     22  C   UNL     1       6.991  46.187  53.355  0.00  0.00    +0.005 A 
ATOM     23  C   UNL     1       7.776  45.632  52.303  0.00  0.00    +0.003 A 
ATOM     24  C   UNL     1       5.251  41.307  48.589  0.00  0.00    +0.022 A 
ATOM     25  N   UNL     1       6.596  42.991  49.815  0.00  0.00    -0.255 N 
ATOM     26  H   UNL     1       7.446  42.887  49.243  0.00  0.00    +0.221 HD
ENDROOT
BRANCH  17  18
ATOM     18  S   UNL     1       6.585  47.819  55.525  0.00  0.00    -0.171 S 
ATOM     19  O   UNL     1       7.483  48.751  56.254  0.00  0.00    -0.482 OA
ATOM     20  O   UNL     1       6.190  46.745  56.409  0.00  0.00    -0.482 OA
ATOM     21  O   UNL     1       5.563  48.627  54.891  0.00  0.00    -0.482 OA
ENDBRANCH  17  18
TORSDOF 1
