REMARK  Name = H4C
REMARK  2 active torsions:
REMARK  status: ('A' for Active; 'I' for Inactive)
REMARK    1  A    between atoms: C1_5  and  C2_7
REMARK    2  A    between atoms: C10_17  and  C11_18
REMARK                            x       y       z     vdW  Elec       q    Type
REMARK                         _______ _______ _______ _____ _____    ______ ____
ROOT
ATOM      3  C   UNL     1      27.217  51.774   0.539  0.00  0.00    +0.009 A 
ATOM      4  S   UNL     1      26.048  50.979   1.538  0.00  0.00    -0.074 S 
ATOM      5  C   UNL     1      25.015  50.818   0.185  0.00  0.00    +0.097 A 
ATOM      6  N   UNL     1      23.717  50.222   0.276  0.00  0.00    -0.274 N 
ATOM      7  C   UNL     1      23.257  49.119   0.981  0.00  0.00    +0.148 A 
ATOM      8  C   UNL     1      24.094  48.252   1.855  0.00  0.00    +0.074 C 
ATOM      9  N   UNL     1      21.981  48.948   0.739  0.00  0.00    -0.133 NA
ATOM     10  N   UNL     1      21.565  49.955  -0.125  0.00  0.00    -0.131 NA
ATOM     11  C   UNL     1      22.613  50.690  -0.404  0.00  0.00    +0.172 A 
ATOM     12  C   UNL     1      22.719  51.837  -1.353  0.00  0.00    +0.191 C 
ATOM     13  N   UNL     1      23.599  51.498  -2.485  0.00  0.00    -0.262 NA
ATOM     14  C   UNL     1      24.920  51.320  -2.245  0.00  0.00    +0.079 C 
ATOM     22  C   UNL     1      25.565  51.344  -0.965  0.00  0.00    +0.040 A 
ATOM     23  C   UNL     1      26.855  51.909  -0.751  0.00  0.00    +0.006 A 
ENDROOT
BRANCH  14  15
ATOM     15  C   UNL     1      25.797  51.038  -3.414  0.00  0.00    +0.028 A 
ATOM     16  C   UNL     1      26.565  49.871  -3.462  0.00  0.00    +0.002 A 
ATOM     17  C   UNL     1      27.328  49.579  -4.579  0.00  0.00    +0.000 A 
ATOM     18  C   UNL     1      27.361  50.447  -5.647  0.00  0.00    +0.001 A 
ATOM     19  C   UNL     1      26.643  51.628  -5.606  0.00  0.00    +0.011 A 
ATOM     20  C   UNL     1      25.871  51.917  -4.489  0.00  0.00    +0.059 A 
ATOM     21 CL   UNL     1      25.028  53.437  -4.441  0.00  0.00    -0.082 Cl
ENDBRANCH  14  15
BRANCH   3   2
ATOM      1  C   UNL     1      29.335  51.299   1.769  0.00  0.00    +0.006 C 
ATOM      2  C   UNL     1      28.510  52.304   1.112  0.00  0.00    +0.033 C 
ENDBRANCH   3   2
TORSDOF 2
