REMARK  Name = 5O13
REMARK  5 active torsions:
REMARK  status: ('A' for Active; 'I' for Inactive)
REMARK    1  A    between atoms: C_4  and  C_5
REMARK    2  A    between atoms: C_8  and  C_25
REMARK    3  A    between atoms: C_10  and  C_21
REMARK    4  A    between atoms: C_10  and  C_22
REMARK    5  A    between atoms: N_32  and  C_33
REMARK                            x       y       z     vdW  Elec       q    Type
REMARK                         _______ _______ _______ _____ _____    ______ ____
ROOT
ATOM     13  C   UNL     1     -70.657  47.724  -5.685  0.00  0.00    +0.135 A 
ATOM     14  O   UNL     1     -70.652  48.296  -4.436  0.00  0.00    -0.459 OA
ATOM     15  C   UNL     1     -69.846  49.365  -4.562  0.00  0.00    +0.110 A 
ATOM     28  C   UNL     1     -69.468  49.615  -5.859  0.00  0.00    +0.045 A 
ATOM     29  C   UNL     1     -69.921  48.518  -6.562  0.00  0.00    +0.050 A 
ENDROOT
BRANCH  13  12
ATOM     10  C   UNL     1     -72.439  45.106  -7.691  0.00  0.00    +0.038 A 
ATOM     11  C   UNL     1     -71.752  46.262  -7.342  0.00  0.00    +0.024 A 
ATOM     12  C   UNL     1     -71.384  46.494  -6.021  0.00  0.00    +0.018 A 
ATOM     30  C   UNL     1     -71.768  45.647  -5.018  0.00  0.00    +0.012 A 
ATOM     31  C   UNL     1     -72.451  44.493  -5.360  0.00  0.00    +0.001 A 
ATOM     32  C   UNL     1     -72.803  44.223  -6.684  0.00  0.00    +0.013 A 
BRANCH  10   8
ATOM      1  N   UNL     1     -72.044  44.304 -10.074  0.00  0.00    -0.296 N 
ATOM      2  C   UNL     1     -72.426  43.145 -10.861  0.00  0.00    +0.109 C 
ATOM      3  C   UNL     1     -72.910  43.751 -12.184  0.00  0.00    +0.034 C 
ATOM      4  C   UNL     1     -71.759  44.111 -13.136  0.00  0.00    +0.086 C 
ATOM      5  N   UNL     1     -71.090  45.429 -12.911  0.00  0.00    -0.304 NA
ATOM      6  C   UNL     1     -71.539  46.461 -13.876  0.00  0.00    +0.105 C 
ATOM      7  C   UNL     1     -71.143  45.954 -11.529  0.00  0.00    +0.103 C 
ATOM      8  C   UNL     1     -72.851  44.855  -9.132  0.00  0.00    +0.247 C 
ATOM      9  O   UNL     1     -73.997  45.232  -9.432  0.00  0.00    -0.270 OA
ATOM     33  C   UNL     1     -70.768  44.888 -10.487  0.00  0.00    +0.123 C 
ENDBRANCH  10   8
ENDBRANCH  13  12
BRANCH  15  16
ATOM     16  C   UNL     1     -69.646  50.313  -3.456  0.00  0.00    +0.115 C 
BRANCH  16  17
ATOM     17  C   UNL     1     -69.924  50.075  -2.026  0.00  0.00    +0.033 C 
ATOM     18  C   UNL     1     -70.456  48.893  -1.321  0.00  0.00    +0.008 A 
ATOM     19  C   UNL     1     -70.799  47.585  -1.639  0.00  0.00    +0.030 A 
ATOM     20  C   UNL     1     -71.231  46.736  -0.664  0.00  0.00    +0.042 A 
ATOM     21 CL   UNL     1     -71.729  45.091  -1.079  0.00  0.00    -0.084 Cl
ATOM     22  C   UNL     1     -71.363  47.125   0.633  0.00  0.00    +0.022 A 
ATOM     23  C   UNL     1     -70.987  48.410   0.988  0.00  0.00    +0.027 A 
ATOM     24  C   UNL     1     -70.534  49.320   0.065  0.00  0.00    +0.065 A 
ATOM     25  N   UNL     1     -70.147  50.618   0.189  0.00  0.00    -0.176 NA
ATOM     26  C   UNL     1     -69.784  51.073  -1.017  0.00  0.00    +0.265 C 
ATOM     27  O   UNL     1     -69.371  52.279  -1.250  0.00  0.00    -0.268 OA
ENDBRANCH  16  17
ENDBRANCH  15  16
TORSDOF 4
