REMARK  Name = H1N
REMARK  8 active torsions:
REMARK  status: ('A' for Active; 'I' for Inactive)
REMARK    1  A    between atoms: NAI_6  and  CAH_7
REMARK    2  A    between atoms: CAH_7  and  CAG_8
REMARK    3  A    between atoms: CAQ_13  and  NAP_14
REMARK    4  A    between atoms: CAO_15  and  CAN_16
REMARK    5  A    between atoms: CAO_15  and  CBD_22
REMARK    6  A    between atoms: CBA_31  and  NAZ_32
REMARK    7  A    between atoms: NAZ_32  and  SAY_33
REMARK    8  A    between atoms: SAY_33  and  CAX_36
REMARK                            x       y       z     vdW  Elec       q    Type
REMARK                         _______ _______ _______ _____ _____    ______ ____
ROOT
ATOM     12  N   UNL     1      38.251  53.400  59.004  0.00  0.00    -0.249 NA
ATOM     13  C   UNL     1      38.334  54.707  58.518  0.00  0.00    +0.071 C 
ENDROOT
BRANCH  13  14
ATOM     14  C   UNL     1      37.862  55.750  59.314  0.00  0.00    +0.142 C 
ATOM     15  C   UNL     1      37.335  55.524  60.685  0.00  0.00    +0.255 C 
ATOM     16  O   UNL     1      37.312  54.464  61.310  0.00  0.00    -0.272 OA
ATOM     17  N   UNL     1      36.880  56.715  61.138  0.00  0.00    -0.179 NA
ATOM     18  C   UNL     1      37.067  57.722  60.209  0.00  0.00    +0.070 A 
ATOM     19  C   UNL     1      36.721  59.063  60.291  0.00  0.00    +0.018 A 
ATOM     20  C   UNL     1      36.983  59.894  59.217  0.00  0.00    +0.019 A 
ATOM     21  C   UNL     1      37.553  59.386  58.050  0.00  0.00    +0.090 A 
ATOM     22  C   UNL     1      37.926  58.036  57.980  0.00  0.00    +0.016 A 
ATOM     29  C   UNL     1      37.680  57.183  59.062  0.00  0.00    +0.009 A 
BRANCH  21  23
ATOM     23  N   UNL     1      37.664  60.276  56.927  0.00  0.00    -0.101 NA
BRANCH  23  24
ATOM     24  S   UNL     1      38.228  59.936  55.444  0.00  0.00    +0.073 S 
ATOM     25  O   UNL     1      39.469  59.229  55.579  0.00  0.00    -0.153 OA
ATOM     28  O   UNL     1      38.201  61.162  54.700  0.00  0.00    -0.153 OA
BRANCH  24  26
ATOM     26  C   UNL     1      36.912  58.885  54.922  0.00  0.00    +0.174 C 
ATOM     27  C   UNL     1      37.232  58.179  53.633  0.00  0.00    +0.029 C 
ENDBRANCH  24  26
ENDBRANCH  23  24
ENDBRANCH  21  23
ENDBRANCH  13  14
BRANCH  12  11
ATOM      8  C   UNL     1      39.481  49.533  57.815  0.00  0.00    -0.006 A 
ATOM      9  C   UNL     1      38.758  49.754  58.976  0.00  0.00    -0.001 A 
ATOM     10  C   UNL     1      38.367  51.030  59.345  0.00  0.00    +0.019 A 
ATOM     11  C   UNL     1      38.692  52.123  58.548  0.00  0.00    +0.081 A 
ATOM     36  C   UNL     1      39.413  51.905  57.377  0.00  0.00    +0.019 A 
ATOM     37  C   UNL     1      39.797  50.623  57.019  0.00  0.00    -0.001 A 
BRANCH   8   7
ATOM      7  C   UNL     1      39.945  48.143  57.449  0.00  0.00    +0.099 C 
BRANCH   7   6
ATOM      1  C   UNL     1      41.599  47.823  59.216  0.00  0.00    +0.072 C 
ATOM      2  C   UNL     1      43.069  47.629  59.542  0.00  0.00    +0.017 C 
ATOM      3  C   UNL     1      43.614  46.375  58.885  0.00  0.00    +0.003 C 
ATOM      4  C   UNL     1      43.287  46.354  57.399  0.00  0.00    +0.017 C 
ATOM      5  C   UNL     1      41.811  46.620  57.154  0.00  0.00    +0.072 C 
ATOM      6  N   UNL     1      41.362  47.884  57.760  0.00  0.00    -0.269 NA
ENDBRANCH   7   6
ENDBRANCH   8   7
ENDBRANCH  12  11
BRANCH  13  30
ATOM     30  C   UNL     1      38.841  54.945  57.161  0.00  0.00    +0.014 A 
ATOM     31  C   UNL     1      40.104  55.494  56.962  0.00  0.00    +0.001 A 
ATOM     32  C   UNL     1      40.547  55.783  55.683  0.00  0.00    +0.000 A 
ATOM     33  C   UNL     1      39.745  55.511  54.589  0.00  0.00    +0.000 A 
ATOM     34  C   UNL     1      38.495  54.955  54.776  0.00  0.00    +0.000 A 
ATOM     35  C   UNL     1      38.040  54.676  56.053  0.00  0.00    +0.001 A 
ENDBRANCH  13  30
TORSDOF 8
