REMARK  Name = G54
REMARK  3 active torsions:
REMARK  status: ('A' for Active; 'I' for Inactive)
REMARK    1  A    between atoms: C9_6  and  N4_21
REMARK    2  A    between atoms: C1_11  and  C11_16
REMARK    3  A    between atoms: N4_21  and  C17_22
REMARK                            x       y       z     vdW  Elec       q    Type
REMARK                         _______ _______ _______ _____ _____    ______ ____
ROOT
ATOM      7  C   UNL     1      -0.823  16.230  -4.439  0.00  0.00    +0.014 A 
ATOM      8  C   UNL     1      -1.147  17.488  -3.936  0.00  0.00    +0.001 A 
ATOM      9  C   UNL     1      -2.221  18.200  -4.440  0.00  0.00    -0.004 A 
ATOM     10  C   UNL     1      -3.002  17.671  -5.466  0.00  0.00    -0.025 A 
ATOM     11  C   UNL     1      -2.697  16.419  -5.988  0.00  0.00    -0.008 A 
ATOM     12  C   UNL     1      -3.628  16.035  -7.128  0.00  0.00    +0.105 C 
ATOM     16  C   UNL     1      -4.332  17.404  -7.457  0.00  0.00    +0.030 C 
ATOM     17  C   UNL     1      -2.843  15.518  -8.338  0.00  0.00    +0.027 C 
ATOM     18  C   UNL     1      -4.174  18.284  -6.194  0.00  0.00    +0.028 C 
ATOM     19  C   UNL     1      -1.613  15.712  -5.468  0.00  0.00    -0.002 A 
ENDROOT
BRANCH   7   6
ATOM      1  N   UNL     1       1.454  12.112  -3.575  0.00  0.00    -0.034 NA
ATOM      2  C   UNL     1       1.574  13.463  -3.457  0.00  0.00    +0.363 C 
ATOM      3  N   UNL     1       2.650  14.149  -3.012  0.00  0.00    -0.012 NA
ATOM      4  C   UNL     1       2.459  15.469  -3.049  0.00  0.00    +0.339 C 
ATOM      5  N   UNL     1       1.383  16.145  -3.469  0.00  0.00    -0.203 NA
ATOM      6  C   UNL     1       0.319  15.445  -3.897  0.00  0.00    +0.079 C 
ATOM     20  C   UNL     1       0.325  14.047  -3.900  0.00  0.00    +0.178 C 
ATOM     21  C   UNL     1      -0.507  12.938  -4.259  0.00  0.00    +0.042 C 
ATOM     22  C   UNL     1       0.210  11.804  -4.053  0.00  0.00    +0.232 C 
ENDBRANCH   7   6
BRANCH  12  13
ATOM     13  N   UNL     1      -4.670  15.075  -6.660  0.00  0.00    -0.166 NA
BRANCH  13  14
ATOM     14  C   UNL     1      -4.360  13.812  -6.244  0.00  0.00    +0.189 C 
ATOM     15  N   UNL     1      -4.012  12.755  -5.918  0.00  0.00    -0.173 NA
ENDBRANCH  13  14
ENDBRANCH  12  13
TORSDOF 3
