REMARK  Name = 4bdh_ligand
REMARK  3 active torsions:
REMARK  status: ('A' for Active; 'I' for Inactive)
REMARK    1  A    between atoms: C1_1  and  C6_5
REMARK    2  A    between atoms: N3_2  and  C4_3
REMARK    3  A    between atoms: C5_4  and  C10_8
REMARK                            x       y       z     vdW  Elec       q    Type
REMARK                         _______ _______ _______ _____ _____    ______ ____
ROOT
ATOM      1  C   UNL     1     -36.236  35.630   9.124  0.00  0.00    +0.084 C 
ATOM      2  C   UNL     1     -36.825  34.970   7.918  0.00  0.00    +0.001 A 
ATOM      3  N   UNL     1     -36.746  35.523   6.697  0.00  0.00    -0.247 NA
ATOM      4  N   UNL     1     -37.369  34.769   5.745  0.00  0.00    -0.207 N 
ATOM      5  H   UNL     1     -37.446  34.984   4.741  0.00  0.00    +0.248 HD
ATOM      6  C   UNL     1     -37.869  33.675   6.386  0.00  0.00    +0.169 A 
ATOM     10  C   UNL     1     -37.521  33.775   7.778  0.00  0.00    +0.034 A 
ENDROOT
BRANCH  10  11
ATOM     11  C   UNL     1     -37.790  32.753   8.804  0.00  0.00    +0.006 A 
ATOM     12  S   UNL     1     -39.128  31.671   8.721  0.00  0.00    -0.059 S 
ATOM     13  C   UNL     1     -38.674  30.908  10.189  0.00  0.00    +0.033 A 
ATOM     14  C   UNL     1     -37.555  31.435  10.731  0.00  0.00    -0.059 A 
ATOM     15  C   UNL     1     -37.014  32.499   9.965  0.00  0.00    -0.066 A 
ENDBRANCH  10  11
BRANCH   6   7
ATOM      7  N   UNL     1     -38.552  32.699   5.784  0.00  0.00    -0.303 N 
ATOM      8  H   UNL     1     -38.895  31.897   6.332  0.00  0.00    +0.183 HD
ATOM      9  H   UNL     1     -38.736  32.748   4.772  0.00  0.00    +0.183 HD
ENDBRANCH   6   7
TORSDOF 2
