REMARK  Name = 4IWO
REMARK  8 active torsions:
REMARK  status: ('A' for Active; 'I' for Inactive)
REMARK    1  A    between atoms: C_4  and  C_5
REMARK    2  A    between atoms: C_9  and  C_10
REMARK    3  A    between atoms: N_12  and  C_13
REMARK    4  A    between atoms: C_13  and  C_14
REMARK    5  A    between atoms: C_14  and  C_15
REMARK    6  A    between atoms: C_15  and  N_16
REMARK    7  A    between atoms: N_21  and  C_22
REMARK    8  A    between atoms: C_24  and  N_28
REMARK                            x       y       z     vdW  Elec       q    Type
REMARK                         _______ _______ _______ _____ _____    ______ ____
ROOT
ATOM      4  C   UNL     1     -25.776 -16.671  16.275  0.00  0.00    +0.014 A 
ATOM      5  C   UNL     1     -25.777 -15.868  15.013  0.00  0.00    +0.127 A 
ATOM      6  N   UNL     1     -24.918 -16.456  13.845  0.00  0.00    -0.199 NA
ATOM      7  C   UNL     1     -24.228 -17.742  14.176  0.00  0.00    +0.221 A 
ATOM      8  N   UNL     1     -23.378 -18.449  13.253  0.00  0.00    -0.283 N 
ATOM      9  H   UNL     1     -23.528 -19.488  13.459  0.00  0.00    +0.155 HD
ATOM     22  N   UNL     1     -24.418 -18.149  15.299  0.00  0.00    -0.222 NA
ATOM     23  N   UNL     1     -26.507 -14.630  14.838  0.00  0.00    -0.329 N 
ATOM     24  H   UNL     1     -27.434 -14.732  15.363  0.00  0.00    +0.147 HD
ATOM     36  C   UNL     1     -25.045 -17.743  16.191  0.00  0.00    +0.121 A 
ENDROOT
BRANCH   8  10
ATOM     10  C   UNL     1     -23.462 -18.317  11.801  0.00  0.00    +0.035 A 
ATOM     11  C   UNL     1     -24.431 -17.410  11.078  0.00  0.00    +0.023 A 
ATOM     12  C   UNL     1     -24.338 -17.438   9.787  0.00  0.00    +0.004 A 
ATOM     13  C   UNL     1     -23.603 -18.074   9.117  0.00  0.00    +0.024 A 
ATOM     14  C   UNL     1     -22.693 -18.906   9.369  0.00  0.00    +0.043 A 
ATOM     21  C   UNL     1     -22.484 -19.155  10.821  0.00  0.00    +0.047 A 
BRANCH  14  15
ATOM     15  N   UNL     1     -21.918 -19.559   8.348  0.00  0.00    -0.247 N 
ATOM     16  C   UNL     1     -20.500 -19.897   8.451  0.00  0.00    +0.228 C 
ATOM     17  O   UNL     1     -19.782 -19.683   9.417  0.00  0.00    -0.275 OA
ATOM     18  C   UNL     1     -20.065 -20.553   7.192  0.00  0.00    +0.125 C 
ATOM     19  C   UNL     1     -21.223 -20.499   6.256  0.00  0.00    -0.002 C 
ATOM     20  C   UNL     1     -22.419 -19.976   7.042  0.00  0.00    +0.080 C 
ENDBRANCH  14  15
ENDBRANCH   8  10
BRANCH   4   3
ATOM      1  C   UNL     1     -25.794 -15.391  18.387  0.00  0.00    +0.009 C 
ATOM      2  C   UNL     1     -26.039 -16.840  18.720  0.00  0.00    +0.009 C 
ATOM      3  C   UNL     1     -26.580 -16.234  17.544  0.00  0.00    +0.024 C 
ENDBRANCH   4   3
BRANCH  23  25
ATOM     25  C   UNL     1     -26.820 -14.207  13.499  0.00  0.00    +0.104 C 
BRANCH  25  26
ATOM     26  C   UNL     1     -28.042 -14.980  13.032  0.00  0.00    +0.037 C 
BRANCH  26  27
ATOM     27  C   UNL     1     -29.151 -14.794  14.089  0.00  0.00    +0.105 C 
BRANCH  27  28
ATOM     28  N   UNL     1     -29.213 -13.383  14.480  0.00  0.00    -0.315 N 
ATOM     29  H   UNL     1     -29.093 -12.615  13.745  0.00  0.00    +0.149 HD
ATOM     30  C   UNL     1     -29.426 -13.055  15.793  0.00  0.00    +0.216 C 
ATOM     31  O   UNL     1     -29.345 -13.633  17.060  0.00  0.00    -0.276 OA
BRANCH  30  32
ATOM     32  C   UNL     1     -29.886 -11.648  15.878  0.00  0.00    +0.075 C 
ATOM     33  C   UNL     1     -28.926 -10.841  16.588  0.00  0.00    +0.012 C 
ATOM     34  C   UNL     1     -28.551 -10.225  15.250  0.00  0.00    +0.001 C 
ATOM     35  C   UNL     1     -29.752 -10.979  14.637  0.00  0.00    +0.012 C 
ENDBRANCH  30  32
ENDBRANCH  27  28
ENDBRANCH  26  27
ENDBRANCH  25  26
ENDBRANCH  23  25
TORSDOF 8
