REMARK  Name = 3fhr_ligand
REMARK  2 active torsions:
REMARK  status: ('A' for Active; 'I' for Inactive)
REMARK    1  A    between atoms: C18_10  and  C14_11
REMARK    2  A    between atoms: C12_16  and  C2_17
REMARK                            x       y       z     vdW  Elec       q    Type
REMARK                         _______ _______ _______ _____ _____    ______ ____
ROOT
ATOM      3  C   UNL     1      21.412   5.959  14.213  0.00  0.00    +0.049 A 
ATOM      4  N   UNL     1      22.577   6.144  14.843  0.00  0.00    -0.303 NA
ATOM      5  C   UNL     1      22.899   5.443  15.948  0.00  0.00    +0.080 A 
ATOM      6  C   UNL     1      22.042   4.503  16.487  0.00  0.00    +0.030 A 
ATOM      7  C   UNL     1      20.834   4.269  15.835  0.00  0.00    +0.008 A 
ATOM     20  C   UNL     1      20.527   5.014  14.705  0.00  0.00    +0.040 A 
ENDROOT
BRANCH   7   8
ATOM      8  C   UNL     1      19.891   3.282  16.416  0.00  0.00    +0.064 A 
ATOM      9  N   UNL     1      18.732   3.036  15.724  0.00  0.00    -0.271 N 
ATOM     10  H   UNL     1      18.450   3.461  14.829  0.00  0.00    +0.235 HD
ATOM     11  C   UNL     1      18.033   2.131  16.441  0.00  0.00    +0.072 A 
ATOM     12  C   UNL     1      16.693   1.499  16.124  0.00  0.00    +0.133 C 
ATOM     13  C   UNL     1      16.395   0.362  17.112  0.00  0.00    +0.153 C 
ATOM     14  N   UNL     1      16.986   0.458  18.451  0.00  0.00    -0.290 N 
ATOM     15  H   UNL     1      16.438   0.205  19.248  0.00  0.00    +0.184 HD
ATOM     16  C   UNL     1      18.240   0.876  18.625  0.00  0.00    +0.175 C 
ATOM     17  O   UNL     1      18.882   0.535  19.595  0.00  0.00    -0.404 OA
ATOM     18  C   UNL     1      18.810   1.826  17.631  0.00  0.00    +0.041 A 
ATOM     19  C   UNL     1      19.958   2.587  17.612  0.00  0.00    -0.019 A 
ENDBRANCH   7   8
BRANCH   3   2
ATOM      1  C   UNL     1      21.622   8.002  12.690  0.00  0.00    +0.056 A 
ATOM      2  C   UNL     1      21.114   6.721  12.977  0.00  0.00    +0.027 A 
ATOM     21  C   UNL     1      20.361   6.055  12.027  0.00  0.00    +0.110 A 
ATOM     22  N   UNL     1      20.041   6.629  10.865  0.00  0.00    -0.293 NA
ATOM     23  C   UNL     1      20.478   7.863  10.549  0.00  0.00    +0.048 A 
ATOM     24  C   UNL     1      20.095   8.392   9.311  0.00  0.00    +0.026 A 
ATOM     25  C   UNL     1      20.546   9.657   8.971  0.00  0.00    +0.010 A 
ATOM     26  C   UNL     1      21.333  10.390   9.862  0.00  0.00    +0.009 A 
ATOM     27  C   UNL     1      21.698   9.865  11.107  0.00  0.00    +0.021 A 
ATOM     28  C   UNL     1      21.273   8.583  11.458  0.00  0.00    +0.009 A 
ENDBRANCH   3   2
TORSDOF 2
