REMARK  Name = 4c4i_ligand
REMARK  10 active torsions:
REMARK  status: ('A' for Active; 'I' for Inactive)
REMARK    1  A    between atoms: C_1  and  O3_13
REMARK    2  A    between atoms: N1_6  and  C4_14
REMARK    3  A    between atoms: N2_9  and  C9_20
REMARK    4  A    between atoms: N2_9  and  C10_21
REMARK    5  A    between atoms: O3_13  and  C20_31
REMARK    6  A    between atoms: C7_18  and  C8_19
REMARK    7  A    between atoms: C16_27  and  C17_28
REMARK    8  A    between atoms: C20_31  and  C21_32
REMARK    9  A    between atoms: C20_31  and  C22_33
REMARK   10  A    between atoms: C20_31  and  C23_34
REMARK                            x       y       z     vdW  Elec       q    Type
REMARK                         _______ _______ _______ _____ _____    ______ ____
ROOT
ATOM      1  C   UNL     1      -2.084 -15.716 -13.984  0.00  0.00    +0.396 C 
ATOM      7  O   UNL     1      -2.754 -15.378 -14.922  0.00  0.00    -0.346 OA
ATOM      8  N   UNL     1      -1.884 -17.064 -13.593  0.00  0.00    -0.141 N 
ATOM      9  C   UNL     1      -2.383 -18.226 -14.265  0.00  0.00    +0.129 A 
ATOM     15  C   UNL     1      -1.973 -19.341 -13.593  0.00  0.00    -0.025 A 
ATOM     16  C   UNL     1      -1.198 -18.917 -12.477  0.00  0.00    -0.008 A 
ATOM     17  C   UNL     1      -0.529 -19.599 -11.472  0.00  0.00    +0.059 A 
ATOM     18  N   UNL     1       0.156 -18.977 -10.518  0.00  0.00    -0.300 NA
ATOM     19  C   UNL     1       0.190 -17.601 -10.544  0.00  0.00    +0.114 A 
ATOM     20  C   UNL     1      -0.452 -16.805 -11.510  0.00  0.00    +0.057 A 
ATOM     21  N   UNL     1       0.916 -16.962  -9.544  0.00  0.00    -0.265 N 
ATOM     22  H   UNL     1       1.312 -17.577  -8.819  0.00  0.00    +0.211 HD
ATOM     35  C   UNL     1      -1.150 -17.505 -12.484  0.00  0.00    +0.104 A 
ENDROOT
BRANCH  21  23
ATOM     23  C   UNL     1       1.181 -15.602  -9.390  0.00  0.00    +0.078 A 
ATOM     24  C   UNL     1       1.155 -15.092  -8.092  0.00  0.00    +0.067 A 
ATOM     25  C   UNL     1       1.435 -13.781  -7.794  0.00  0.00    +0.026 A 
ATOM     26  C   UNL     1       1.756 -12.935  -8.837  0.00  0.00    +0.038 A 
ATOM     32  C   UNL     1       1.779 -13.398 -10.145  0.00  0.00    +0.012 A 
ATOM     33 CL   UNL     1       0.759 -16.128  -6.780  0.00  0.00    -0.079 Cl
ATOM     34  C   UNL     1       1.495 -14.721 -10.427  0.00  0.00    +0.021 A 
BRANCH  26  27
ATOM     27  C   UNL     1       2.105 -11.525  -8.577  0.00  0.00    +0.198 C 
ATOM     28  N   UNL     1       1.391 -10.556  -9.255  0.00  0.00    -0.280 N 
ATOM     29  C   UNL     1       0.094 -10.880  -9.871  0.00  0.00    +0.167 C 
ATOM     30  C   UNL     1       1.564  -9.133  -8.922  0.00  0.00    +0.167 C 
ATOM     31  O   UNL     1       2.990 -11.219  -7.796  0.00  0.00    -0.390 OA
ENDBRANCH  26  27
ENDBRANCH  21  23
BRANCH   9  10
ATOM     10  C   UNL     1      -3.168 -18.213 -15.458  0.00  0.00    +0.168 A 
ATOM     11  C   UNL     1      -4.204 -17.431 -15.917  0.00  0.00    +0.064 A 
ATOM     12  N   UNL     1      -4.589 -17.915 -17.178  0.00  0.00    -0.304 NA
ATOM     13  C   UNL     1      -3.785 -18.944 -17.414  0.00  0.00    +0.303 A 
ATOM     14  O   UNL     1      -2.901 -19.168 -16.398  0.00  0.00    -0.227 OA
ENDBRANCH   9  10
BRANCH   1   2
ATOM      2  O   UNL     1      -1.435 -14.826 -13.190  0.00  0.00    -0.245 OA
BRANCH   2   3
ATOM      3  C   UNL     1      -1.425 -13.424 -13.610  0.00  0.00    +0.092 C 
ATOM      4  C   UNL     1      -2.859 -12.948 -13.590  0.00  0.00    +0.046 C 
ATOM      5  C   UNL     1      -0.578 -12.659 -12.620  0.00  0.00    +0.046 C 
ATOM      6  C   UNL     1      -0.842 -13.354 -15.002  0.00  0.00    +0.046 C 
ENDBRANCH   2   3
ENDBRANCH   1   2
TORSDOF 5
