REMARK  Name = 6GR9
REMARK  6 active torsions:
REMARK  status: ('A' for Active; 'I' for Inactive)
REMARK    1  A    between atoms: N4_4  and  C8_8
REMARK    2  A    between atoms: C12_12  and  S23_21
REMARK    3  A    between atoms: N14_14  and  C15_15
REMARK    4  A    between atoms: S23_21  and  C24_22
REMARK    5  A    between atoms: C27_25  and  N30_28
REMARK    6  A    between atoms: C31_29  and  C33_31
REMARK                            x       y       z     vdW  Elec       q    Type
REMARK                         _______ _______ _______ _____ _____    ______ ____
ROOT
ATOM      6  C   UNL     1      30.055   9.190   4.834  0.00  0.00    +0.430 A 
ATOM      7  N   UNL     1      30.996   8.251   4.566  0.00  0.00    -0.760 NA
ATOM      8  C   UNL     1      30.969   7.124   5.289  0.00  0.00    +0.820 A 
ATOM     22  N   UNL     1      30.060   6.821   6.240  0.00  0.00    -0.760 NA
ATOM     23  C   UNL     1      29.104   7.722   6.495  0.00  0.00    +0.430 A 
ATOM     24  N   UNL     1      28.137   7.568   7.474  0.00  0.00    -0.350 NA
ATOM     31  C   UNL     1      29.057   8.945   5.811  0.00  0.00    -0.130 A 
ENDROOT
BRANCH   6   5
ATOM      1  N   UNL     1      30.418  12.904   2.944  0.00  0.00    -0.600 NA
ATOM      2  C   UNL     1      30.871  14.299   2.925  0.00  0.00    +0.050 C 
ATOM      3  C   UNL     1      29.470  12.681   4.035  0.00  0.00    +0.100 C 
ATOM      4  C   UNL     1      28.952  11.259   4.014  0.00  0.00    +0.000 C 
ATOM      5  N   UNL     1      30.061  10.316   4.053  0.00  0.00    -0.250 N 
ATOM     32  C   UNL     1      31.098  10.548   3.056  0.00  0.00    +0.000 C 
ATOM     33  C   UNL     1      31.554  11.993   3.098  0.00  0.00    +0.100 C 
ENDBRANCH   6   5
BRANCH  24  25
ATOM     25  C   UNL     1      27.871   6.439   8.220  0.00  0.00    +0.150 A 
ATOM     26  N   UNL     1      26.829   6.371   9.040  0.00  0.00    -0.400 NA
ATOM     27  N   UNL     1      26.878   5.112   9.561  0.00  0.00    -0.100 NA
ATOM     28  C   UNL     1      27.927   4.419   9.091  0.00  0.00    +0.100 A 
ATOM     29  C   UNL     1      28.192   3.011   9.493  0.00  0.00    -0.150 C 
ATOM     30  C   UNL     1      28.563   5.234   8.214  0.00  0.00    -0.100 A 
ENDBRANCH  24  25
BRANCH   8   9
ATOM      9  S   UNL     1      32.268   5.995   4.917  0.00  0.00    -0.120 S 
BRANCH   9  10
ATOM     10  C   UNL     1      32.191   4.884   6.299  0.00  0.00    +0.060 A 
ATOM     11  C   UNL     1      32.849   5.200   7.483  0.00  0.00    -0.130 A 
ATOM     12  C   UNL     1      32.776   4.352   8.576  0.00  0.00    -0.130 A 
ATOM     13  C   UNL     1      32.059   3.164   8.496  0.00  0.00    +0.050 A 
ATOM     20  C   UNL     1      31.378   2.862   7.308  0.00  0.00    -0.130 A 
ATOM     21  C   UNL     1      31.447   3.721   6.222  0.00  0.00    -0.130 A 
BRANCH  13  14
ATOM     14  N   UNL     1      32.050   2.362   9.663  0.00  0.00    -0.100 NA
ATOM     15  C   UNL     1      31.534   1.209   9.813  0.00  0.00    +0.200 C 
ATOM     19  O   UNL     1      30.855   0.569   8.867  0.00  0.00    -0.550 OA
BRANCH  15  16
ATOM     16  C   UNL     1      31.690   0.538  10.960  0.00  0.00    -0.050 C 
ATOM     17  C   UNL     1      30.710   0.798  12.069  0.00  0.00    -0.100 C 
ATOM     18  C   UNL     1      30.694  -0.509  11.388  0.00  0.00    -0.100 C 
ENDBRANCH  15  16
ENDBRANCH  13  14
ENDBRANCH   9  10
ENDBRANCH   8   9
TORSDOF 6
