REMARK  Name = 3fyk_ligand
REMARK  4 active torsions:
REMARK  status: ('A' for Active; 'I' for Inactive)
REMARK    1  A    between atoms: C3_6  and  O2_18
REMARK    2  A    between atoms: C12_11  and  C13_13
REMARK    3  A    between atoms: C1_12  and  O2_18
REMARK    4  A    between atoms: C13_13  and  N14_16
REMARK                            x       y       z     vdW  Elec       q    Type
REMARK                         _______ _______ _______ _____ _____    ______ ____
ROOT
ATOM      1  C   UNL     1      83.128 262.867 106.158  0.00  0.00    +0.017 A 
ATOM      2  C   UNL     1      82.157 262.466 107.033  0.00  0.00    +0.084 A 
ATOM      5  C   UNL     1      82.439 261.855 108.238  0.00  0.00    +0.020 A 
ATOM      6  C   UNL     1      83.767 261.647 108.569  0.00  0.00    +0.006 A 
ATOM      7  C   UNL     1      84.720 262.069 107.660  0.00  0.00    +0.028 A 
ATOM      8  S   UNL     1      86.281 261.722 108.263  0.00  0.00    -0.056 S 
ATOM      9  C   UNL     1      85.725 261.009 109.711  0.00  0.00    +0.102 A 
ATOM     10  C   UNL     1      86.743 260.534 110.612  0.00  0.00    +0.189 C 
ATOM     11  O   UNL     1      87.843 261.067 110.656  0.00  0.00    -0.405 OA
ATOM     12  N   UNL     1      86.462 259.455 111.417  0.00  0.00    -0.282 N 
ATOM     13  H   UNL     1      87.243 258.918 111.737  0.00  0.00    +0.183 HD
ATOM     14  C   UNL     1      85.163 259.021 111.845  0.00  0.00    +0.162 C 
ATOM     20  C   UNL     1      84.162 260.146 112.007  0.00  0.00    +0.159 C 
ATOM     21  N   UNL     1      83.576 260.568 110.738  0.00  0.00    -0.323 N 
ATOM     22  H   UNL     1      82.557 260.498 110.605  0.00  0.00    +0.175 HD
ATOM     23  C   UNL     1      84.347 261.051 109.730  0.00  0.00    +0.059 A 
ATOM     24  C   UNL     1      84.449 262.676 106.457  0.00  0.00    +0.002 A 
ENDROOT
BRANCH   2   3
ATOM      3  O   UNL     1      80.858 262.708 106.634  0.00  0.00    -0.326 OA
ATOM      4  C   UNL     1      80.022 262.172 107.645  0.00  0.00    +0.230 C 
ENDBRANCH   2   3
BRANCH  14  15
ATOM     15  C   UNL     1      84.679 257.894 110.964  0.00  0.00    +0.157 C 
BRANCH  15  16
ATOM     16  N   UNL     1      83.513 257.322 111.666  0.00  0.00    +0.220 N 
ATOM     17  H   UNL     1      83.798 256.986 112.572  0.00  0.00    +0.200 HD
ATOM     18  H   UNL     1      82.807 258.032 111.778  0.00  0.00    +0.200 HD
ATOM     19  H   UNL     1      83.138 256.558 111.127  0.00  0.00    +0.200 HD
ENDBRANCH  15  16
ENDBRANCH  14  15
TORSDOF 3
