REMARK  Name = 3r9n_ligand
REMARK  6 active torsions:
REMARK  status: ('A' for Active; 'I' for Inactive)
REMARK    1  A    between atoms: N1_2  and  C2_5
REMARK    2  A    between atoms: N3_9  and  C11_19
REMARK    3  A    between atoms: O3_10  and  C7_15
REMARK    4  A    between atoms: C4_11  and  C7_15
REMARK    5  A    between atoms: N4_12  and  C9_17
REMARK    6  A    between atoms: C7_15  and  C8_16
REMARK                            x       y       z     vdW  Elec       q    Type
REMARK                         _______ _______ _______ _____ _____    ______ ____
ROOT
ATOM      6  C   UNL     1      93.032  79.993 -49.679  0.00  0.00    +0.335 A 
ATOM      7  C   UNL     1      92.713  80.694 -50.844  0.00  0.00    +0.347 A 
ATOM     11  N   UNL     1      91.803  81.667 -50.650  0.00  0.00    -0.107 NA
ATOM     12  C   UNL     1      91.428  81.714 -49.346  0.00  0.00    +0.320 A 
ATOM     13  N   UNL     1      90.505  82.609 -48.893  0.00  0.00    -0.223 N 
ATOM     14  H   UNL     1      90.227  83.406 -49.483  0.00  0.00    +0.233 HD
ATOM     21  S   UNL     1      92.184  80.577 -48.309  0.00  0.00    +0.244 S 
ENDROOT
BRANCH  13  15
ATOM     15  C   UNL     1      89.907  82.437 -47.564  0.00  0.00    +0.131 C 
ATOM     16  C   UNL     1      89.283  83.789 -47.099  0.00  0.00    +0.035 C 
ATOM     17  C   UNL     1      88.637  83.649 -45.687  0.00  0.00    +0.003 C 
ATOM     18  C   UNL     1      87.594  82.486 -45.629  0.00  0.00    +0.000 C 
ATOM     19  C   UNL     1      88.184  81.122 -46.139  0.00  0.00    +0.003 C 
ATOM     20  C   UNL     1      88.804  81.288 -47.551  0.00  0.00    +0.035 C 
ENDBRANCH  13  15
BRANCH   7   8
ATOM      8  N   UNL     1      93.243  80.443 -52.078  0.00  0.00    -0.231 N 
ATOM      9  H   UNL     1      92.948  81.005 -52.889  0.00  0.00    +0.239 HD
ATOM     10  H   UNL     1      93.938  79.692 -52.197  0.00  0.00    +0.239 HD
ENDBRANCH   7   8
BRANCH   6   5
ATOM      5  C   UNL     1      93.993  78.844 -49.555  0.00  0.00    +0.405 C 
BRANCH   5   4
ATOM      1  C   UNL     1      94.862  76.693 -45.875  0.00  0.00    +0.040 A 
ATOM      2  C   UNL     1      94.648  75.963 -47.165  0.00  0.00    +0.010 A 
ATOM      3  C   UNL     1      94.371  76.654 -48.327  0.00  0.00    +0.030 A 
ATOM      4  C   UNL     1      94.269  78.186 -48.359  0.00  0.00    +0.056 A 
ATOM     24  C   UNL     1      94.467  78.894 -47.159  0.00  0.00    +0.061 A 
ATOM     25  C   UNL     1      94.774  78.215 -45.833  0.00  0.00    +0.085 A 
BRANCH  25  26
ATOM     26  N   UNL     1      94.944  78.913 -44.753  0.00  0.00    -0.216 N 
ATOM     27  O   UNL     1      95.192  78.396 -43.688  0.00  0.00    -0.488 OA
ATOM     28  O   UNL     1      94.853  80.247 -44.750  0.00  0.00    -0.488 OA
ENDBRANCH  25  26
ENDBRANCH   5   4
BRANCH   5  22
ATOM     22  O   UNL     1      94.599  78.445 -50.681  0.00  0.00    -0.322 OA
ATOM     23  H   UNL     1      94.309  78.988 -51.405  0.00  0.00    +0.227 HD
ENDBRANCH   5  22
ENDBRANCH   6   5
TORSDOF 6
