REMARK  Name = 4kao_ligand
REMARK  9 active torsions:
REMARK  status: ('A' for Active; 'I' for Inactive)
REMARK    1  A    between atoms: N1_1  and  C12_12
REMARK    2  A    between atoms: C2_2  and  N6_6
REMARK    3  A    between atoms: C4_4  and  C8_8
REMARK    4  A    between atoms: C8_8  and  C9_9
REMARK    5  A    between atoms: C8_8  and  C10_10
REMARK    6  A    between atoms: C8_8  and  C11_11
REMARK    7  A    between atoms: C15_15  and  C18_18
REMARK    8  A    between atoms: N20_20  and  C21_21
REMARK    9  A    between atoms: C24_24  and  C27_27
REMARK                            x       y       z     vdW  Elec       q    Type
REMARK                         _______ _______ _______ _____ _____    ______ ____
ROOT
ATOM     17  N   UNL     1       3.811 -10.931  16.682  0.00  0.00    -0.179 N 
ATOM     18  H   UNL     1       4.593 -10.823  17.296  0.00  0.00    +0.234 HD
ATOM     19  C   UNL     1       2.771 -10.031  16.783  0.00  0.00    +0.325 C 
ATOM     20  N   UNL     1       3.044  -8.906  17.510  0.00  0.00    -0.211 N 
ATOM     21  H   UNL     1       3.945  -8.853  17.940  0.00  0.00    +0.228 HD
ATOM     34  O   UNL     1       1.691 -10.250  16.252  0.00  0.00    -0.378 OA
ENDROOT
BRANCH  20  22
ATOM     22  C   UNL     1       2.175  -7.811  17.712  0.00  0.00    +0.071 A 
ATOM     23  C   UNL     1       1.517  -7.247  16.633  0.00  0.00    +0.013 A 
ATOM     24  C   UNL     1       0.635  -6.204  16.824  0.00  0.00    -0.005 A 
ATOM     25  C   UNL     1       0.382  -5.692  18.091  0.00  0.00    -0.025 A 
ATOM     32  C   UNL     1       1.063  -6.259  19.162  0.00  0.00    -0.005 A 
ATOM     33  C   UNL     1       1.947  -7.304  18.981  0.00  0.00    +0.013 A 
BRANCH  25  26
ATOM     26  C   UNL     1      -0.608  -4.611  18.297  0.00  0.00    -0.000 A 
ATOM     27  C   UNL     1      -1.034  -3.791  17.262  0.00  0.00    +0.096 A 
ATOM     28  N   UNL     1      -1.959  -2.835  17.393  0.00  0.00    -0.299 NA
ATOM     29  C   UNL     1      -2.497  -2.665  18.601  0.00  0.00    +0.088 A 
ATOM     30  C   UNL     1      -2.143  -3.414  19.694  0.00  0.00    +0.034 A 
ATOM     31  C   UNL     1      -1.189  -4.394  19.539  0.00  0.00    +0.033 A 
ENDBRANCH  25  26
ENDBRANCH  20  22
BRANCH  17  16
ATOM      1  N   UNL     1       4.626 -13.095  15.883  0.00  0.00    -0.107 N 
ATOM      9  N   UNL     1       4.436 -13.982  14.846  0.00  0.00    -0.167 NA
ATOM     10  C   UNL     1       3.514 -13.405  14.094  0.00  0.00    -0.004 A 
ATOM     15  C   UNL     1       3.113 -12.171  14.626  0.00  0.00    +0.003 A 
ATOM     16  C   UNL     1       3.828 -11.972  15.777  0.00  0.00    +0.219 A 
BRANCH   1   2
ATOM      2  C   UNL     1       5.572 -13.423  16.896  0.00  0.00    +0.123 A 
ATOM      3  C   UNL     1       5.209 -13.389  18.231  0.00  0.00    +0.033 A 
ATOM      4  C   UNL     1       6.120 -13.742  19.206  0.00  0.00    -0.006 A 
ATOM      5  C   UNL     1       7.407 -14.135  18.879  0.00  0.00    -0.049 A 
ATOM      6  C   UNL     1       8.392 -14.535  19.947  0.00  0.00    +0.083 C 
ATOM      7  C   UNL     1       7.758 -14.157  17.540  0.00  0.00    -0.006 A 
ATOM      8  C   UNL     1       6.857 -13.805  16.556  0.00  0.00    +0.033 A 
ENDBRANCH   1   2
BRANCH  10  11
ATOM     11  C   UNL     1       3.022 -14.085  12.829  0.00  0.00    -0.046 C 
ATOM     12  C   UNL     1       3.463 -15.544  12.824  0.00  0.00    -0.047 C 
ATOM     13  C   UNL     1       3.602 -13.380  11.607  0.00  0.00    -0.047 C 
ATOM     14  C   UNL     1       1.499 -14.020  12.770  0.00  0.00    -0.047 C 
ENDBRANCH  10  11
ENDBRANCH  17  16
TORSDOF 5
