REMARK  Name = 5VCZ
REMARK  13 active torsions:
REMARK  status: ('A' for Active; 'I' for Inactive)
REMARK    1  A    between atoms: C_1  and  O_20
REMARK    2  A    between atoms: O_2  and  C_22
REMARK    3  A    between atoms: O_2  and  C_35
REMARK    4  A    between atoms: C_3  and  C_11
REMARK    5  A    between atoms: C_3  and  N_32
REMARK    6  A    between atoms: C_7  and  C_25
REMARK    7  A    between atoms: C_11  and  C_12
REMARK    8  A    between atoms: C_12  and  O_21
REMARK    9  A    between atoms: C_13  and  N_34
REMARK   10  A    between atoms: N_19  and  C_26
REMARK   11  A    between atoms: N_19  and  C_29
REMARK   12  A    between atoms: O_20  and  C_27
REMARK   13  A    between atoms: O_21  and  C_28
REMARK                            x       y       z     vdW  Elec       q    Type
REMARK                         _______ _______ _______ _____ _____    ______ ____
ROOT
ATOM      3  C   UNL     1       9.397  -3.449  -1.696  0.00  0.00    +0.162 A 
ATOM      4  C   UNL     1      10.411  -2.532  -1.584  0.00  0.00    +0.164 A 
ATOM     16  C   UNL     1      10.179  -1.152  -1.583  0.00  0.00    +0.077 A 
ATOM     17  C   UNL     1       8.856  -0.702  -1.655  0.00  0.00    +0.073 A 
ATOM     18  C   UNL     1       7.782  -1.632  -1.769  0.00  0.00    +0.009 A 
ATOM     19  C   UNL     1       6.458  -1.154  -1.825  0.00  0.00    +0.112 C 
ATOM     20  C   UNL     1       6.275   0.242  -1.733  0.00  0.00    +0.145 C 
ATOM     21  C   UNL     1       7.365   1.108  -1.669  0.00  0.00    +0.110 C 
ATOM     36  N   UNL     1       8.611   0.636  -1.640  0.00  0.00    -0.258 NA
ATOM     37  C   UNL     1       8.083  -3.022  -1.774  0.00  0.00    +0.057 A 
ENDROOT
BRANCH   3   2
ATOM      1  C   UNL     1       8.730  -5.728  -1.458  0.00  0.00    +0.277 C 
ATOM      2  O   UNL     1       9.767  -4.757  -1.652  0.00  0.00    -0.491 OA
ENDBRANCH   3   2
BRANCH  20  22
ATOM     22  C   UNL     1       5.087   0.769  -1.625  0.00  0.00    +0.080 C 
ATOM     23  N   UNL     1       4.019   1.164  -1.523  0.00  0.00    -0.196 NA
ENDBRANCH  20  22
BRANCH  19  24
ATOM     24  N   UNL     1       5.374  -2.001  -1.998  0.00  0.00    -0.330 N 
ATOM     25  H   UNL     1       5.570  -2.898  -1.976  0.00  0.00    +0.147 HD
BRANCH  24  26
ATOM     26  C   UNL     1       4.252  -1.651  -2.759  0.00  0.00    +0.031 A 
ATOM     27  C   UNL     1       2.980  -2.030  -2.325  0.00  0.00    +0.046 A 
ATOM     28  C   UNL     1       1.819  -1.622  -2.969  0.00  0.00    +0.086 A 
ATOM     29  C   UNL     1       1.891  -0.817  -4.088  0.00  0.00    +0.157 A 
ATOM     30  C   UNL     1       3.133  -0.412  -4.557  0.00  0.00    +0.086 A 
ATOM     31 CL   UNL     1       3.270   0.541  -5.962  0.00  0.00    -0.080 Cl
ATOM     34 CL   UNL     1       0.308  -2.149  -2.408  0.00  0.00    -0.080 Cl
ATOM     35  C   UNL     1       4.289  -0.827  -3.908  0.00  0.00    +0.046 A 
BRANCH  29  32
ATOM     32  O   UNL     1       0.766  -0.432  -4.738  0.00  0.00    -0.492 OA
ATOM     33  C   UNL     1       0.249   0.836  -4.242  0.00  0.00    +0.277 C 
ENDBRANCH  29  32
ENDBRANCH  24  26
ENDBRANCH  19  24
BRANCH   4   5
ATOM      5  O   UNL     1      11.637  -3.063  -1.466  0.00  0.00    -0.488 OA
BRANCH   5   6
ATOM      6  C   UNL     1      12.759  -2.183  -1.434  0.00  0.00    +0.230 C 
BRANCH   6   7
ATOM      7  C   UNL     1      13.981  -3.059  -1.097  0.00  0.00    +0.056 C 
BRANCH   7   8
ATOM      8  C   UNL     1      14.140  -4.210  -2.103  0.00  0.00    +0.088 C 
BRANCH   8   9
ATOM      9  N   UNL     1      15.321  -5.116  -1.879  0.00  0.00    -0.300 NA
ATOM     10  C   UNL     1      15.090  -6.265  -2.787  0.00  0.00    +0.100 C 
ATOM     11  C   UNL     1      16.382  -7.053  -2.902  0.00  0.00    +0.099 C 
ATOM     12  N   UNL     1      16.585  -7.674  -1.595  0.00  0.00    -0.303 NA
ATOM     13  C   UNL     1      16.822  -6.594  -0.599  0.00  0.00    +0.099 C 
ATOM     14  C   UNL     1      17.688  -8.677  -1.658  0.00  0.00    +0.105 C 
ATOM     15  C   UNL     1      15.561  -5.696  -0.528  0.00  0.00    +0.100 C 
ENDBRANCH   8   9
ENDBRANCH   7   8
ENDBRANCH   6   7
ENDBRANCH   5   6
ENDBRANCH   4   5
TORSDOF 10
