REMARK  Name = 3NUX
REMARK  6 active torsions:
REMARK  status: ('A' for Active; 'I' for Inactive)
REMARK    1  A    between atoms: N_2  and  C_12
REMARK    2  A    between atoms: N_9  and  C_18
REMARK    3  A    between atoms: C_19  and  C_25
REMARK    4  A    between atoms: C_21  and  C_22
REMARK    5  A    between atoms: C_22  and  C_23
REMARK    6  A    between atoms: C_22  and  C_24
REMARK                            x       y       z     vdW  Elec       q    Type
REMARK                         _______ _______ _______ _____ _____    ______ ____
ROOT
ATOM     12  N   UNL     1      16.683  26.926  10.304  0.00  0.00    -0.193 NA
ATOM     13  C   UNL     1      17.000  26.291   9.136  0.00  0.00    +0.230 A 
ATOM     14  N   UNL     1      16.165  26.386   8.077  0.00  0.00    -0.212 NA
ATOM     15  C   UNL     1      16.486  25.754   6.902  0.00  0.00    +0.081 A 
ATOM     16  C   UNL     1      17.713  25.043   6.821  0.00  0.00    +0.046 A 
ATOM     17  C   UNL     1      18.504  25.023   7.987  0.00  0.00    +0.088 A 
ATOM     28  N   UNL     1      18.160  25.660   9.131  0.00  0.00    -0.331 N 
ATOM     29  H   UNL     1      18.798  25.653   9.990  0.00  0.00    +0.168 HD
ENDROOT
BRANCH  15  18
ATOM     18  C   UNL     1      15.497  25.879   5.762  0.00  0.00    +0.060 A 
ATOM     19  C   UNL     1      14.478  26.896   5.524  0.00  0.00    +0.076 A 
ATOM     23  N   UNL     1      13.801  26.669   4.398  0.00  0.00    -0.177 NA
ATOM     24  N   UNL     1      14.334  25.560   3.880  0.00  0.00    -0.266 N 
ATOM     25  H   UNL     1      14.010  25.108   2.966  0.00  0.00    +0.190 HD
ATOM     26  C   UNL     1      15.338  25.077   4.657  0.00  0.00    +0.134 A 
ATOM     27 CL   UNL     1      16.140  23.648   4.173  0.00  0.00    -0.062 Cl
BRANCH  19  20
ATOM     20  C   UNL     1      14.055  28.116   6.334  0.00  0.00    +0.034 C 
ATOM     21  C   UNL     1      12.526  28.240   6.339  0.00  0.00    +0.014 C 
ATOM     22  C   UNL     1      14.708  29.395   5.784  0.00  0.00    +0.014 C 
ENDBRANCH  19  20
ENDBRANCH  15  18
BRANCH  12  11
ATOM      8  C   UNL     1      13.393  29.050  11.787  0.00  0.00    +0.048 A 
ATOM      9  C   UNL     1      14.001  29.476  10.558  0.00  0.00    +0.028 A 
ATOM     10  C   UNL     1      15.116  28.776  10.013  0.00  0.00    +0.050 A 
ATOM     11  C   UNL     1      15.646  27.660  10.719  0.00  0.00    +0.156 A 
ATOM     30  N   UNL     1      15.097  27.241  11.892  0.00  0.00    -0.234 NA
ATOM     31  C   UNL     1      14.023  27.917  12.417  0.00  0.00    +0.136 A 
BRANCH   8   7
ATOM      1  C   UNL     1      11.635  30.892  11.722  0.00  0.00    +0.120 C 
ATOM      2  C   UNL     1      11.367  32.048  12.748  0.00  0.00    +0.100 C 
ATOM      3  N   UNL     1      10.507  31.558  13.841  0.00  0.00    -0.313 NA
ATOM      4  H   UNL     1       9.598  31.164  13.437  0.00  0.00    +0.122 HD
ATOM      5  C   UNL     1      11.239  30.488  14.567  0.00  0.00    +0.100 C 
ATOM      6  C   UNL     1      11.638  29.301  13.623  0.00  0.00    +0.120 C 
ATOM      7  N   UNL     1      12.304  29.707  12.344  0.00  0.00    -0.326 N 
ENDBRANCH   8   7
ENDBRANCH  12  11
TORSDOF 4
