REMARK  Name = 2chx_ligand
REMARK  5 active torsions:
REMARK  status: ('A' for Active; 'I' for Inactive)
REMARK    1  A    between atoms: CAO_2  and  CAP_3
REMARK    2  A    between atoms: CAJ_13  and  OAT_14
REMARK    3  A    between atoms: OAT_14  and  CAZ_15
REMARK    4  A    between atoms: CAI_24  and  OAS_25
REMARK    5  A    between atoms: OAS_25  and  CAY_26
REMARK                            x       y       z     vdW  Elec       q    Type
REMARK                         _______ _______ _______ _____ _____    ______ ____
ROOT
ATOM      1  O   UNL     1      43.937  13.173  32.712  0.00  0.00    -0.364 OA
ATOM      2  C   UNL     1      43.419  12.319  32.005  0.00  0.00    +0.256 C 
ATOM      3  N   UNL     1      44.103  11.677  31.061  0.00  0.00    -0.169 N 
ATOM      4  H   UNL     1      43.654  10.933  30.566  0.00  0.00    +0.246 HD
ATOM      5  C   UNL     1      45.376  11.988  30.745  0.00  0.00    +0.290 A 
ATOM      6  N   UNL     1      46.038  11.231  29.770  0.00  0.00    -0.156 N 
ATOM      7  C   UNL     1      45.495  10.125  28.996  0.00  0.00    +0.143 A 
ATOM      8  C   UNL     1      46.715   9.769  28.148  0.00  0.00    +0.022 A 
ATOM      9  N   UNL     1      47.787  10.669  28.523  0.00  0.00    -0.334 NA
ATOM     10  C   UNL     1      47.361  11.498  29.470  0.00  0.00    +0.148 A 
ATOM     11  C   UNL     1      48.057  12.526  30.119  0.00  0.00    +0.019 A 
ATOM     12  C   UNL     1      49.398  12.830  29.820  0.00  0.00    -0.022 A 
ATOM     13  C   UNL     1      50.047  13.857  30.507  0.00  0.00    +0.002 A 
ATOM     14  C   UNL     1      49.357  14.606  31.492  0.00  0.00    +0.115 A 
ATOM     17  C   UNL     1      48.025  14.285  31.791  0.00  0.00    +0.128 A 
ATOM     20  C   UNL     1      47.374  13.262  31.104  0.00  0.00    +0.038 A 
ATOM     21  N   UNL     1      46.067  12.978  31.393  0.00  0.00    -0.282 NA
ENDROOT
BRANCH   2  22
ATOM     22  C   UNL     1      42.044  11.803  32.337  0.00  0.00    +0.087 A 
ATOM     23  C   UNL     1      41.389  12.225  33.504  0.00  0.00    +0.057 A 
ATOM     24  C   UNL     1      40.149  11.706  33.832  0.00  0.00    +0.044 A 
ATOM     25  C   UNL     1      39.597  10.758  32.985  0.00  0.00    +0.101 A 
ATOM     26  N   UNL     1      40.245  10.336  31.880  0.00  0.00    -0.290 NA
ATOM     27  C   UNL     1      41.453  10.822  31.543  0.00  0.00    +0.120 A 
ENDBRANCH   2  22
BRANCH  14  15
ATOM     15  O   UNL     1      49.988  15.638  32.165  0.00  0.00    -0.326 OA
ATOM     16  C   UNL     1      51.332  16.009  31.824  0.00  0.00    +0.229 C 
ENDBRANCH  14  15
BRANCH  17  18
ATOM     18  O   UNL     1      47.332  15.018  32.709  0.00  0.00    -0.329 OA
ATOM     19  C   UNL     1      46.553  16.121  32.210  0.00  0.00    +0.226 C 
ENDBRANCH  17  18
TORSDOF 3
