REMARK  Name = F4N
REMARK  5 active torsions:
REMARK  status: ('A' for Active; 'I' for Inactive)
REMARK    1  A    between atoms: C4_6  and  N8_9
REMARK    2  A    between atoms: C6_8  and  S9_12
REMARK    3  A    between atoms: S9_12  and  N12_14
REMARK    4  A    between atoms: N12_14  and  N14_16
REMARK    5  A    between atoms: C15_17  and  C17_18
REMARK                            x       y       z     vdW  Elec       q    Type
REMARK                         _______ _______ _______ _____ _____    ______ ____
ROOT
ATOM     14  N   UNL     1      11.538   2.068 -49.438  0.00  0.00    -0.109 N 
ATOM     27  C   UNL     1      10.576   2.066 -50.596  0.00  0.00    +0.163 C 
ENDROOT
BRANCH  14   2
ATOM      1  O   UNL     1       9.430   2.289 -47.738  0.00  0.00    -0.148 OA
ATOM      2  S   UNL     1      10.917   1.965 -47.819  0.00  0.00    +0.090 S 
ATOM      3  O   UNL     1      11.667   2.991 -46.967  0.00  0.00    -0.148 OA
BRANCH   2   4
ATOM      4  C   UNL     1      11.188   0.364 -47.165  0.00  0.00    +0.125 A 
ATOM      5  C   UNL     1      11.909   0.294 -45.972  0.00  0.00    +0.044 A 
ATOM      6  C   UNL     1      12.195  -0.918 -45.346  0.00  0.00    +0.144 A 
ATOM     10  C   UNL     1      11.714  -2.084 -45.940  0.00  0.00    +0.024 A 
ATOM     11  C   UNL     1      10.992  -2.023 -47.136  0.00  0.00    -0.001 A 
ATOM     12  C   UNL     1      10.712  -0.806 -47.756  0.00  0.00    -0.003 A 
ATOM     13  C   UNL     1       9.987  -0.798 -48.942  0.00  0.00    +0.032 C 
BRANCH   6   7
ATOM      7  N   UNL     1      12.899  -0.938 -44.194  0.00  0.00    +0.058 N 
ATOM      8  O   UNL     1      13.181  -2.156 -43.547  0.00  0.00    -0.126 OA
ATOM      9  O   UNL     1      13.358   0.322 -43.609  0.00  0.00    -0.126 OA
ENDBRANCH   6   7
ENDBRANCH   2   4
ENDBRANCH  14   2
BRANCH  14  15
ATOM     15  N   UNL     1      12.662   1.454 -49.492  0.00  0.00    -0.159 NA
ATOM     16  C   UNL     1      13.460   1.677 -50.552  0.00  0.00    +0.138 C 
BRANCH  16  17
ATOM     17  C   UNL     1      14.648   1.049 -50.630  0.00  0.00    +0.105 A 
ATOM     18  N   UNL     1      15.277   0.193 -49.800  0.00  0.00    -0.287 N 
ATOM     19  C   UNL     1      15.025  -0.109 -48.457  0.00  0.00    +0.088 A 
ATOM     20  C   UNL     1      15.918  -0.955 -47.805  0.00  0.00    +0.052 A 
ATOM     21 BR   UNL     1      15.642  -1.470 -45.993  0.00  0.00    -0.047 Br
ATOM     22  C   UNL     1      17.025  -1.424 -48.506  0.00  0.00    +0.011 A 
ATOM     23  C   UNL     1      17.226  -1.044 -49.829  0.00  0.00    +0.038 A 
ATOM     24  C   UNL     1      16.365  -0.238 -50.449  0.00  0.00    +0.148 A 
ATOM     25  N   UNL     1      16.348   0.250 -51.689  0.00  0.00    -0.225 NA
ATOM     26  C   UNL     1      15.269   1.016 -51.807  0.00  0.00    +0.120 A 
ENDBRANCH  16  17
ENDBRANCH  14  15
TORSDOF 5
