REMARK  Name = 2WMS
REMARK  7 active torsions:
REMARK  status: ('A' for Active; 'I' for Inactive)
REMARK    1  A    between atoms: C_1  and  C_2
REMARK    2  A    between atoms: C_2  and  C_3
REMARK    3  A    between atoms: C_2  and  C_4
REMARK    4  A    between atoms: C_2  and  N_5
REMARK    5  A    between atoms: C_9  and  N_10
REMARK    6  A    between atoms: C_11  and  C_12
REMARK    7  A    between atoms: C_12  and  C_14
REMARK                            x       y       z     vdW  Elec       q    Type
REMARK                         _______ _______ _______ _____ _____    ______ ____
ROOT
ATOM      3  N   UNL     1      15.391  -0.862   6.372  0.00  0.00    -0.255 NA
ATOM      4  C   UNL     1      14.128  -1.101   6.699  0.00  0.00    +0.169 A 
ATOM      5  N   UNL     1      13.073  -0.374   6.314  0.00  0.00    -0.322 N 
ATOM      6  H   UNL     1      13.151   0.490   5.688  0.00  0.00    +0.169 HD
ATOM      7  C   UNL     1      11.903  -0.838   6.792  0.00  0.00    +0.113 A 
ATOM      8  C   UNL     1      12.014  -1.990   7.563  0.00  0.00    +0.100 A 
ATOM     20  S   UNL     1      13.626  -2.386   7.641  0.00  0.00    -0.045 S 
ENDROOT
BRANCH   3   2
ATOM      1  C   UNL     1      16.471  -3.018   6.034  0.00  0.00    +0.036 C 
ATOM      2  C   UNL     1      16.459  -1.740   6.865  0.00  0.00    +0.056 C 
ATOM     21  C   UNL     1      16.179  -2.056   8.330  0.00  0.00    +0.036 C 
ATOM     22  C   UNL     1      17.789  -1.008   6.729  0.00  0.00    +0.036 C 
ENDBRANCH   3   2
BRANCH   7  17
ATOM     17  N   UNL     1      10.738  -0.256   6.538  0.00  0.00    -0.344 N 
ATOM     18  H   UNL     1       9.836  -0.665   6.943  0.00  0.00    +0.144 HD
ATOM     19  H   UNL     1      10.701   0.623   5.929  0.00  0.00    +0.144 HD
ENDBRANCH   7  17
BRANCH   8   9
ATOM      9  C   UNL     1      10.876  -2.734   8.253  0.00  0.00    +0.203 C 
ATOM     16  O   UNL     1       9.718  -2.347   8.124  0.00  0.00    -0.286 OA
BRANCH   9  10
ATOM     10  C   UNL     1      11.199  -3.962   9.108  0.00  0.00    +0.023 A 
ATOM     11  C   UNL     1      10.192  -4.608   9.811  0.00  0.00    +0.012 A 
ATOM     12  C   UNL     1      10.485  -5.722  10.586  0.00  0.00    +0.001 A 
ATOM     13  C   UNL     1      11.781  -6.211  10.637  0.00  0.00    +0.000 A 
ATOM     14  C   UNL     1      12.787  -5.578   9.920  0.00  0.00    +0.001 A 
ATOM     15  C   UNL     1      12.496  -4.457   9.153  0.00  0.00    +0.012 A 
ENDBRANCH   9  10
ENDBRANCH   8   9
TORSDOF 4
