REMARK  Name = FZE
REMARK  4 active torsions:
REMARK  status: ('A' for Active; 'I' for Inactive)
REMARK    1  A    between atoms: C21_2  and  N19_15
REMARK    2  A    between atoms: C11_10  and  C14_12
REMARK    3  A    between atoms: C38_20  and  C40_21
REMARK    4  A    between atoms: C43_22  and  C46_23
REMARK                            x       y       z     vdW  Elec       q    Type
REMARK                         _______ _______ _______ _____ _____    ______ ____
ROOT
ATOM      1  C   UNL     1      25.238   5.995   6.014  0.00  0.00    +0.232 C 
ATOM      2  C   UNL     1      24.471   6.765   6.875  0.00  0.00    +0.035 C 
ATOM     10  C   UNL     1      23.589   7.687   6.282  0.00  0.00    +0.093 C 
ATOM     11  C   UNL     1      22.705   8.573   6.989  0.00  0.00    -0.016 C 
ATOM     12  C   UNL     1      21.879   9.441   6.357  0.00  0.00    +0.030 C 
ATOM     13  C   UNL     1      20.965  10.368   7.106  0.00  0.00    +0.035 C 
ATOM     14  C   UNL     1      21.868   9.485   4.900  0.00  0.00    +0.265 C 
ATOM     15  N   UNL     1      22.701   8.642   4.262  0.00  0.00    -0.172 NA
ATOM     16  O   UNL     1      21.162  10.238   4.229  0.00  0.00    -0.268 OA
ATOM     17  C   UNL     1      23.563   7.746   4.876  0.00  0.00    +0.145 C 
ATOM     18  C   UNL     1      24.371   6.919   4.067  0.00  0.00    +0.373 C 
ATOM     19  N   UNL     1      24.361   6.952   2.719  0.00  0.00    -0.034 NA
ATOM     38  N   UNL     1      25.207   6.058   4.672  0.00  0.00    -0.032 NA
ENDROOT
BRANCH  19  20
ATOM     20  C   UNL     1      25.070   6.048   1.835  0.00  0.00    +0.212 C 
ATOM     21  C   UNL     1      24.164   4.829   1.519  0.00  0.00    +0.085 C 
ATOM     32  C   UNL     1      24.501   4.105   0.202  0.00  0.00    +0.081 C 
ATOM     33  C   UNL     1      25.933   3.557   0.173  0.00  0.00    +0.019 C 
ATOM     34  C   UNL     1      26.746   4.732  -0.369  0.00  0.00    +0.019 C 
ATOM     35  C   UNL     1      25.734   5.840  -0.634  0.00  0.00    +0.077 C 
ATOM     36  N   UNL     1      24.523   5.068  -0.914  0.00  0.00    -0.220 NA
ATOM     37  C   UNL     1      25.533   6.760   0.564  0.00  0.00    +0.069 C 
BRANCH  21  22
ATOM     22  C   UNL     1      24.089   3.810   2.661  0.00  0.00    -0.025 C 
ATOM     23  C   UNL     1      22.737   3.667   3.359  0.00  0.00    -0.031 C 
BRANCH  23  24
ATOM     24  C   UNL     1      22.687   2.633   4.488  0.00  0.00    +0.022 C 
ATOM     25  C   UNL     1      23.899   2.753   5.405  0.00  0.00    +0.010 C 
ATOM     26  C   UNL     1      23.876   1.728   6.533  0.00  0.00    +0.067 C 
ATOM     27  C   UNL     1      22.581   1.740   7.285  0.00  0.00    +0.264 C 
ATOM     28  F   UNL     1      22.558   0.691   8.168  0.00  0.00    -0.204 F 
ATOM     29  F   UNL     1      22.527   2.856   8.082  0.00  0.00    -0.204 F 
ATOM     30  C   UNL     1      21.362   1.688   6.416  0.00  0.00    +0.067 C 
ATOM     31  C   UNL     1      21.418   2.752   5.319  0.00  0.00    +0.010 C 
ENDBRANCH  23  24
ENDBRANCH  21  22
ENDBRANCH  19  20
BRANCH   2   3
ATOM      3  C   UNL     1      24.590   6.579   8.353  0.00  0.00    +0.019 A 
ATOM      4  C   UNL     1      24.765   7.640   9.232  0.00  0.00    +0.099 A 
ATOM      5  N   UNL     1      24.874   7.499  10.558  0.00  0.00    -0.243 NA
ATOM      6  C   UNL     1      24.816   6.260  11.058  0.00  0.00    +0.095 A 
ATOM      7  C   UNL     1      24.648   5.125  10.287  0.00  0.00    -0.003 A 
ATOM      8  C   UNL     1      24.596   3.752  10.906  0.00  0.00    +0.033 C 
ATOM      9  C   UNL     1      24.533   5.307   8.917  0.00  0.00    -0.001 A 
ENDBRANCH   2   3
TORSDOF 4
