REMARK  Name = 8O8
REMARK  4 active torsions:
REMARK  status: ('A' for Active; 'I' for Inactive)
REMARK    1  A    between atoms: C1_1  and  C2_2
REMARK    2  A    between atoms: C1_1  and  N_22
REMARK    3  A    between atoms: C11_9  and  C12_10
REMARK    4  A    between atoms: C17_14  and  C18_15
REMARK                            x       y       z     vdW  Elec       q    Type
REMARK                         _______ _______ _______ _____ _____    ______ ____
ROOT
ATOM      2  N   UNL     1     -90.348  83.765  -0.475  0.00  0.00    -0.270 N 
ATOM      3  C   UNL     1     -90.198  82.624   0.219  0.00  0.00    +0.249 C 
ATOM     15  O   UNL     1     -90.887  81.643   0.011  0.00  0.00    -0.270 OA
ATOM     16  C   UNL     1     -89.466  84.925  -0.395  0.00  0.00    +0.116 C 
ENDROOT
BRANCH   3   4
ATOM      4  C   UNL     1     -89.128  82.548   1.278  0.00  0.00    +0.050 A 
ATOM      5  C   UNL     1     -89.265  83.335   2.424  0.00  0.00    +0.004 A 
ATOM      6  C   UNL     1     -88.353  83.223   3.460  0.00  0.00    +0.000 A 
ATOM      7  C   UNL     1     -87.306  82.337   3.367  0.00  0.00    -0.000 A 
ATOM      8  C   UNL     1     -87.155  81.555   2.236  0.00  0.00    -0.004 A 
ATOM      9  C   UNL     1     -88.058  81.648   1.180  0.00  0.00    -0.017 A 
BRANCH   9  10
ATOM     10  C   UNL     1     -87.904  80.779  -0.056  0.00  0.00    +0.041 C 
ATOM     11  C   UNL     1     -86.934  79.590   0.250  0.00  0.00    +0.093 C 
ATOM     12  N   UNL     1     -85.857  79.592  -0.751  0.00  0.00    -0.218 NA
ATOM     13  C   UNL     1     -86.286  80.436  -1.880  0.00  0.00    +0.089 C 
ATOM     14  C   UNL     1     -87.249  81.483  -1.267  0.00  0.00    +0.025 C 
ENDBRANCH   9  10
ENDBRANCH   3   4
BRANCH   2   1
ATOM      1  C   UNL     1     -91.566  83.931  -1.282  0.00  0.00    +0.121 C 
BRANCH   1  17
ATOM     17  C   UNL     1     -91.425  83.695  -2.770  0.00  0.00    -0.002 A 
ATOM     18  C   UNL     1     -90.220  83.376  -3.348  0.00  0.00    -0.003 A 
ATOM     19  C   UNL     1     -90.086  83.217  -4.719  0.00  0.00    -0.000 A 
ATOM     20  C   UNL     1     -91.164  83.364  -5.543  0.00  0.00    +0.002 A 
ATOM     21  C   UNL     1     -92.436  83.679  -5.006  0.00  0.00    +0.019 A 
ATOM     22  C   UNL     1     -93.604  83.817  -5.794  0.00  0.00    +0.099 A 
ATOM     23  N   UNL     1     -94.804  84.097  -5.303  0.00  0.00    -0.242 NA
ATOM     24  C   UNL     1     -94.906  84.262  -3.974  0.00  0.00    +0.099 A 
ATOM     25  C   UNL     1     -93.861  84.151  -3.104  0.00  0.00    +0.020 A 
ATOM     26  C   UNL     1     -92.571  83.848  -3.604  0.00  0.00    +0.001 A 
ENDBRANCH   1  17
ENDBRANCH   2   1
TORSDOF 4
