REMARK  Name = 4FHJ
REMARK  3 active torsions:
REMARK  status: ('A' for Active; 'I' for Inactive)
REMARK    1  A    between atoms: N_6  and  C_7
REMARK    2  A    between atoms: C_15  and  C_16
REMARK    3  A    between atoms: C_19  and  C_20
REMARK                            x       y       z     vdW  Elec       q    Type
REMARK                         _______ _______ _______ _____ _____    ______ ____
ROOT
ATOM      4  C   UNL     1      22.767  14.183  21.353  0.00  0.00    +0.297 C 
ATOM      5  C   UNL     1      21.424  14.456  21.579  0.00  0.00    +0.162 C 
ATOM     17  N   UNL     1      21.067  15.500  20.733  0.00  0.00    -0.294 N 
ATOM     18  C   UNL     1      19.873  16.208  20.493  0.00  0.00    +0.089 C 
ATOM     19  C   UNL     1      19.862  17.239  19.551  0.00  0.00    -0.005 C 
ATOM     20  C   UNL     1      21.026  17.563  18.849  0.00  0.00    +0.059 C 
ATOM     21  C   UNL     1      22.210  16.862  19.084  0.00  0.00    +0.024 C 
ATOM     22  C   UNL     1      22.242  15.829  20.024  0.00  0.00    +0.139 C 
ATOM     23  N   UNL     1      23.231  15.022  20.424  0.00  0.00    -0.186 NA
ENDROOT
BRANCH   5   6
ATOM      6  C   UNL     1      20.597  13.779  22.475  0.00  0.00    +0.166 A 
ATOM      7  N   UNL     1      21.114  12.772  23.197  0.00  0.00    -0.215 NA
ATOM      8  C   UNL     1      20.345  12.092  24.054  0.00  0.00    +0.109 A 
ATOM      9  N   UNL     1      19.050  12.411  24.209  0.00  0.00    -0.315 N 
ATOM     10  H   UNL     1      18.438  11.867  24.898  0.00  0.00    +0.170 HD
ATOM     11  C   UNL     1      18.531  13.419  23.492  0.00  0.00    +0.201 A 
ATOM     12  N   UNL     1      17.251  13.739  23.640  0.00  0.00    -0.268 NA
ATOM     13  H   UNL     1      16.640  13.196  24.330  0.00  0.00    +0.190 HD
ATOM     14  C   UNL     1      20.969  10.959  24.850  0.00  0.00    +0.086 C 
ATOM     15  N   UNL     1      19.299  14.103  22.623  0.00  0.00    -0.309 N 
ATOM     16  H   UNL     1      18.878  14.903  22.051  0.00  0.00    +0.170 HD
ENDBRANCH   5   6
BRANCH   4   3
ATOM      1  N   UNL     1      25.492  13.416  20.726  0.00  0.00    +0.085 NA
ATOM      2  C   UNL     1      24.725  12.878  21.673  0.00  0.00    +0.396 C 
ATOM      3  N   UNL     1      23.471  13.231  21.986  0.00  0.00    -0.011 NA
ATOM     24  C   UNL     1      25.406  11.920  22.284  0.00  0.00    +0.131 C 
ATOM     25  C   UNL     1      26.592  11.901  21.679  0.00  0.00    +0.170 C 
ATOM     26  N   UNL     1      26.587  12.843  20.734  0.00  0.00    -0.043 NA
ENDBRANCH   4   3
TORSDOF 2
