REMARK  Name = 2xp7_ligand
REMARK  3 active torsions:
REMARK  status: ('A' for Active; 'I' for Inactive)
REMARK    1  A    between atoms: C5C_2  and  C6_17
REMARK    2  A    between atoms: C6C_3  and  C7C_4
REMARK    3  A    between atoms: C1D_7  and  C7D_13
REMARK                            x       y       z     vdW  Elec       q    Type
REMARK                         _______ _______ _______ _____ _____    ______ ____
ROOT
ATOM      1  N   UNL     1     -40.752  18.464  16.060  0.00  0.00    -0.246 N 
ATOM      2  H   UNL     1     -40.292  18.649  16.963  0.00  0.00    +0.241 HD
ATOM      3  C   UNL     1     -40.229  17.762  15.018  0.00  0.00    +0.143 A 
ATOM      4  N   UNL     1     -41.144  17.706  14.010  0.00  0.00    -0.302 NA
ATOM      5  C   UNL     1     -42.219  18.406  14.384  0.00  0.00    +0.070 A 
ATOM     15  CA  UNL     1     -41.974  18.869  15.694  0.00  0.00    +0.126 A 
ENDROOT
BRANCH   3   9
ATOM      9  C   UNL     1     -38.999  17.096  14.963  0.00  0.00    +0.029 A 
ATOM     10  C   UNL     1     -38.342  16.925  13.760  0.00  0.00    +0.017 A 
ATOM     11  C   UNL     1     -37.136  16.212  13.711  0.00  0.00    +0.003 A 
ATOM     12  C   UNL     1     -36.574  15.642  14.853  0.00  0.00    +0.003 A 
ATOM     13  C   UNL     1     -37.250  15.798  16.070  0.00  0.00    +0.003 A 
ATOM     14  C   UNL     1     -38.457  16.502  16.114  0.00  0.00    +0.017 A 
ENDBRANCH   3   9
BRANCH   5   6
ATOM      6  C   UNL     1     -43.481  18.587  13.493  0.00  0.00    +0.059 C 
ATOM      7  O   UNL     1     -43.412  18.558  12.256  0.00  0.00    -0.566 OA
ATOM      8  O   UNL     1     -44.595  18.654  14.012  0.00  0.00    -0.566 OA
ENDBRANCH   5   6
BRANCH  15  16
ATOM     16  C   UNL     1     -42.913  19.729  16.569  0.00  0.00    +0.090 C 
ATOM     17  OXT UNL     1     -42.739  19.828  17.796  0.00  0.00    -0.559 OA
ATOM     18  O   UNL     1     -43.841  20.357  16.042  0.00  0.00    -0.559 OA
ENDBRANCH  15  16
TORSDOF 3
