REMARK  Name = 4gj3_ligand
REMARK  4 active torsions:
REMARK  status: ('A' for Active; 'I' for Inactive)
REMARK    1  A    between atoms: C6_6  and  N7_7
REMARK    2  A    between atoms: C8_8  and  C10_10
REMARK    3  A    between atoms: C13_13  and  C17_17
REMARK    4  A    between atoms: C21_21  and  C23_23
REMARK                            x       y       z     vdW  Elec       q    Type
REMARK                         _______ _______ _______ _____ _____    ______ ____
ROOT
ATOM      1  C   UNL     1      -9.350  -9.714 -15.227  0.00  0.00    +0.018 A 
ATOM      2  C   UNL     1      -8.588  -9.247 -16.317  0.00  0.00    +0.071 A 
ATOM     17  C   UNL     1      -8.707  -9.928 -17.534  0.00  0.00    +0.049 A 
ATOM     18  C   UNL     1      -9.506 -11.069 -17.623  0.00  0.00    +0.120 A 
ATOM     19  N   UNL     1      -9.666 -11.761 -18.831  0.00  0.00    -0.222 N 
ATOM     20  H   UNL     1     -10.585 -12.108 -19.022  0.00  0.00    +0.230 HD
ATOM     21  C   UNL     1      -8.723 -12.017 -19.773  0.00  0.00    +0.213 C 
ATOM     26  O   UNL     1      -7.563 -11.659 -19.664  0.00  0.00    -0.383 OA
ATOM     27  N   UNL     1     -10.219 -11.461 -16.565  0.00  0.00    -0.306 NA
ATOM     28  C   UNL     1     -10.159 -10.830 -15.397  0.00  0.00    +0.050 A 
ENDROOT
BRANCH   2   3
ATOM      3  N   UNL     1      -7.779  -8.099 -16.317  0.00  0.00    -0.227 N 
ATOM      4  H   UNL     1      -7.299  -7.925 -17.177  0.00  0.00    +0.230 HD
ATOM      5  C   UNL     1      -7.543  -7.189 -15.340  0.00  0.00    +0.242 C 
ATOM     16  O   UNL     1      -8.003  -7.271 -14.215  0.00  0.00    -0.368 OA
BRANCH   5   6
ATOM      6  C   UNL     1      -6.673  -6.045 -15.691  0.00  0.00    +0.092 A 
ATOM      7  C   UNL     1      -5.313  -6.252 -16.009  0.00  0.00    +0.072 A 
ATOM      8 CL   UNL     1      -4.606  -7.838 -15.956  0.00  0.00    -0.063 Cl
ATOM      9  C   UNL     1      -4.514  -5.179 -16.365  0.00  0.00    +0.065 A 
ATOM     10  C   UNL     1      -5.060  -3.890 -16.435  0.00  0.00    +0.100 A 
ATOM     13  C   UNL     1      -6.413  -3.681 -16.136  0.00  0.00    +0.065 A 
ATOM     14  C   UNL     1      -7.225  -4.748 -15.786  0.00  0.00    +0.072 A 
ATOM     15 CL   UNL     1      -8.906  -4.444 -15.450  0.00  0.00    -0.063 Cl
BRANCH  10  11
ATOM     11  C   UNL     1      -4.231  -2.784 -16.804  0.00  0.00    +0.104 C 
ATOM     12  N   UNL     1      -3.570  -1.908 -17.095  0.00  0.00    -0.326 NA
ENDBRANCH  10  11
ENDBRANCH   5   6
ENDBRANCH   2   3
BRANCH  21  22
ATOM     22  C   UNL     1      -9.176 -12.779 -20.995  0.00  0.00    +0.146 C 
ATOM     23  C   UNL     1      -8.367 -14.002 -21.413  0.00  0.00    +0.192 C 
ATOM     24  F   UNL     1      -7.253 -14.311 -20.629  0.00  0.00    -0.242 F 
ATOM     25  C   UNL     1      -8.326 -12.731 -22.267  0.00  0.00    +0.068 C 
ENDBRANCH  21  22
TORSDOF 4
