REMARK  Name = EX4
REMARK  7 active torsions:
REMARK  status: ('A' for Active; 'I' for Inactive)
REMARK    1  A    between atoms: C6_2  and  C14_31
REMARK    2  A    between atoms: C5_5  and  C4_6
REMARK    3  A    between atoms: C21_20  and  N_21
REMARK    4  A    between atoms: N2_23  and  C8_24
REMARK    5  A    between atoms: C8_24  and  C9_25
REMARK    6  A    between atoms: C9_25  and  N3_26
REMARK    7  A    between atoms: C16_36  and  C20_38
REMARK                            x       y       z     vdW  Elec       q    Type
REMARK                         _______ _______ _______ _____ _____    ______ ____
ROOT
ATOM      1  C   UNL     1      -8.640  19.377 -32.176  0.00  0.00    +0.096 A 
ATOM      2  C   UNL     1      -8.175  18.066 -32.213  0.00  0.00    +0.100 A 
ATOM     14  N   UNL     1      -9.235  17.172 -32.323  0.00  0.00    -0.231 NA
ATOM     15  C   UNL     1     -10.356  17.911 -32.373  0.00  0.00    +0.120 A 
ATOM     34  N   UNL     1     -10.038  19.286 -32.259  0.00  0.00    -0.312 N 
ENDROOT
BRANCH   2   3
ATOM      3  C   UNL     1      -6.813  17.594 -32.168  0.00  0.00    +0.019 A 
ATOM      4  C   UNL     1      -5.826  18.258 -31.398  0.00  0.00    +0.004 A 
ATOM      5  C   UNL     1      -4.542  17.713 -31.299  0.00  0.00    +0.030 A 
ATOM      6  C   UNL     1      -4.257  16.505 -31.973  0.00  0.00    +0.144 A 
ATOM      7  F   UNL     1      -3.048  15.980 -31.881  0.00  0.00    -0.204 F 
ATOM      8  C   UNL     1      -5.244  15.848 -32.739  0.00  0.00    +0.099 A 
ATOM     13  C   UNL     1      -6.514  16.415 -32.848  0.00  0.00    +0.008 A 
BRANCH   8   9
ATOM      9  C   UNL     1      -4.984  14.503 -33.374  0.00  0.00    +0.421 C 
ATOM     10  F   UNL     1      -5.260  13.473 -32.535  0.00  0.00    -0.166 F 
ATOM     11  F   UNL     1      -3.728  14.314 -33.762  0.00  0.00    -0.166 F 
ATOM     12  F   UNL     1      -5.705  14.263 -34.475  0.00  0.00    -0.166 F 
ENDBRANCH   8   9
ENDBRANCH   2   3
BRANCH  15  16
ATOM     16  C   UNL     1     -11.736  17.346 -32.600  0.00  0.00    +0.060 C 
ATOM     17  C   UNL     1     -11.895  15.914 -32.037  0.00  0.00    +0.029 C 
ATOM     18  C   UNL     1     -13.277  15.325 -32.342  0.00  0.00    +0.093 C 
ATOM     19  N   UNL     1     -13.465  15.346 -33.868  0.00  0.00    -0.293 NA
ATOM     20  C   UNL     1     -13.522  16.780 -34.369  0.00  0.00    +0.093 C 
ATOM     33  C   UNL     1     -12.131  17.431 -34.095  0.00  0.00    +0.029 C 
BRANCH  19  21
ATOM     21  C   UNL     1     -14.443  14.435 -34.441  0.00  0.00    +0.132 C 
ATOM     22  C   UNL     1     -14.402  13.002 -34.183  0.00  0.00    +0.043 C 
ATOM     23  C   UNL     1     -13.274  12.206 -33.520  0.00  0.00    +0.037 C 
ATOM     24  C   UNL     1     -13.842  11.071 -32.648  0.00  0.00    +0.092 C 
ATOM     25  C   UNL     1     -14.917  10.259 -33.371  0.00  0.00    +0.247 C 
ATOM     26  O   UNL     1     -15.039   9.064 -33.236  0.00  0.00    -0.273 OA
ATOM     27  N   UNL     1     -15.770  10.933 -34.313  0.00  0.00    -0.161 NA
ATOM     28  C   UNL     1     -12.392  11.584 -34.631  0.00  0.00    +0.005 C 
ATOM     29  C   UNL     1     -15.541  12.292 -34.660  0.00  0.00    +0.155 C 
ATOM     30  N   UNL     1     -16.553  12.879 -35.332  0.00  0.00    -0.207 NA
ATOM     31  C   UNL     1     -16.465  14.208 -35.557  0.00  0.00    +0.201 C 
ATOM     32  N   UNL     1     -15.469  15.012 -35.158  0.00  0.00    -0.209 NA
ENDBRANCH  19  21
ENDBRANCH  15  16
BRANCH  34  35
ATOM     35  C   UNL     1     -10.908  20.434 -32.131  0.00  0.00    +0.125 C 
BRANCH  35  36
ATOM     36  C   UNL     1     -10.591  21.228 -30.851  0.00  0.00    +0.097 C 
BRANCH  36  37
ATOM     37  N   UNL     1     -11.143  20.561 -29.635  0.00  0.00    -0.271 NA
ATOM     38  C   UNL     1     -11.261  21.559 -28.524  0.00  0.00    +0.072 C 
ATOM     39  C   UNL     1     -10.687  20.909 -27.239  0.00  0.00    +0.019 C 
ATOM     40  C   UNL     1     -10.525  19.421 -27.566  0.00  0.00    +0.019 C 
ATOM     41  C   UNL     1     -10.344  19.405 -29.090  0.00  0.00    +0.072 C 
ENDBRANCH  36  37
ENDBRANCH  35  36
ENDBRANCH  34  35
TORSDOF 7
