REMARK  Name = 3o96_ligand
REMARK  5 active torsions:
REMARK  status: ('A' for Active; 'I' for Inactive)
REMARK    1  A    between atoms: C13_5  and  N5_16
REMARK    2  A    between atoms: C17_7  and  C16_22
REMARK    3  A    between atoms: C20_8  and  C25_26
REMARK    4  A    between atoms: C24_11  and  C36_36
REMARK    5  A    between atoms: C16_22  and  N42_42
REMARK                            x       y       z     vdW  Elec       q    Type
REMARK                         _______ _______ _______ _____ _____    ______ ____
ROOT
ATOM     16  C   UNL     1       8.240  -6.278  14.470  0.00  0.00    -0.059 A 
ATOM     17  C   UNL     1       7.000  -6.496  13.818  0.00  0.00    -0.001 A 
ATOM     18  C   UNL     1       6.670  -5.742  12.690  0.00  0.00    +0.009 A 
ATOM     19  C   UNL     1       7.570  -4.775  12.214  0.00  0.00    +0.001 A 
ATOM     40  C   UNL     1       8.797  -4.578  12.875  0.00  0.00    +0.009 A 
ATOM     41  C   UNL     1       9.117  -5.321  13.985  0.00  0.00    -0.001 A 
ENDROOT
BRANCH  19  20
ATOM     20  C   UNL     1       7.250  -3.993  11.054  0.00  0.00    +0.079 A 
ATOM     21  N   UNL     1       7.038  -4.636   9.883  0.00  0.00    -0.279 NA
ATOM     22  C   UNL     1       6.756  -3.906   8.775  0.00  0.00    +0.056 A 
ATOM     23  C   UNL     1       6.678  -2.487   8.821  0.00  0.00    +0.057 A 
ATOM     24  C   UNL     1       6.387  -1.772   7.646  0.00  0.00    +0.047 A 
ATOM     25  C   UNL     1       6.179  -2.476   6.437  0.00  0.00    +0.095 A 
ATOM     26  N   UNL     1       5.889  -1.926   5.195  0.00  0.00    -0.244 N 
ATOM     27  H   UNL     1       5.774  -0.948   4.931  0.00  0.00    +0.235 HD
ATOM     28  C   UNL     1       5.801  -3.028   4.438  0.00  0.00    +0.249 A 
ATOM     29  N   UNL     1       6.008  -4.185   5.089  0.00  0.00    -0.298 NA
ATOM     30  C   UNL     1       6.256  -3.823   6.399  0.00  0.00    +0.046 A 
ATOM     31  N   UNL     1       6.881  -1.803   9.976  0.00  0.00    -0.277 NA
ATOM     32  C   UNL     1       6.540  -4.574   7.548  0.00  0.00    +0.030 A 
ATOM     33  C   UNL     1       7.168  -2.495  11.105  0.00  0.00    +0.082 A 
BRANCH  33  34
ATOM     34  C   UNL     1       7.406  -1.727  12.367  0.00  0.00    +0.007 A 
ATOM     35  C   UNL     1       6.716  -2.074  13.584  0.00  0.00    +0.016 A 
ATOM     36  C   UNL     1       6.958  -1.328  14.772  0.00  0.00    +0.004 A 
ATOM     37  C   UNL     1       7.892  -0.223  14.759  0.00  0.00    +0.005 A 
ATOM     38  C   UNL     1       8.575   0.124  13.557  0.00  0.00    +0.004 A 
ATOM     39  C   UNL     1       8.342  -0.614  12.366  0.00  0.00    +0.016 A 
ENDBRANCH  33  34
ENDBRANCH  19  20
BRANCH  16  15
ATOM     15  C   UNL     1       8.605  -7.077  15.711  0.00  0.00    -0.036 C 
BRANCH  15  14
ATOM     11  C   UNL     1       9.811 -11.238  15.714  0.00  0.00    +0.124 C 
ATOM     12  C   UNL     1       8.620 -10.811  16.553  0.00  0.00    +0.012 C 
ATOM     13  C   UNL     1       8.611  -9.300  16.770  0.00  0.00    -0.103 C 
ATOM     14  N   UNL     1       8.661  -8.536  15.481  0.00  0.00    +0.408 NA
ATOM     42  C   UNL     1       9.793  -8.945  14.580  0.00  0.00    -0.103 C 
ATOM     43  C   UNL     1       9.869 -10.485  14.377  0.00  0.00    +0.012 C 
BRANCH  11   6
ATOM      1  C   UNL     1      11.138 -13.389  15.819  0.00  0.00    +0.094 A 
ATOM      2  C   UNL     1      12.427 -12.885  16.187  0.00  0.00    -0.007 A 
ATOM      3  C   UNL     1      13.513 -13.795  16.362  0.00  0.00    -0.045 A 
ATOM      4  C   UNL     1      13.294 -15.187  16.170  0.00  0.00    -0.045 A 
ATOM      5  C   UNL     1      11.985 -15.647  15.802  0.00  0.00    -0.007 A 
ATOM      6  N   UNL     1       9.949 -12.698  15.598  0.00  0.00    -0.203 N 
ATOM      7  C   UNL     1       8.977 -13.648  15.264  0.00  0.00    +0.310 A 
ATOM      8  O   UNL     1       7.793 -13.417  14.999  0.00  0.00    -0.395 OA
ATOM      9  N   UNL     1       9.583 -14.900  15.286  0.00  0.00    -0.220 N 
ATOM     10  H   UNL     1       9.137 -15.795  15.086  0.00  0.00    +0.225 HD
ATOM     44  C   UNL     1      10.927 -14.695  15.637  0.00  0.00    +0.091 A 
ENDBRANCH  11   6
ENDBRANCH  15  14
ENDBRANCH  16  15
TORSDOF 5
