REMARK  Name = 2X4F
REMARK  4 active torsions:
REMARK  status: ('A' for Active; 'I' for Inactive)
REMARK    1  A    between atoms: C_4  and  C_5
REMARK    2  A    between atoms: C_7  and  C_8
REMARK    3  A    between atoms: N_14  and  C_15
REMARK    4  A    between atoms: C_18  and  N_19
REMARK                            x       y       z     vdW  Elec       q    Type
REMARK                         _______ _______ _______ _____ _____    ______ ____
ROOT
ATOM      7  C   UNL     1      87.600  50.266  29.659  0.00  0.00    +0.084 A 
ATOM      8  C   UNL     1      87.153  49.606  28.517  0.00  0.00    +0.049 A 
ATOM      9  C   UNL     1      87.554  50.073  27.278  0.00  0.00    +0.116 A 
ATOM     10  N   UNL     1      88.344  51.123  27.200  0.00  0.00    -0.223 NA
ATOM     11  C   UNL     1      88.788  51.756  28.299  0.00  0.00    +0.220 A 
ATOM     12  N   UNL     1      89.585  52.823  28.141  0.00  0.00    -0.283 N 
ATOM     13  H   UNL     1      89.530  53.290  27.180  0.00  0.00    +0.155 HD
ATOM     23  N   UNL     1      88.407  51.330  29.510  0.00  0.00    -0.214 NA
ENDROOT
BRANCH   7   6
ATOM      1  N   UNL     1      87.045  49.887  34.701  0.00  0.00    -0.338 N 
ATOM      2  H   UNL     1      87.568  50.716  35.131  0.00  0.00    +0.144 HD
ATOM      3  H   UNL     1      86.541  49.186  35.334  0.00  0.00    +0.144 HD
ATOM      4  C   UNL     1      87.021  49.729  33.388  0.00  0.00    +0.156 A 
ATOM      5  S   UNL     1      87.751  50.748  32.313  0.00  0.00    -0.051 S 
ATOM      6  C   UNL     1      87.258  49.877  30.962  0.00  0.00    +0.062 A 
ATOM     24  C   UNL     1      86.503  48.771  31.404  0.00  0.00    +0.057 A 
ATOM     25  C   UNL     1      85.963  47.868  30.506  0.00  0.00    +0.067 C 
ATOM     26  N   UNL     1      86.404  48.739  32.742  0.00  0.00    -0.230 NA
ENDBRANCH   7   6
BRANCH  12  14
ATOM     14  C   UNL     1      90.439  53.394  29.001  0.00  0.00    +0.036 A 
ATOM     15  C   UNL     1      90.124  53.640  30.331  0.00  0.00    +0.053 A 
ATOM     16  C   UNL     1      91.052  54.260  31.162  0.00  0.00    +0.103 A 
ATOM     17  C   UNL     1      92.299  54.657  30.692  0.00  0.00    +0.031 A 
ATOM     18  C   UNL     1      92.625  54.429  29.362  0.00  0.00    +0.004 A 
ATOM     22  C   UNL     1      91.688  53.807  28.530  0.00  0.00    +0.023 A 
BRANCH  16  19
ATOM     19  N   UNL     1      90.746  54.473  32.427  0.00  0.00    -0.058 N 
ATOM     20  O   UNL     1      89.865  54.944  33.358  0.00  0.00    -0.054 OA
ATOM     21  O   UNL     1      91.103  54.366  33.737  0.00  0.00    -0.054 OA
ENDBRANCH  16  19
ENDBRANCH  12  14
TORSDOF 3
