REMARK  Name = 4TY1
REMARK  3 active torsions:
REMARK  status: ('A' for Active; 'I' for Inactive)
REMARK    1  A    between atoms: C_2  and  N_5
REMARK    2  A    between atoms: N_5  and  C_6
REMARK    3  A    between atoms: C_22  and  C_24
REMARK                            x       y       z     vdW  Elec       q    Type
REMARK                         _______ _______ _______ _____ _____    ______ ____
ROOT
ATOM      4  C   UNL     1     -20.183  30.976   0.500  0.00  0.00    +0.328 C 
ATOM      5  O   UNL     1     -20.666  32.224   0.722  0.00  0.00    -0.404 OA
ATOM      6  C   UNL     1     -20.845  32.798  -0.508  0.00  0.00    +0.251 C 
ATOM      7  C   UNL     1     -21.291  34.096  -0.770  0.00  0.00    +0.055 C 
ATOM      8  C   UNL     1     -21.570  34.980   0.282  0.00  0.00    +0.003 C 
ATOM      9  C   UNL     1     -22.011  36.312  -0.006  0.00  0.00    +0.009 C 
ATOM     10  C   UNL     1     -22.376  37.444   0.810  0.00  0.00    +0.053 C 
ATOM     11  C   UNL     1     -22.489  37.524   2.205  0.00  0.00    +0.163 A 
ATOM     12  N   UNL     1     -22.226  36.429   2.947  0.00  0.00    -0.231 NA
ATOM     13  C   UNL     1     -22.387  36.425   4.293  0.00  0.00    +0.062 A 
ATOM     17  C   UNL     1     -22.862  37.572   4.952  0.00  0.00    +0.035 A 
ATOM     18  C   UNL     1     -23.156  38.701   4.177  0.00  0.00    +0.102 A 
ATOM     19  N   UNL     1     -22.988  38.645   2.817  0.00  0.00    -0.225 NA
ATOM     20  C   UNL     1     -22.727  38.460  -0.091  0.00  0.00    +0.097 C 
ATOM     21  N   UNL     1     -22.558  38.018  -1.369  0.00  0.00    -0.262 NA
ATOM     22  C   UNL     1     -22.128  36.706  -1.331  0.00  0.00    +0.148 C 
ATOM     23  C   UNL     1     -21.830  35.811  -2.399  0.00  0.00    +0.002 C 
ATOM     24  C   UNL     1     -21.408  34.521  -2.109  0.00  0.00    +0.002 C 
ATOM     25  N   UNL     1     -20.453  31.917  -1.451  0.00  0.00    -0.106 NA
ATOM     26  N   UNL     1     -20.056  30.791  -0.821  0.00  0.00    -0.091 NA
ENDROOT
BRANCH  13  14
ATOM     14  C   UNL     1     -21.991  35.151   5.014  0.00  0.00    +0.040 C 
ATOM     15  C   UNL     1     -21.113  34.122   4.323  0.00  0.00    +0.006 C 
ATOM     16  C   UNL     1     -22.415  33.693   4.962  0.00  0.00    +0.006 C 
ENDBRANCH  13  14
BRANCH   4   3
ATOM      3  N   UNL     1     -19.854  30.000   1.478  0.00  0.00    -0.190 NA
BRANCH   3   2
ATOM      1  C   UNL     1     -19.436  29.035   3.656  0.00  0.00    +0.022 C 
ATOM      2  C   UNL     1     -19.969  30.277   2.889  0.00  0.00    +0.081 C 
ATOM     27  C   UNL     1     -19.140  31.510   3.284  0.00  0.00    +0.022 C 
ATOM     28  C   UNL     1     -21.451  30.539   3.210  0.00  0.00    +0.022 C 
ENDBRANCH   3   2
ENDBRANCH   4   3
TORSDOF 3
