REMARK  Name = 2wu6_ligand
REMARK  6 active torsions:
REMARK  status: ('A' for Active; 'I' for Inactive)
REMARK    1  A    between atoms: CAZ_8  and  NAQ_9
REMARK    2  A    between atoms: NAQ_9  and  CAS_10
REMARK    3  A    between atoms: CAS_10  and  NBA_12
REMARK    4  A    between atoms: NAR_18  and  CAW_19
REMARK    5  A    between atoms: CAY_24  and  SBB_25
REMARK    6  A    between atoms: SBB_25  and  NAB_28
REMARK                            x       y       z     vdW  Elec       q    Type
REMARK                         _______ _______ _______ _____ _____    ______ ____
ROOT
ATOM      7  N   UNL     1      37.179  55.852  13.362  0.00  0.00    -0.079 N 
ATOM      8  C   UNL     1      37.232  55.552  12.042  0.00  0.00    +0.258 A 
ATOM      9  N   UNL     1      37.054  56.671  11.373  0.00  0.00    -0.271 NA
ATOM     10  C   UNL     1      36.868  57.630  12.312  0.00  0.00    +0.153 A 
ATOM     11  N   UNL     1      36.673  58.932  12.006  0.00  0.00    -0.266 N 
ATOM     12  H   UNL     1      36.725  59.117  11.004  0.00  0.00    +0.208 HD
ATOM     25  N   UNL     1      37.432  54.362  11.443  0.00  0.00    -0.288 N 
ATOM     26  H   UNL     1      37.565  53.523  12.007  0.00  0.00    +0.183 HD
ATOM     27  H   UNL     1      37.450  54.300  10.425  0.00  0.00    +0.183 HD
ATOM     28  N   UNL     1      36.944  57.070  13.515  0.00  0.00    -0.177 NA
ENDROOT
BRANCH  11  13
ATOM     13  C   UNL     1      36.424  60.043  12.733  0.00  0.00    +0.058 A 
ATOM     14  C   UNL     1      35.992  61.208  12.059  0.00  0.00    +0.014 A 
ATOM     15  C   UNL     1      35.732  62.399  12.756  0.00  0.00    +0.014 A 
ATOM     16  C   UNL     1      35.907  62.414  14.151  0.00  0.00    +0.095 A 
ATOM     23  C   UNL     1      36.335  61.266  14.829  0.00  0.00    +0.014 A 
ATOM     24  C   UNL     1      36.592  60.088  14.118  0.00  0.00    +0.014 A 
BRANCH  16  17
ATOM     17  S   UNL     1      35.568  63.882  15.116  0.00  0.00    +0.060 S 
ATOM     21  O   UNL     1      34.722  63.507  16.300  0.00  0.00    -0.152 OA
ATOM     22  O   UNL     1      34.864  64.850  14.193  0.00  0.00    -0.152 OA
BRANCH  17  18
ATOM     18  N   UNL     1      36.939  64.542  15.515  0.00  0.00    -0.262 NA
ATOM     19  H   UNL     1      37.578  64.051  16.140  0.00  0.00    +0.163 HD
ATOM     20  H   UNL     1      37.188  65.461  15.149  0.00  0.00    +0.163 HD
ENDBRANCH  17  18
ENDBRANCH  16  17
ENDBRANCH  11  13
BRANCH   7   6
ATOM      6  C   UNL     1      37.249  55.005  14.419  0.00  0.00    +0.246 C 
ATOM     29  S   UNL     1      37.692  53.330  14.274  0.00  0.00    -0.245 S 
BRANCH   6   4
ATOM      4  N   UNL     1      36.916  55.457  15.640  0.00  0.00    -0.218 N 
ATOM      5  H   UNL     1      36.725  56.456  15.714  0.00  0.00    +0.236 HD
BRANCH   4   3
ATOM      1  F   UNL     1      39.135  54.652  17.120  0.00  0.00    -0.194 F 
ATOM      2  C   UNL     1      37.891  54.356  17.569  0.00  0.00    +0.153 A 
ATOM      3  C   UNL     1      36.803  54.726  16.805  0.00  0.00    +0.143 A 
ATOM     30  C   UNL     1      35.536  54.410  17.297  0.00  0.00    +0.153 A 
ATOM     31  F   UNL     1      34.445  54.762  16.598  0.00  0.00    -0.194 F 
ATOM     32  C   UNL     1      35.334  53.725  18.496  0.00  0.00    +0.009 A 
ATOM     33  C   UNL     1      36.432  53.326  19.238  0.00  0.00    -0.032 A 
ATOM     34  C   UNL     1      37.705  53.648  18.767  0.00  0.00    +0.009 A 
ENDBRANCH   4   3
ENDBRANCH   6   4
ENDBRANCH   7   6
TORSDOF 6
