REMARK  Name = 5H0E
REMARK  11 active torsions:
REMARK  status: ('A' for Active; 'I' for Inactive)
REMARK    1  A    between atoms: N_7  and  C_12
REMARK    2  A    between atoms: C_9  and  C_11
REMARK    3  A    between atoms: C_15  and  N_24
REMARK    4  A    between atoms: C_20  and  O_23
REMARK    5  A    between atoms: O_23  and  C_31
REMARK    6  A    between atoms: N_24  and  C_26
REMARK    7  A    between atoms: C_25  and  C_26
REMARK    8  A    between atoms: C_26  and  C_27
REMARK    9  A    between atoms: C_27  and  C_28
REMARK   10  A    between atoms: C_28  and  C_29
REMARK   11  A    between atoms: C_28  and  C_30
REMARK                            x       y       z     vdW  Elec       q    Type
REMARK                         _______ _______ _______ _____ _____    ______ ____
ROOT
ATOM      1  C   UNL     1       5.259  -3.025  -0.957  0.00  0.00    +0.147 A 
ATOM      2  N   UNL     1       4.769  -1.999  -0.384  0.00  0.00    -0.328 N 
ATOM     21  C   UNL     1       3.590  -1.640  -0.577  0.00  0.00    +0.097 A 
ATOM     22  C   UNL     1       3.062  -2.582  -1.462  0.00  0.00    +0.012 A 
ATOM     36  N   UNL     1       6.494  -3.546  -0.874  0.00  0.00    -0.218 NA
ATOM     37  C   UNL     1       6.602  -4.664  -1.633  0.00  0.00    +0.225 A 
ATOM     38  N   UNL     1       5.647  -5.269  -2.421  0.00  0.00    -0.220 NA
ATOM     39  C   UNL     1       4.429  -4.711  -2.472  0.00  0.00    +0.129 A 
ATOM     40  N   UNL     1       3.455  -5.286  -3.271  0.00  0.00    -0.343 N 
ATOM     41  H   UNL     1       3.675  -6.172  -3.829  0.00  0.00    +0.144 HD
ATOM     42  H   UNL     1       2.482  -4.845  -3.330  0.00  0.00    +0.144 HD
ATOM     43  C   UNL     1       4.170  -3.573  -1.745  0.00  0.00    +0.066 A 
ENDROOT
BRANCH   2   3
ATOM      3  C   UNL     1       5.615  -1.177   0.482  0.00  0.00    +0.089 C 
ATOM      4  C   UNL     1       5.384  -1.339   1.960  0.00  0.00    +0.027 C 
ATOM      5  C   UNL     1       6.440  -0.500   2.730  0.00  0.00    +0.020 C 
ATOM      6  C   UNL     1       6.344   0.962   2.434  0.00  0.00    +0.054 C 
ATOM     19  C   UNL     1       6.367   1.168   0.916  0.00  0.00    +0.020 C 
ATOM     20  C   UNL     1       5.366   0.271   0.159  0.00  0.00    +0.027 C 
BRANCH   6   7
ATOM      7  N   UNL     1       7.472   1.701   2.992  0.00  0.00    -0.303 NA
ATOM      8  H   UNL     1       7.456   2.693   2.591  0.00  0.00    +0.123 HD
BRANCH   7   9
ATOM      9  C   UNL     1       7.459   1.795   4.442  0.00  0.00    +0.141 C 
BRANCH   9  14
ATOM     14  C   UNL     1       6.629   2.932   4.895  0.00  0.00    +0.228 C 
ATOM     15  N   UNL     1       6.389   3.109   6.334  0.00  0.00    -0.328 N 
ATOM     16  H   UNL     1       5.791   3.926   6.680  0.00  0.00    +0.145 HD
ATOM     17  H   UNL     1       6.812   2.421   7.036  0.00  0.00    +0.145 HD
ATOM     18  O   UNL     1       6.154   3.721   4.080  0.00  0.00    -0.274 OA
ENDBRANCH   9  14
BRANCH   9  10
ATOM     10  C   UNL     1       8.878   2.052   4.994  0.00  0.00    +0.031 C 
BRANCH  10  11
ATOM     11  C   UNL     1       9.934   1.156   4.306  0.00  0.00    -0.015 C 
ATOM     12  C   UNL     1      10.064  -0.137   5.069  0.00  0.00    +0.007 C 
ATOM     13  C   UNL     1      11.279   1.874   4.296  0.00  0.00    +0.007 C 
ENDBRANCH  10  11
ENDBRANCH   9  10
ENDBRANCH   7   9
ENDBRANCH   6   7
ENDBRANCH   2   3
BRANCH  22  23
ATOM     23  C   UNL     1       1.594  -2.589  -1.977  0.00  0.00    -0.016 A 
ATOM     24  C   UNL     1       0.848  -3.766  -1.857  0.00  0.00    +0.012 A 
ATOM     25  C   UNL     1      -0.479  -3.794  -2.287  0.00  0.00    +0.047 A 
ATOM     26  C   UNL     1      -1.060  -2.642  -2.847  0.00  0.00    +0.129 A 
ATOM     34  C   UNL     1      -0.323  -1.470  -2.943  0.00  0.00    +0.047 A 
ATOM     35  C   UNL     1       1.009  -1.439  -2.508  0.00  0.00    +0.012 A 
BRANCH  26  27
ATOM     27  O   UNL     1      -2.434  -2.744  -3.218  0.00  0.00    -0.456 OA
BRANCH  27  28
ATOM     28  C   UNL     1      -2.936  -2.242  -4.457  0.00  0.00    +0.128 A 
ATOM     29  C   UNL     1      -4.194  -1.690  -4.465  0.00  0.00    +0.046 A 
ATOM     30  C   UNL     1      -4.735  -1.217  -5.663  0.00  0.00    +0.004 A 
ATOM     31  C   UNL     1      -3.986  -1.313  -6.847  0.00  0.00    +0.000 A 
ATOM     32  C   UNL     1      -2.740  -1.881  -6.827  0.00  0.00    +0.004 A 
ATOM     33  C   UNL     1      -2.203  -2.349  -5.647  0.00  0.00    +0.046 A 
ENDBRANCH  27  28
ENDBRANCH  26  27
ENDBRANCH  22  23
TORSDOF 9
