REMARK  Name = 4RVK
REMARK  4 active torsions:
REMARK  status: ('A' for Active; 'I' for Inactive)
REMARK    1  A    between atoms: C_2  and  C_11
REMARK    2  A    between atoms: C_15  and  C_16
REMARK    3  A    between atoms: C_18  and  N_19
REMARK    4  A    between atoms: C_20  and  C_22
REMARK                            x       y       z     vdW  Elec       q    Type
REMARK                         _______ _______ _______ _____ _____    ______ ____
ROOT
ATOM      1  C   UNL     1       6.179   8.466  18.043  0.00  0.00    +0.015 A 
ATOM      2  C   UNL     1       6.994   9.502  18.502  0.00  0.00    +0.092 A 
ATOM      3  C   UNL     1       8.299   9.568  18.076  0.00  0.00    +0.140 A 
ATOM      4  N   UNL     1       8.803   8.634  17.268  0.00  0.00    -0.242 NA
ATOM      5  C   UNL     1       8.077   7.593  16.823  0.00  0.00    +0.141 A 
ATOM      8  N   UNL     1       6.249  10.310  19.299  0.00  0.00    -0.226 NA
ATOM      9  C   UNL     1       4.989   9.805  19.352  0.00  0.00    +0.161 A 
ATOM     10  N   UNL     1       3.953  10.323  20.022  0.00  0.00    -0.235 NA
ATOM     11  C   UNL     1       2.773   9.678  19.959  0.00  0.00    +0.121 A 
ATOM     12  C   UNL     1       2.607   8.505  19.221  0.00  0.00    +0.001 A 
ATOM     24  C   UNL     1       3.702   7.972  18.508  0.00  0.00    +0.022 A 
ATOM     25  C   UNL     1       4.919   8.654  18.601  0.00  0.00    +0.029 A 
ATOM     26  C   UNL     1       6.712   7.503  17.175  0.00  0.00    +0.049 A 
ENDROOT
BRANCH  12  13
ATOM     13  C   UNL     1       1.236   7.904  19.180  0.00  0.00    -0.015 A 
ATOM     14  C   UNL     1       0.806   7.128  18.096  0.00  0.00    +0.008 A 
ATOM     15  C   UNL     1      -0.501   6.610  18.096  0.00  0.00    +0.002 A 
ATOM     16  C   UNL     1      -1.396   6.894  19.142  0.00  0.00    +0.023 A 
ATOM     17  C   UNL     1      -0.982   7.692  20.208  0.00  0.00    +0.034 A 
ATOM     23  C   UNL     1       0.313   8.209  20.196  0.00  0.00    +0.031 A 
BRANCH  17  18
ATOM     18  N   UNL     1      -1.891   7.977  21.249  0.00  0.00    -0.286 N 
ATOM     19  H   UNL     1      -2.869   7.561  21.125  0.00  0.00    +0.155 HD
ATOM     20  C   UNL     1      -1.712   8.695  22.376  0.00  0.00    +0.214 C 
ATOM     21  C   UNL     1      -2.933   8.809  23.235  0.00  0.00    +0.109 C 
ATOM     22  O   UNL     1      -0.676   9.224  22.746  0.00  0.00    -0.276 OA
ENDBRANCH  17  18
ENDBRANCH  12  13
BRANCH   5   6
ATOM      6  C   UNL     1       8.662   6.775  15.994  0.00  0.00    +0.119 C 
ATOM      7  N   UNL     1       9.168   6.131  15.147  0.00  0.00    -0.189 NA
ENDBRANCH   5   6
TORSDOF 3
