REMARK  Name = 3v5q_ligand
REMARK  6 active torsions:
REMARK  status: ('A' for Active; 'I' for Inactive)
REMARK    1  A    between atoms: C2_2  and  C5_5
REMARK    2  A    between atoms: C9_9  and  N10_10
REMARK    3  A    between atoms: N13_13  and  C14_14
REMARK    4  A    between atoms: C18_18  and  N19_19
REMARK    5  A    between atoms: N19_19  and  C20_20
REMARK    6  A    between atoms: C29_29  and  C30_30
REMARK                            x       y       z     vdW  Elec       q    Type
REMARK                         _______ _______ _______ _____ _____    ______ ____
ROOT
ATOM     11  C   UNL     1      -5.331 -30.182 -13.802  0.00  0.00    +0.056 A 
ATOM     12  C   UNL     1      -6.462 -30.355 -14.596  0.00  0.00    +0.019 A 
ATOM     13  C   UNL     1      -6.427 -30.062 -15.957  0.00  0.00    +0.044 A 
ATOM     34  C   UNL     1      -5.222 -29.615 -16.515  0.00  0.00    -0.014 A 
ATOM     35  C   UNL     1      -4.085 -29.441 -15.734  0.00  0.00    -0.030 A 
ATOM     36  C   UNL     1      -4.143 -29.734 -14.374  0.00  0.00    -0.013 A 
ENDROOT
BRANCH  11   9
ATOM      6  N   UNL     1      -5.971 -30.438 -10.335  0.00  0.00    -0.208 N 
ATOM      7  H   UNL     1      -5.152 -31.030 -10.194  0.00  0.00    +0.226 HD
ATOM      8  C   UNL     1      -6.199 -30.032 -11.591  0.00  0.00    +0.317 C 
ATOM      9  N   UNL     1      -5.315 -30.476 -12.482  0.00  0.00    -0.217 N 
ATOM     10  H   UNL     1      -4.569 -31.084 -12.144  0.00  0.00    +0.226 HD
ATOM     37  O   UNL     1      -7.144 -29.337 -11.923  0.00  0.00    -0.380 OA
BRANCH   6   5
ATOM      3  C   UNL     1      -8.700 -29.334  -8.127  0.00  0.00    +0.033 A 
ATOM      4  C   UNL     1      -7.999 -29.622  -9.288  0.00  0.00    +0.058 A 
ATOM      5  C   UNL     1      -6.704 -30.153  -9.228  0.00  0.00    +0.096 A 
ATOM     38  C   UNL     1      -6.120 -30.399  -7.994  0.00  0.00    +0.064 A 
ATOM     39  C   UNL     1      -6.823 -30.119  -6.829  0.00  0.00    +0.023 A 
ATOM     40  C   UNL     1      -8.113 -29.592  -6.895  0.00  0.00    +0.029 A 
BRANCH   3   2
ATOM      1  F   UNL     1     -10.812 -29.082  -7.170  0.00  0.00    -0.221 F 
ATOM      2  C   UNL     1     -10.089 -28.765  -8.222  0.00  0.00    +0.373 C 
ATOM     41  F   UNL     1      -9.988 -27.446  -8.295  0.00  0.00    -0.221 F 
ATOM     42  F   UNL     1     -10.706 -29.265  -9.273  0.00  0.00    -0.221 F 
ENDBRANCH   3   2
ENDBRANCH   6   5
ENDBRANCH  11   9
BRANCH  13  14
ATOM     14  N   UNL     1      -7.577 -30.247 -16.676  0.00  0.00    -0.281 N 
ATOM     15  H   UNL     1      -8.206 -30.967 -16.321  0.00  0.00    +0.208 HD
BRANCH  14  16
ATOM     16  C   UNL     1      -8.000 -29.601 -17.804  0.00  0.00    +0.044 A 
ATOM     17  C   UNL     1      -9.120 -30.129 -18.449  0.00  0.00    +0.020 A 
ATOM     18  C   UNL     1      -9.608 -29.548 -19.621  0.00  0.00    +0.061 A 
ATOM     19  N   UNL     1     -10.676 -29.878 -20.413  0.00  0.00    -0.239 N 
ATOM     20  H   UNL     1     -11.308 -30.664 -20.264  0.00  0.00    +0.225 HD
ATOM     21  C   UNL     1     -10.749 -28.996 -21.413  0.00  0.00    +0.217 C 
ATOM     22  C   UNL     1      -9.679 -28.005 -21.321  0.00  0.00    +0.037 C 
ATOM     23  C   UNL     1      -9.293 -26.821 -22.136  0.00  0.00    +0.039 C 
ATOM     30  O   UNL     1     -11.636 -29.029 -22.342  0.00  0.00    -0.380 OA
ATOM     31  C   UNL     1      -8.955 -28.402 -20.106  0.00  0.00    -0.009 A 
ATOM     32  C   UNL     1      -7.848 -27.844 -19.488  0.00  0.00    -0.025 A 
ATOM     33  C   UNL     1      -7.377 -28.458 -18.328  0.00  0.00    -0.013 A 
BRANCH  23  24
ATOM     24  C   UNL     1     -10.034 -26.440 -23.366  0.00  0.00    +0.057 A 
ATOM     25  N   UNL     1     -11.105 -27.102 -23.807  0.00  0.00    -0.282 N 
ATOM     26  H   UNL     1     -11.546 -27.926 -23.399  0.00  0.00    +0.233 HD
ATOM     27  C   UNL     1     -11.475 -26.419 -24.933  0.00  0.00    +0.115 A 
ATOM     28  C   UNL     1     -10.621 -25.343 -25.161  0.00  0.00    -0.037 A 
ATOM     29  C   UNL     1      -9.676 -25.347 -24.144  0.00  0.00    -0.028 A 
ENDBRANCH  23  24
ENDBRANCH  14  16
ENDBRANCH  13  14
TORSDOF 6
