REMARK  Name = LY2
REMARK  2 active torsions:
REMARK  status: ('A' for Active; 'I' for Inactive)
REMARK    1  A    between atoms: N14_1  and  C11_4
REMARK    2  A    between atoms: C5_14  and  C20_16
REMARK                            x       y       z     vdW  Elec       q    Type
REMARK                         _______ _______ _______ _____ _____    ______ ____
ROOT
ATOM      2  C   UNL     1      25.045  50.174  -1.637  0.00  0.00    +0.202 C 
ATOM      3  O   UNL     1      26.236  50.009  -0.961  0.00  0.00    -0.440 OA
ATOM      4  C   UNL     1      26.320  49.043   0.019  0.00  0.00    +0.150 A 
ATOM      5  C   UNL     1      27.570  48.836   0.628  0.00  0.00    +0.035 A 
ATOM      6  C   UNL     1      27.676  47.837   1.595  0.00  0.00    +0.003 A 
ATOM      7  C   UNL     1      26.580  47.058   1.932  0.00  0.00    +0.000 A 
ATOM      8  C   UNL     1      25.353  47.264   1.320  0.00  0.00    +0.006 A 
ATOM     15  C   UNL     1      25.211  48.259   0.352  0.00  0.00    +0.074 A 
ATOM     16  C   UNL     1      23.932  48.449  -0.356  0.00  0.00    +0.203 C 
ATOM     17  O   UNL     1      22.941  47.755  -0.096  0.00  0.00    -0.286 OA
ATOM     18  C   UNL     1      23.905  49.457  -1.386  0.00  0.00    +0.096 C 
ENDROOT
BRANCH   2   1
ATOM      1  N   UNL     1      25.236  51.152  -2.620  0.00  0.00    -0.274 N 
ATOM     19  C   UNL     1      26.469  51.929  -2.803  0.00  0.00    +0.126 C 
ATOM     20  C   UNL     1      26.996  51.718  -4.200  0.00  0.00    +0.164 C 
ATOM     21  O   UNL     1      26.020  52.039  -5.195  0.00  0.00    -0.350 OA
ATOM     22  C   UNL     1      24.841  51.265  -5.004  0.00  0.00    +0.164 C 
ATOM     23  C   UNL     1      24.245  51.494  -3.642  0.00  0.00    +0.126 C 
ENDBRANCH   2   1
BRANCH   5   9
ATOM      9  C   UNL     1      28.795  49.598   0.247  0.00  0.00    +0.003 A 
ATOM     10  C   UNL     1      29.589  50.201   1.219  0.00  0.00    +0.000 A 
ATOM     11  C   UNL     1      30.742  50.889   0.865  0.00  0.00    +0.000 A 
ATOM     12  C   UNL     1      31.115  50.987  -0.457  0.00  0.00    +0.000 A 
ATOM     13  C   UNL     1      30.344  50.395  -1.431  0.00  0.00    +0.000 A 
ATOM     14  C   UNL     1      29.192  49.705  -1.086  0.00  0.00    +0.000 A 
ENDBRANCH   5   9
TORSDOF 2
