REMARK  Name = 4QQ5
REMARK  13 active torsions:
REMARK  status: ('A' for Active; 'I' for Inactive)
REMARK    1  A    between atoms: N_7  and  C_36
REMARK    2  A    between atoms: N_9  and  C_25
REMARK    3  A    between atoms: N_11  and  C_12
REMARK    4  A    between atoms: C_15  and  N_18
REMARK    5  A    between atoms: N_21  and  C_24
REMARK    6  A    between atoms: C_27  and  O_32
REMARK    7  A    between atoms: C_29  and  O_31
REMARK    8  A    between atoms: O_31  and  C_33
REMARK    9  A    between atoms: O_32  and  C_34
REMARK   10  A    between atoms: C_36  and  C_37
REMARK   11  A    between atoms: C_40  and  N_43
REMARK   12  A    between atoms: C_44  and  C_45
REMARK   13  A    between atoms: C_45  and  C_46
REMARK                            x       y       z     vdW  Elec       q    Type
REMARK                         _______ _______ _______ _____ _____    ______ ____
ROOT
ATOM      1  C   UNL     1     -64.525 146.109   2.618  0.00  0.00    +0.123 A 
ATOM      2  C   UNL     1     -63.461 145.287   2.188  0.00  0.00    +0.029 A 
ATOM      3  C   UNL     1     -63.527 143.865   2.049  0.00  0.00    +0.155 C 
ATOM      4  N   UNL     1     -62.298 143.198   2.356  0.00  0.00    -0.250 N 
ATOM     15  C   UNL     1     -61.119 143.722   1.768  0.00  0.00    +0.315 C 
ATOM     16  O   UNL     1     -59.967 142.951   1.579  0.00  0.00    -0.252 OA
ATOM     17  N   UNL     1     -61.142 145.079   1.385  0.00  0.00    -0.235 N 
ATOM     31  C   UNL     1     -62.229 145.901   1.846  0.00  0.00    +0.139 A 
ATOM     32  N   UNL     1     -62.114 147.252   1.949  0.00  0.00    -0.199 NA
ATOM     33  C   UNL     1     -63.161 147.997   2.373  0.00  0.00    +0.221 A 
ATOM     34  N   UNL     1     -63.085 149.428   2.500  0.00  0.00    -0.284 N 
ATOM     35  H   UNL     1     -63.480 149.639   3.472  0.00  0.00    +0.155 HD
ATOM     49  N   UNL     1     -64.321 147.430   2.676  0.00  0.00    -0.222 NA
ENDROOT
BRANCH   4   5
ATOM      5  C   UNL     1     -62.401 141.798   2.727  0.00  0.00    +0.045 A 
ATOM      6  C   UNL     1     -62.818 141.496   4.022  0.00  0.00    +0.069 A 
ATOM      7  C   UNL     1     -62.932 140.160   4.419  0.00  0.00    +0.125 A 
ATOM     10  C   UNL     1     -62.638 139.133   3.501  0.00  0.00    +0.091 A 
ATOM     11  C   UNL     1     -62.225 139.458   2.178  0.00  0.00    +0.125 A 
ATOM     14  C   UNL     1     -62.108 140.797   1.797  0.00  0.00    +0.069 A 
BRANCH   7   8
ATOM      8  O   UNL     1     -63.370 139.903   5.764  0.00  0.00    -0.495 OA
ATOM      9  C   UNL     1     -63.733 138.535   6.073  0.00  0.00    +0.277 C 
ENDBRANCH   7   8
BRANCH  11  12
ATOM     12  O   UNL     1     -61.913 138.459   1.216  0.00  0.00    -0.495 OA
ATOM     13  C   UNL     1     -62.275 137.146   1.574  0.00  0.00    +0.277 C 
ENDBRANCH  11  12
ENDBRANCH   4   5
BRANCH  34  36
ATOM     36  C   UNL     1     -61.914 150.246   2.394  0.00  0.00    +0.034 A 
ATOM     37  C   UNL     1     -60.630 149.778   2.576  0.00  0.00    +0.025 A 
ATOM     38  C   UNL     1     -59.446 150.737   2.448  0.00  0.00    +0.028 A 
ATOM     39  C   UNL     1     -59.677 152.046   2.175  0.00  0.00    +0.046 A 
ATOM     47  C   UNL     1     -61.111 152.557   1.992  0.00  0.00    +0.028 A 
ATOM     48  C   UNL     1     -62.154 151.710   2.099  0.00  0.00    +0.025 A 
BRANCH  39  40
ATOM     40  N   UNL     1     -58.635 153.015   2.044  0.00  0.00    -0.320 N 
ATOM     41  C   UNL     1     -58.833 154.073   1.112  0.00  0.00    +0.109 A 
ATOM     42  C   UNL     1     -57.887 155.038   0.945  0.00  0.00    +0.103 A 
ATOM     43  N   UNL     1     -56.689 154.982   1.722  0.00  0.00    -0.353 N 
ATOM     44  C   UNL     1     -55.671 156.014   1.547  0.00  0.00    +0.148 C 
ATOM     45  C   UNL     1     -56.492 153.927   2.653  0.00  0.00    +0.103 A 
ATOM     46  C   UNL     1     -57.448 152.957   2.821  0.00  0.00    +0.109 A 
ENDBRANCH  39  40
ENDBRANCH  34  36
BRANCH  17  18
ATOM     18  C   UNL     1     -60.005 145.721   0.709  0.00  0.00    +0.152 C 
BRANCH  18  19
ATOM     19  C   UNL     1     -58.694 145.835   1.474  0.00  0.00    -0.029 A 
ATOM     20  C   UNL     1     -58.622 146.633   2.603  0.00  0.00    +0.007 A 
ATOM     21  C   UNL     1     -57.418 146.747   3.269  0.00  0.00    +0.023 A 
ATOM     22  C   UNL     1     -56.308 146.082   2.823  0.00  0.00    +0.033 A 
ATOM     29  C   UNL     1     -56.383 145.296   1.678  0.00  0.00    +0.023 A 
ATOM     30  C   UNL     1     -57.593 145.180   1.003  0.00  0.00    +0.007 A 
BRANCH  22  23
ATOM     23  N   UNL     1     -55.096 146.277   3.564  0.00  0.00    -0.285 N 
ATOM     24  H   UNL     1     -55.005 145.427   4.207  0.00  0.00    +0.155 HD
ATOM     25  C   UNL     1     -53.806 146.441   2.942  0.00  0.00    +0.217 C 
ATOM     26  O   UNL     1     -53.663 146.366   1.738  0.00  0.00    -0.276 OA
BRANCH  25  27
ATOM     27  C   UNL     1     -52.587 146.699   3.837  0.00  0.00    +0.093 C 
ATOM     28  C   UNL     1     -51.429 145.724   3.587  0.00  0.00    +0.013 C 
ENDBRANCH  25  27
ENDBRANCH  22  23
ENDBRANCH  18  19
ENDBRANCH  17  18
TORSDOF 9
