REMARK  Name = 2duv_ligand
REMARK  6 active torsions:
REMARK  status: ('A' for Active; 'I' for Inactive)
REMARK    1  A    between atoms: C1_2  and  C10_12
REMARK    2  A    between atoms: C2_3  and  O3_19
REMARK    3  A    between atoms: C5_6  and  C16_18
REMARK    4  A    between atoms: C7_8  and  N1_24
REMARK    5  A    between atoms: C13_15  and  O5_21
REMARK    6  A    between atoms: C14_16  and  O4_20
REMARK                            x       y       z     vdW  Elec       q    Type
REMARK                         _______ _______ _______ _____ _____    ______ ____
ROOT
ATOM      1  O   UNL     1      26.782  29.083  26.843  0.00  0.00    -0.263 OA
ATOM      2  C   UNL     1      25.624  28.591  27.443  0.00  0.00    +0.149 A 
ATOM      3  C   UNL     1      24.914  29.378  28.394  0.00  0.00    +0.042 A 
ATOM      4  C   UNL     1      23.736  28.865  28.987  0.00  0.00    -0.027 A 
ATOM      5  C   UNL     1      23.256  27.574  28.641  0.00  0.00    -0.068 A 
ATOM      6  C   UNL     1      21.993  27.056  29.286  0.00  0.00    +0.072 C 
ATOM      7  C   UNL     1      23.978  26.784  27.685  0.00  0.00    -0.005 A 
ATOM      8  C   UNL     1      25.457  30.734  28.724  0.00  0.00    +0.149 A 
ATOM      9  O   UNL     1      24.981  31.556  29.517  0.00  0.00    -0.408 OA
ATOM     10  C   UNL     1      26.727  31.188  28.023  0.00  0.00    +0.162 A 
ATOM     13  C   UNL     1      25.169  27.293  27.084  0.00  0.00    +0.102 A 
ATOM     21  C   UNL     1      27.315  30.325  27.113  0.00  0.00    +0.150 A 
ENDROOT
BRANCH  13  14
ATOM     14  N   UNL     1      25.910  26.585  26.155  0.00  0.00    -0.179 N 
ATOM     15  S   UNL     1      27.357  25.898  26.419  0.00  0.00    +0.061 S 
ATOM     16  O   UNL     1      28.179  26.766  27.218  0.00  0.00    -0.150 OA
ATOM     17  O   UNL     1      27.086  24.562  26.866  0.00  0.00    -0.150 OA
ATOM     18  C   UNL     1      27.900  25.874  24.742  0.00  0.00    +0.197 C 
ATOM     19  C   UNL     1      26.562  25.541  24.063  0.00  0.00    +0.052 C 
ATOM     20  C   UNL     1      25.459  26.366  24.779  0.00  0.00    +0.166 C 
ENDBRANCH  13  14
BRANCH  21  22
ATOM     22  C   UNL     1      28.535  30.616  26.337  0.00  0.00    -0.006 A 
ATOM     23  C   UNL     1      29.411  29.529  26.066  0.00  0.00    +0.017 A 
ATOM     24  C   UNL     1      30.574  29.736  25.314  0.00  0.00    +0.116 A 
ATOM     27  C   UNL     1      30.876  31.049  24.819  0.00  0.00    +0.117 A 
ATOM     30  C   UNL     1      30.022  32.140  25.078  0.00  0.00    +0.011 A 
ATOM     31  C   UNL     1      28.847  31.924  25.836  0.00  0.00    -0.022 A 
BRANCH  24  25
ATOM     25  O   UNL     1      31.467  28.708  25.011  0.00  0.00    -0.337 OA
ATOM     26  H   UNL     1      32.185  29.056  24.496  0.00  0.00    +0.244 HD
ENDBRANCH  24  25
BRANCH  27  28
ATOM     28  O   UNL     1      32.023  31.202  24.084  0.00  0.00    -0.336 OA
ATOM     29  H   UNL     1      32.108  32.110  23.817  0.00  0.00    +0.245 HD
ENDBRANCH  27  28
ENDBRANCH  21  22
BRANCH  10  11
ATOM     11  O   UNL     1      27.177  32.444  28.364  0.00  0.00    -0.341 OA
ATOM     12  H   UNL     1      26.510  33.086  28.153  0.00  0.00    +0.242 HD
ENDBRANCH  10  11
TORSDOF 5
