REMARK  Name = 4ivc_ligand
REMARK  6 active torsions:
REMARK  status: ('A' for Active; 'I' for Inactive)
REMARK    1  A    between atoms: C1_1  and  C2_2
REMARK    2  A    between atoms: C2_2  and  O4_3
REMARK    3  A    between atoms: C2_2  and  C5_4
REMARK    4  A    between atoms: N6_5  and  C18_16
REMARK    5  A    between atoms: C22_19  and  C26_22
REMARK    6  A    between atoms: C26_22  and  C27_23
REMARK                            x       y       z     vdW  Elec       q    Type
REMARK                         _______ _______ _______ _____ _____    ______ ____
ROOT
ATOM      3  C   UNL     1       8.625  57.516  -0.467  0.00  0.00    +0.152 A 
ATOM      4  N   UNL     1       8.616  58.779  -0.788  0.00  0.00    -0.317 NA
ATOM      5  C   UNL     1       7.445  59.340  -0.402  0.00  0.00    +0.033 A 
ATOM      6  C   UNL     1       6.920  60.633  -0.509  0.00  0.00    +0.061 A 
ATOM      7  N   UNL     1       5.730  60.943  -0.047  0.00  0.00    -0.305 NA
ATOM      8  C   UNL     1       4.974  60.014   0.536  0.00  0.00    +0.120 A 
ATOM      9  N   UNL     1       3.735  60.073   1.075  0.00  0.00    -0.274 N 
ATOM     10  H   UNL     1       3.158  60.925   1.123  0.00  0.00    +0.228 HD
ATOM     11  C   UNL     1       3.349  58.841   1.550  0.00  0.00    +0.113 A 
ATOM     12  C   UNL     1       4.338  57.964   1.358  0.00  0.00    -0.032 A 
ATOM     13  C   UNL     1       5.424  58.686   0.698  0.00  0.00    +0.019 A 
ATOM     14  C   UNL     1       6.691  58.323   0.224  0.00  0.00    +0.089 A 
ATOM     15  N   UNL     1       7.464  57.169   0.160  0.00  0.00    -0.225 N 
ENDROOT
BRANCH  15  16
ATOM     16  C   UNL     1       7.160  55.823   0.661  0.00  0.00    +0.134 C 
ATOM     17  C   UNL     1       5.997  55.207  -0.127  0.00  0.00    +0.036 C 
ATOM     18  C   UNL     1       5.700  53.781   0.347  0.00  0.00    +0.008 C 
ATOM     19  C   UNL     1       5.422  53.758   1.872  0.00  0.00    +0.015 C 
ATOM     23  C   UNL     1       6.508  54.482   2.683  0.00  0.00    +0.008 C 
ATOM     24  C   UNL     1       6.828  55.888   2.163  0.00  0.00    +0.036 C 
BRANCH  19  20
ATOM     20  C   UNL     1       5.325  52.307   2.409  0.00  0.00    +0.187 C 
BRANCH  20  21
ATOM     21  C   UNL     1       4.150  51.655   1.762  0.00  0.00    +0.090 C 
ATOM     22  N   UNL     1       3.254  51.255   1.162  0.00  0.00    -0.304 NA
ENDBRANCH  20  21
ENDBRANCH  19  20
ENDBRANCH  15  16
BRANCH   3   2
ATOM      1  C   UNL     1      10.809  57.162  -1.682  0.00  0.00    +0.065 C 
ATOM      2  C   UNL     1       9.762  56.565  -0.729  0.00  0.00    +0.219 C 
BRANCH   2  25
ATOM     25  O   UNL     1      10.329  56.235   0.545  0.00  0.00    -0.371 OA
ATOM     26  H   UNL     1       9.655  55.870   1.105  0.00  0.00    +0.214 HD
ENDBRANCH   2  25
ENDBRANCH   3   2
TORSDOF 5
