REMARK  Name = 1QHA
REMARK  7 active torsions:
REMARK  status: ('A' for Active; 'I' for Inactive)
REMARK    1  A    between atoms: C_1  and  O_7
REMARK    2  A    between atoms: C_2  and  O_8
REMARK    3  A    between atoms: C_3  and  O_9
REMARK    4  A    between atoms: C_4  and  O_10
REMARK    5  A    between atoms: C_5  and  C_6
REMARK    6  A    between atoms: C_6  and  O_12
REMARK    7  A    between atoms: O_12  and  P_13
REMARK                            x       y       z     vdW  Elec       q    Type
REMARK                         _______ _______ _______ _____ _____    ______ ____
ROOT
ATOM      1  C   UNL     1       0.064 -20.269  44.448  0.00  0.00    +0.279 C 
ATOM      2  O   UNL     1       0.691 -19.698  43.344  0.00  0.00    -0.341 OA
ATOM      3  C   UNL     1       1.999 -20.226  42.978  0.00  0.00    +0.178 C 
ATOM     10  C   UNL     1       2.351 -21.650  43.376  0.00  0.00    +0.177 C 
ATOM     13  C   UNL     1       1.982 -21.881  44.845  0.00  0.00    +0.179 C 
ATOM     18  C   UNL     1       0.442 -21.674  44.858  0.00  0.00    +0.201 C 
ENDROOT
BRANCH  10  11
ATOM     11  O   UNL     1       3.761 -21.878  43.263  0.00  0.00    -0.387 OA
ATOM     12  H   UNL     1       4.276 -21.208  43.886  0.00  0.00    +0.210 HD
ENDBRANCH  10  11
BRANCH  13  14
ATOM     14  O   UNL     1       2.381 -23.140  45.332  0.00  0.00    -0.386 OA
ATOM     15  H   UNL     1       2.057 -23.251  46.325  0.00  0.00    +0.210 HD
ENDBRANCH  13  14
BRANCH   1  16
ATOM     16  O   UNL     1      -1.338 -20.128  44.314  0.00  0.00    -0.365 OA
ATOM     17  H   UNL     1      -1.689 -20.794  43.581  0.00  0.00    +0.213 HD
ENDBRANCH   1  16
BRANCH  18  19
ATOM     19  O   UNL     1      -0.003 -21.983  46.127  0.00  0.00    -0.384 OA
ATOM     20  H   UNL     1       0.420 -21.316  46.819  0.00  0.00    +0.210 HD
ENDBRANCH  18  19
BRANCH   3   4
ATOM      4  C   UNL     1       2.238 -19.936  41.518  0.00  0.00    +0.198 C 
BRANCH   4   5
ATOM      5  O   UNL     1       1.333 -18.826  41.053  0.00  0.00    -0.365 OA
BRANCH   5   6
ATOM      6  P   UNL     1       0.604 -19.273  39.658  0.00  0.00    -0.015 P 
ATOM      7  O   UNL     1       0.570 -20.763  39.622  0.00  0.00    -0.638 OA
ATOM      8  O   UNL     1      -0.775 -18.702  39.639  0.00  0.00    -0.577 OA
ATOM      9  O   UNL     1       1.622 -18.658  38.714  0.00  0.00    -0.577 OA
ENDBRANCH   5   6
ENDBRANCH   4   5
ENDBRANCH   3   4
TORSDOF 7
