REMARK  Name = 1jvp_ligand
REMARK  1 active torsions:
REMARK  status: ('A' for Active; 'I' for Inactive)
REMARK    1  A    between atoms: C6_5  and  C7_6
REMARK                            x       y       z     vdW  Elec       q    Type
REMARK                         _______ _______ _______ _____ _____    ______ ____
ROOT
ATOM      1  N   UNL     1       1.803  32.306   7.312  0.00  0.00    -0.217 N 
ATOM      2  H   UNL     1       2.438  32.783   6.657  0.00  0.00    +0.255 HD
ATOM      3  C   UNL     1       1.907  31.064   7.816  0.00  0.00    +0.101 A 
ATOM     10  C   UNL     1       0.864  30.842   8.618  0.00  0.00    +0.005 A 
ATOM     11  C   UNL     1       0.318  29.709   9.502  0.00  0.00    +0.121 C 
ATOM     12  C   UNL     1      -0.973  30.537  10.007  0.00  0.00    -0.028 A 
ATOM     13  C   UNL     1      -1.967  30.105  10.882  0.00  0.00    -0.004 A 
ATOM     14  C   UNL     1      -3.006  31.007  11.187  0.00  0.00    -0.011 A 
ATOM     15  C   UNL     1      -3.039  32.304  10.624  0.00  0.00    -0.014 A 
ATOM     16  C   UNL     1      -2.032  32.727   9.739  0.00  0.00    -0.003 A 
ATOM     17  C   UNL     1      -1.023  31.810   9.468  0.00  0.00    -0.011 A 
ATOM     18  C   UNL     1       0.168  31.899   8.610  0.00  0.00    +0.048 A 
ATOM     19  N   UNL     1       0.645  32.788   7.881  0.00  0.00    -0.212 NA
ENDROOT
BRANCH   3   4
ATOM      4  C   UNL     1       3.017  30.083   7.516  0.00  0.00    +0.021 A 
ATOM      5  C   UNL     1       4.034  30.422   6.625  0.00  0.00    +0.039 A 
ATOM      6  C   UNL     1       5.055  29.504   6.364  0.00  0.00    +0.087 A 
ATOM      7  N   UNL     1       5.063  28.293   6.965  0.00  0.00    -0.304 NA
ATOM      8  C   UNL     1       4.086  27.947   7.838  0.00  0.00    +0.087 A 
ATOM      9  C   UNL     1       3.044  28.832   8.130  0.00  0.00    +0.039 A 
ENDBRANCH   3   4
TORSDOF 1
