REMARK  Name = 5FEQ
REMARK  12 active torsions:
REMARK  status: ('A' for Active; 'I' for Inactive)
REMARK    1  A    between atoms: C_1  and  N_25
REMARK    2  A    between atoms: C_2  and  C_3
REMARK    3  A    between atoms: C_2  and  N_25
REMARK    4  A    between atoms: C_3  and  C_24
REMARK    5  A    between atoms: O_5  and  C_23
REMARK    6  A    between atoms: C_7  and  C_8
REMARK    7  A    between atoms: C_11  and  C_12
REMARK    8  A    between atoms: C_18  and  C_19
REMARK    9  A    between atoms: C_22  and  N_25
REMARK   10  A    between atoms: C_23  and  C_24
REMARK   11  A    between atoms: C_23  and  N_26
REMARK   12  A    between atoms: C_27  and  N_32
REMARK                            x       y       z     vdW  Elec       q    Type
REMARK                         _______ _______ _______ _____ _____    ______ ____
ROOT
ATOM     14  N   UNL     1     -18.987   0.031  51.133  0.00  0.00    -0.307 N 
ATOM     15  C   UNL     1     -17.607   0.441  51.201  0.00  0.00    +0.073 A 
ATOM     16  C   UNL     1     -16.427   0.120  50.517  0.00  0.00    -0.025 A 
ATOM     17  C   UNL     1     -16.400  -0.871  49.383  0.00  0.00    +0.046 C 
ATOM     18  C   UNL     1     -15.241   0.723  50.937  0.00  0.00    +0.005 A 
ATOM     19  C   UNL     1     -15.211   1.598  52.009  0.00  0.00    +0.002 A 
ATOM     20  C   UNL     1     -16.376   1.928  52.680  0.00  0.00    +0.030 A 
ATOM     21  C   UNL     1     -17.584   1.364  52.271  0.00  0.00    +0.091 A 
ATOM     22  N   UNL     1     -18.835   1.591  52.837  0.00  0.00    -0.214 NA
ATOM     23  C   UNL     1     -19.649   0.800  52.174  0.00  0.00    +0.203 A 
ATOM     24  N   UNL     1     -21.043   0.629  52.528  0.00  0.00    -0.252 N 
ATOM     25  H   UNL     1     -21.601  -0.134  52.027  0.00  0.00    +0.158 HD
ATOM     26  C   UNL     1     -21.692   1.395  53.476  0.00  0.00    +0.251 C 
ATOM     34  O   UNL     1     -21.139   2.333  54.057  0.00  0.00    -0.270 OA
ENDROOT
BRANCH  14  13
ATOM      8  N   UNL     1     -19.933  -3.591  50.684  0.00  0.00    -0.270 NA
ATOM      9  C   UNL     1     -21.376  -3.849  50.533  0.00  0.00    +0.087 C 
ATOM     10  C   UNL     1     -22.128  -3.009  49.487  0.00  0.00    +0.016 C 
ATOM     11  C   UNL     1     -21.498  -1.809  48.769  0.00  0.00    +0.003 C 
ATOM     12  C   UNL     1     -20.922  -0.718  49.658  0.00  0.00    +0.026 C 
ATOM     13  C   UNL     1     -19.550  -1.038  50.288  0.00  0.00    +0.105 C 
ATOM     35  C   UNL     1     -19.502  -2.290  51.199  0.00  0.00    +0.112 C 
BRANCH   8   7
ATOM      7  C   UNL     1     -18.977  -4.548  50.571  0.00  0.00    +0.163 C 
BRANCH   7  36
ATOM     36  O   UNL     1     -17.976  -4.563  51.288  0.00  0.00    -0.370 OA
ATOM     37  H   UNL     1     -18.013  -5.397  51.925  0.00  0.00    +0.212 HD
ENDBRANCH   7  36
BRANCH   7   6
ATOM      6  C   UNL     1     -19.233  -5.718  49.649  0.00  0.00    +0.057 C 
BRANCH   6   5
ATOM      5  C   UNL     1     -18.841  -7.050  50.313  0.00  0.00    +0.020 C 
BRANCH   5   4
ATOM      4  C   UNL     1     -18.085  -7.997  49.401  0.00  0.00    +0.084 C 
BRANCH   4   2
ATOM      1  C   UNL     1     -17.525  -7.758  47.096  0.00  0.00    +0.104 C 
ATOM      2  N   UNL     1     -18.600  -8.051  48.044  0.00  0.00    -0.308 NA
ATOM      3  C   UNL     1     -19.168  -9.371  47.775  0.00  0.00    +0.104 C 
ENDBRANCH   4   2
ENDBRANCH   5   4
ENDBRANCH   6   5
ENDBRANCH   7   6
ENDBRANCH   8   7
ENDBRANCH  14  13
BRANCH  26  27
ATOM     27  C   UNL     1     -23.131   1.066  53.738  0.00  0.00    +0.040 A 
ATOM     28  C   UNL     1     -23.876   0.217  52.922  0.00  0.00    +0.036 A 
ATOM     29  C   UNL     1     -25.170  -0.125  53.303  0.00  0.00    +0.039 A 
ATOM     30  N   UNL     1     -25.743   0.350  54.431  0.00  0.00    -0.260 NA
ATOM     31  C   UNL     1     -25.017   1.189  55.188  0.00  0.00    +0.112 A 
ATOM     32  C   UNL     1     -26.001  -1.061  52.480  0.00  0.00    +0.065 C 
ATOM     33  C   UNL     1     -23.727   1.572  54.888  0.00  0.00    +0.033 A 
ENDBRANCH  26  27
TORSDOF 8
