REMARK  Name = 5IEV
REMARK  10 active torsions:
REMARK  status: ('A' for Active; 'I' for Inactive)
REMARK    1  A    between atoms: C_1  and  C_22
REMARK    2  A    between atoms: C_2  and  O_26
REMARK    3  A    between atoms: C_6  and  S_13
REMARK    4  A    between atoms: C_8  and  S_13
REMARK    5  A    between atoms: C_10  and  C_11
REMARK    6  A    between atoms: C_10  and  C_27
REMARK    7  A    between atoms: C_10  and  O_29
REMARK    8  A    between atoms: C_18  and  N_19
REMARK    9  A    between atoms: O_26  and  C_27
REMARK   10  A    between atoms: C_27  and  C_28
REMARK                            x       y       z     vdW  Elec       q    Type
REMARK                         _______ _______ _______ _____ _____    ______ ____
ROOT
ATOM      1  C   UNL     1     -13.765  -9.363 -13.932  0.00  0.00    +0.132 A 
ATOM      6  C   UNL     1     -12.996 -10.216 -14.728  0.00  0.00    +0.103 A 
ATOM      7  N   UNL     1     -11.882 -10.737 -14.262  0.00  0.00    -0.330 N 
ATOM      8  H   UNL     1     -11.340 -11.440 -14.860  0.00  0.00    +0.168 HD
ATOM      9  C   UNL     1     -11.409 -10.401 -13.041  0.00  0.00    +0.232 A 
ATOM     10  N   UNL     1     -12.142  -9.622 -12.256  0.00  0.00    -0.177 NA
ATOM     11  N   UNL     1     -10.280 -10.961 -12.611  0.00  0.00    -0.213 NA
ATOM     25  C   UNL     1     -13.319  -9.085 -12.652  0.00  0.00    +0.232 A 
ENDROOT
BRANCH  11  12
ATOM     12  C   UNL     1      -9.645 -10.796 -11.445  0.00  0.00    +0.068 A 
ATOM     13  C   UNL     1      -8.568 -11.667 -11.225  0.00  0.00    +0.029 A 
ATOM     14  C   UNL     1      -7.777 -11.606 -10.098  0.00  0.00    +0.020 A 
ATOM     15  C   UNL     1      -8.100 -10.661  -9.154  0.00  0.00    +0.048 A 
ATOM     16  C   UNL     1      -9.156  -9.777  -9.329  0.00  0.00    +0.020 A 
ATOM     24  C   UNL     1      -9.929  -9.828 -10.477  0.00  0.00    +0.029 A 
BRANCH  15  17
ATOM     17  S   UNL     1      -7.143 -10.539  -7.724  0.00  0.00    +0.077 S 
ATOM     18  O   UNL     1      -6.039  -9.618  -8.081  0.00  0.00    -0.242 OA
ATOM     19  N   UNL     1      -7.983  -9.799  -6.597  0.00  0.00    -0.248 NA
ATOM     20  H   UNL     1      -7.552  -9.630  -5.632  0.00  0.00    +0.197 HD
BRANCH  17  21
ATOM     21  C   UNL     1      -6.378 -12.045  -7.070  0.00  0.00    +0.092 C 
ATOM     22  C   UNL     1      -6.631 -12.141  -5.570  0.00  0.00    +0.019 C 
ATOM     23  C   UNL     1      -7.269 -13.181  -6.496  0.00  0.00    +0.019 C 
ENDBRANCH  17  21
ENDBRANCH  15  17
ENDBRANCH  11  12
BRANCH   1   2
ATOM      2  C   UNL     1     -15.074  -8.820 -14.471  0.00  0.00    +0.424 C 
ATOM      3  F   UNL     1     -15.159  -7.483 -14.275  0.00  0.00    -0.166 F 
ATOM      4  F   UNL     1     -16.075  -9.322 -13.800  0.00  0.00    -0.166 F 
ATOM      5  F   UNL     1     -15.191  -9.207 -15.804  0.00  0.00    -0.166 F 
ENDBRANCH   1   2
BRANCH  25  26
ATOM     26  O   UNL     1     -14.025  -8.276 -11.782  0.00  0.00    -0.470 OA
BRANCH  26  27
ATOM     27  C   UNL     1     -13.271  -7.690 -10.781  0.00  0.00    +0.200 C 
ATOM     28  C   UNL     1     -13.582  -8.488  -9.516  0.00  0.00    +0.054 C 
BRANCH  27  29
ATOM     29  C   UNL     1     -13.890  -6.276 -10.588  0.00  0.00    +0.152 C 
ATOM     32  C   UNL     1     -13.683  -5.420 -11.812  0.00  0.00    +0.041 C 
BRANCH  29  30
ATOM     30  O   UNL     1     -15.278  -6.468 -10.296  0.00  0.00    -0.388 OA
ATOM     31  H   UNL     1     -15.732  -5.537 -10.125  0.00  0.00    +0.210 HD
ENDBRANCH  29  30
ENDBRANCH  27  29
ENDBRANCH  26  27
ENDBRANCH  25  26
TORSDOF 8
