REMARK  Name = A5K
REMARK  1 active torsions:
REMARK  status: ('A' for Active; 'I' for Inactive)
REMARK    1  A    between atoms: C1_10  and  C_12
REMARK                            x       y       z     vdW  Elec       q    Type
REMARK                         _______ _______ _______ _____ _____    ______ ____
ROOT
ATOM      1  C   UNL     1       0.023  29.225 -22.091  0.00  0.00    +0.020 A 
ATOM      2  C   UNL     1       1.039  28.312 -21.885  0.00  0.00    +0.091 A 
ATOM      7  C   UNL     1       2.182  28.444 -22.648  0.00  0.00    +0.104 A 
ATOM      8  N   UNL     1       2.357  29.400 -23.573  0.00  0.00    -0.228 NA
ATOM      9  C   UNL     1       1.383  30.288 -23.765  0.00  0.00    +0.142 A 
ATOM     10  N   UNL     1       1.594  31.234 -24.700  0.00  0.00    -0.291 N 
ATOM     11  C   UNL     1       1.642  32.656 -24.372  0.00  0.00    +0.111 C 
ATOM     12  C   UNL     1       0.657  33.473 -25.208  0.00  0.00    +0.110 C 
ATOM     13  N   UNL     1      -0.548  32.733 -25.586  0.00  0.00    -0.216 NA
ATOM     14  C   UNL     1      -0.426  32.055 -26.878  0.00  0.00    +0.090 C 
ATOM     15  C   UNL     1       0.351  30.754 -26.782  0.00  0.00    +0.040 C 
ATOM     16  C   UNL     1       1.716  30.879 -26.110  0.00  0.00    +0.094 C 
ATOM     17  C   UNL     1       0.186  30.220 -23.021  0.00  0.00    +0.089 A 
ATOM     18 CL   UNL     1      -1.100  31.352 -23.286  0.00  0.00    -0.079 Cl
ENDROOT
BRANCH   2   3
ATOM      3  C   UNL     1       0.913  27.224 -20.879  0.00  0.00    +0.420 C 
ATOM      4  F   UNL     1       0.154  27.574 -19.829  0.00  0.00    -0.166 F 
ATOM      5  F   UNL     1       2.094  26.846 -20.375  0.00  0.00    -0.166 F 
ATOM      6  F   UNL     1       0.354  26.116 -21.383  0.00  0.00    -0.166 F 
ENDBRANCH   2   3
TORSDOF 1
