REMARK  Name = 3a4p_ligand
REMARK  7 active torsions:
REMARK  status: ('A' for Active; 'I' for Inactive)
REMARK    1  A    between atoms: C1_1  and  N2_2
REMARK    2  A    between atoms: C4_3  and  C6_5
REMARK    3  A    between atoms: C7_6  and  C8_7
REMARK    4  A    between atoms: C17_16  and  O18_17
REMARK    5  A    between atoms: O18_17  and  C19_18
REMARK    6  A    between atoms: C19_18  and  C20_19
REMARK    7  A    between atoms: C19_18  and  C21_20
REMARK                            x       y       z     vdW  Elec       q    Type
REMARK                         _______ _______ _______ _____ _____    ______ ____
ROOT
ATOM      7  C   UNL     1     -21.733 -20.937   1.106  0.00  0.00    +0.011 A 
ATOM      8  C   UNL     1     -21.949 -22.298   1.309  0.00  0.00    +0.104 A 
ATOM      9  N   UNL     1     -21.433 -22.974   2.330  0.00  0.00    -0.297 NA
ATOM     10  C   UNL     1     -20.678 -22.383   3.249  0.00  0.00    +0.042 A 
ATOM     11  C   UNL     1     -20.137 -23.141   4.290  0.00  0.00    +0.024 A 
ATOM     12  C   UNL     1     -19.370 -22.502   5.256  0.00  0.00    +0.042 A 
ATOM     13  C   UNL     1     -19.101 -21.140   5.155  0.00  0.00    +0.102 A 
ATOM     26  C   UNL     1     -19.636 -20.377   4.083  0.00  0.00    +0.034 A 
ATOM     27  C   UNL     1     -20.429 -21.012   3.135  0.00  0.00    -0.000 A 
ATOM     28  C   UNL     1     -20.973 -20.293   2.091  0.00  0.00    +0.048 A 
ENDROOT
BRANCH   7   6
ATOM      5  C   UNL     1     -23.580 -20.557  -0.426  0.00  0.00    +0.080 C 
ATOM      6  C   UNL     1     -22.323 -20.179   0.065  0.00  0.00    +0.042 C 
BRANCH   5   4
ATOM      1  C   UNL     1     -26.488 -19.753  -2.578  0.00  0.00    +0.163 C 
ATOM      2  N   UNL     1     -25.506 -20.383  -1.695  0.00  0.00    -0.291 N 
ATOM      3  H   UNL     1     -25.695 -21.329  -1.363  0.00  0.00    +0.183 HD
ATOM      4  C   UNL     1     -24.370 -19.787  -1.297  0.00  0.00    +0.193 C 
ATOM     29  O   UNL     1     -23.999 -18.660  -1.649  0.00  0.00    -0.390 OA
ENDBRANCH   5   4
ENDBRANCH   7   6
BRANCH  13  14
ATOM     14  O   UNL     1     -18.302 -20.596   6.121  0.00  0.00    -0.299 OA
BRANCH  14  15
ATOM     15  C   UNL     1     -17.812 -19.166   6.124  0.00  0.00    +0.195 C 
ATOM     25  C   UNL     1     -16.448 -19.080   6.866  0.00  0.00    +0.060 C 
BRANCH  15  16
ATOM     16  C   UNL     1     -18.965 -18.324   6.733  0.00  0.00    +0.016 A 
ATOM     17  C   UNL     1     -19.348 -17.166   6.085  0.00  0.00    +0.040 A 
ATOM     18 CL   UNL     1     -18.532 -16.687   4.671  0.00  0.00    -0.081 Cl
ATOM     19  C   UNL     1     -20.374 -16.354   6.542  0.00  0.00    +0.004 A 
ATOM     20  C   UNL     1     -21.070 -16.685   7.692  0.00  0.00    +0.021 A 
ATOM     21  C   UNL     1     -20.735 -17.851   8.366  0.00  0.00    +0.140 A 
ATOM     22  F   UNL     1     -21.438 -18.169   9.476  0.00  0.00    -0.184 F 
ATOM     23  C   UNL     1     -19.694 -18.678   7.893  0.00  0.00    +0.077 A 
ATOM     24 CL   UNL     1     -19.351 -20.089   8.832  0.00  0.00    -0.079 Cl
ENDBRANCH  15  16
ENDBRANCH  14  15
ENDBRANCH  13  14
TORSDOF 5
