REMARK  Name = D6W
REMARK  4 active torsions:
REMARK  status: ('A' for Active; 'I' for Inactive)
REMARK    1  A    between atoms: C20_8  and  C18_23
REMARK    2  A    between atoms: N7_17  and  C12_20
REMARK    3  A    between atoms: N9_18  and  C29_29
REMARK    4  A    between atoms: C29_29  and  C30_30
REMARK                            x       y       z     vdW  Elec       q    Type
REMARK                         _______ _______ _______ _____ _____    ______ ____
ROOT
ATOM      1  C   UNL     1      22.114  -1.624  -0.768  0.00  0.00    +0.049 C 
ATOM      2  C   UNL     1      23.275  -2.079   0.126  0.00  0.00    +0.131 C 
ATOM      3  C   UNL     1      22.991  -1.922   1.638  0.00  0.00    +0.049 C 
ATOM      4  C   UNL     1      21.606  -2.437   2.058  0.00  0.00    +0.096 C 
ATOM      5  N   UNL     1      20.666  -1.707   1.212  0.00  0.00    -0.276 N 
ATOM      6  C   UNL     1      19.748  -0.792   1.740  0.00  0.00    +0.249 C 
ATOM      7  O   UNL     1      19.621  -0.673   2.963  0.00  0.00    -0.270 OA
ATOM     17  C   UNL     1      23.603  -3.544  -0.186  0.00  0.00    +0.243 C 
ATOM     18  O   UNL     1      22.864  -4.505  -0.138  0.00  0.00    -0.273 OA
ATOM     19  N   UNL     1      24.956  -3.638  -0.579  0.00  0.00    -0.252 N 
ATOM     20  C   UNL     1      25.639  -2.318  -0.630  0.00  0.00    +0.191 C 
ATOM     26  N   UNL     1      24.528  -1.366  -0.312  0.00  0.00    -0.286 N 
ATOM     33  C   UNL     1      20.772  -2.117  -0.213  0.00  0.00    +0.096 C 
ENDROOT
BRANCH   6   8
ATOM      8  C   UNL     1      18.859  -0.005   0.874  0.00  0.00    +0.054 A 
ATOM      9  C   UNL     1      17.469  -0.031   1.197  0.00  0.00    +0.006 A 
ATOM     10  C   UNL     1      16.557   0.719   0.468  0.00  0.00    +0.021 A 
ATOM     11  C   UNL     1      17.088   1.477  -0.604  0.00  0.00    +0.104 A 
ATOM     12  C   UNL     1      18.462   1.491  -0.911  0.00  0.00    +0.041 A 
ATOM     13  C   UNL     1      18.609   2.335  -2.071  0.00  0.00    +0.124 A 
ATOM     14  N   UNL     1      17.404   2.798  -2.446  0.00  0.00    -0.146 NA
ATOM     15  N   UNL     1      16.489   2.296  -1.568  0.00  0.00    -0.148 NA
ATOM     16  C   UNL     1      19.363   0.744  -0.154  0.00  0.00    +0.008 A 
ENDBRANCH   6   8
BRANCH  26  27
ATOM     27  C   UNL     1      24.804   0.054  -0.277  0.00  0.00    +0.049 A 
ATOM     28  C   UNL     1      23.878   0.945   0.270  0.00  0.00    +0.015 A 
ATOM     29  C   UNL     1      24.137   2.318   0.291  0.00  0.00    +0.001 A 
ATOM     30  C   UNL     1      25.308   2.811  -0.245  0.00  0.00    +0.000 A 
ATOM     31  C   UNL     1      26.231   1.926  -0.798  0.00  0.00    +0.001 A 
ATOM     32  C   UNL     1      25.986   0.554  -0.809  0.00  0.00    +0.015 A 
ENDBRANCH  26  27
BRANCH  19  21
ATOM     21  C   UNL     1      25.605  -4.866  -1.050  0.00  0.00    +0.182 C 
BRANCH  21  22
ATOM     22  C   UNL     1      25.289  -5.079  -2.532  0.00  0.00    +0.262 C 
ATOM     23  O   UNL     1      24.472  -4.410  -3.130  0.00  0.00    -0.272 OA
ATOM     24  N   UNL     1      25.955  -6.073  -3.174  0.00  0.00    -0.202 NA
ATOM     25  C   UNL     1      25.640  -6.264  -4.591  0.00  0.00    +0.139 C 
ENDBRANCH  21  22
ENDBRANCH  19  21
TORSDOF 4
