REMARK  Name = 5KUP
REMARK  11 active torsions:
REMARK  status: ('A' for Active; 'I' for Inactive)
REMARK    1  A    between atoms: C_1  and  C_11
REMARK    2  A    between atoms: C_3  and  C_11
REMARK    3  A    between atoms: C_9  and  C_11
REMARK    4  A    between atoms: C_10  and  C_11
REMARK    5  A    between atoms: N_13  and  C_17
REMARK    6  A    between atoms: C_18  and  C_38
REMARK    7  A    between atoms: C_19  and  C_23
REMARK    8  A    between atoms: C_25  and  N_31
REMARK    9  A    between atoms: N_28  and  C_30
REMARK   10  A    between atoms: N_31  and  C_32
REMARK   11  A    between atoms: C_38  and  O_39
REMARK                            x       y       z     vdW  Elec       q    Type
REMARK                         _______ _______ _______ _____ _____    ______ ____
ROOT
ATOM     14  C   UNL     1     -40.560  27.789  -7.762  0.00  0.00    +0.164 A 
ATOM     15  N   UNL     1     -41.468  28.100  -8.658  0.00  0.00    -0.236 NA
ATOM     16  C   UNL     1     -41.109  28.450  -9.877  0.00  0.00    +0.114 A 
ATOM     17  C   UNL     1     -39.772  28.481 -10.242  0.00  0.00    +0.029 A 
ATOM     18  C   UNL     1     -38.766  28.138  -9.328  0.00  0.00    -0.006 A 
ATOM     35  C   UNL     1     -39.193  27.788  -8.039  0.00  0.00    +0.030 A 
ENDROOT
BRANCH  14  13
ATOM      5  C   UNL     1     -41.768  26.725  -1.577  0.00  0.00    -0.039 A 
ATOM      6  C   UNL     1     -41.497  28.083  -1.702  0.00  0.00    +0.043 A 
ATOM      7  C   UNL     1     -41.243  28.623  -2.954  0.00  0.00    +0.137 A 
ATOM      8  F   UNL     1     -40.957  29.938  -3.041  0.00  0.00    -0.205 F 
ATOM      9  C   UNL     1     -41.297  27.844  -4.115  0.00  0.00    +0.085 A 
ATOM     10  C   UNL     1     -41.556  26.469  -3.971  0.00  0.00    +0.010 A 
ATOM     11  C   UNL     1     -41.563  25.608  -5.140  0.00  0.00    +0.142 C 
ATOM     12  N   UNL     1     -41.242  26.080  -6.294  0.00  0.00    -0.170 NA
ATOM     13  N   UNL     1     -40.930  27.424  -6.466  0.00  0.00    -0.177 N 
ATOM     39  C   UNL     1     -40.985  28.331  -5.465  0.00  0.00    +0.284 C 
ATOM     40  O   UNL     1     -40.715  29.521  -5.669  0.00  0.00    -0.265 OA
ATOM     41  C   UNL     1     -41.798  25.930  -2.701  0.00  0.00    +0.014 A 
BRANCH   5   2
ATOM      1  C   UNL     1     -42.091  27.158   0.855  0.00  0.00    +0.015 C 
ATOM      2  C   UNL     1     -42.045  26.090  -0.234  0.00  0.00    -0.013 C 
ATOM      3  C   UNL     1     -40.921  25.091   0.071  0.00  0.00    +0.015 C 
ATOM      4  C   UNL     1     -43.380  25.336  -0.246  0.00  0.00    +0.015 C 
ENDBRANCH   5   2
ENDBRANCH  14  13
BRANCH  18  19
ATOM     19  C   UNL     1     -37.342  28.217  -9.777  0.00  0.00    +0.001 C 
ATOM     20  C   UNL     1     -36.401  28.855  -9.004  0.00  0.00    +0.097 C 
ATOM     21  N   UNL     1     -35.102  28.985  -9.378  0.00  0.00    -0.316 N 
ATOM     22  C   UNL     1     -34.130  29.643  -8.495  0.00  0.00    +0.152 C 
ATOM     23  C   UNL     1     -34.673  28.510 -10.550  0.00  0.00    +0.272 C 
ATOM     24  O   UNL     1     -33.499  28.643 -10.890  0.00  0.00    -0.266 OA
ATOM     25  C   UNL     1     -35.588  27.850 -11.398  0.00  0.00    +0.098 C 
ATOM     34  C   UNL     1     -36.911  27.700 -11.021  0.00  0.00    +0.038 C 
BRANCH  25  26
ATOM     26  N   UNL     1     -35.019  27.371 -12.597  0.00  0.00    -0.295 N 
ATOM     27  H   UNL     1     -33.950  27.324 -12.628  0.00  0.00    +0.154 HD
BRANCH  26  28
ATOM     28  C   UNL     1     -35.683  26.956 -13.735  0.00  0.00    +0.126 A 
ATOM     29  N   UNL     1     -37.003  26.841 -13.802  0.00  0.00    -0.221 NA
ATOM     30  C   UNL     1     -37.589  26.449 -14.918  0.00  0.00    +0.223 A 
ATOM     31  N   UNL     1     -36.891  26.147 -15.991  0.00  0.00    -0.244 NA
ATOM     32  C   UNL     1     -35.563  26.228 -15.991  0.00  0.00    +0.116 A 
ATOM     33  C   UNL     1     -34.911  26.649 -14.853  0.00  0.00    +0.063 A 
ENDBRANCH  26  28
ENDBRANCH  25  26
ENDBRANCH  18  19
BRANCH  35  36
ATOM     36  C   UNL     1     -38.215  27.331  -6.983  0.00  0.00    +0.195 C 
BRANCH  36  37
ATOM     37  O   UNL     1     -37.785  28.351  -6.098  0.00  0.00    -0.390 OA
ATOM     38  H   UNL     1     -37.310  29.112  -6.644  0.00  0.00    +0.210 HD
ENDBRANCH  36  37
ENDBRANCH  35  36
TORSDOF 7
