REMARK  Name = 4bcn_ligand
REMARK  6 active torsions:
REMARK  status: ('A' for Active; 'I' for Inactive)
REMARK    1  A    between atoms: C01_1  and  N02_2
REMARK    2  A    between atoms: C05_5  and  C06_6
REMARK    3  A    between atoms: C07_7  and  C08_8
REMARK    4  A    between atoms: N11_11  and  C12_12
REMARK    5  A    between atoms: C14_14  and  O15_15
REMARK    6  A    between atoms: C21_21  and  C22_22
REMARK                            x       y       z     vdW  Elec       q    Type
REMARK                         _______ _______ _______ _____ _____    ______ ____
ROOT
ATOM      7  C   UNL     1      33.688 -14.900  30.393  0.00  0.00    +0.084 A 
ATOM      8  C   UNL     1      33.880 -14.057  29.278  0.00  0.00    +0.136 A 
ATOM     11  C   UNL     1      33.726 -14.736  28.049  0.00  0.00    +0.141 A 
ATOM     12  N   UNL     1      33.435 -16.046  27.946  0.00  0.00    -0.246 NA
ATOM     13  C   UNL     1      33.253 -16.861  28.967  0.00  0.00    +0.213 A 
ATOM     14  N   UNL     1      32.996 -18.268  28.845  0.00  0.00    -0.240 N 
ATOM     15  H   UNL     1      32.430 -18.616  28.058  0.00  0.00    +0.221 HD
ATOM     24  N   UNL     1      33.394 -16.216  30.157  0.00  0.00    -0.237 NA
ENDROOT
BRANCH   7   6
ATOM      1  C   UNL     1      37.110 -13.532  35.122  0.00  0.00    +0.174 C 
ATOM      2  N   UNL     1      36.668 -14.616  34.298  0.00  0.00    -0.283 N 
ATOM      3  H   UNL     1      37.217 -15.464  34.097  0.00  0.00    +0.194 HD
ATOM      4  C   UNL     1      35.348 -14.351  33.791  0.00  0.00    +0.160 C 
ATOM      5  S   UNL     1      34.290 -15.537  33.126  0.00  0.00    -0.007 S 
ATOM      6  C   UNL     1      33.774 -14.463  31.827  0.00  0.00    +0.164 C 
ATOM     25  C   UNL     1      33.922 -13.135  32.407  0.00  0.00    +0.052 C 
ATOM     26  C   UNL     1      33.052 -11.964  32.069  0.00  0.00    +0.016 C 
ATOM     27  N   UNL     1      34.809 -13.160  33.492  0.00  0.00    -0.358 NA
ENDBRANCH   7   6
BRANCH  14  16
ATOM     16  C   UNL     1      33.524 -19.202  29.816  0.00  0.00    +0.059 A 
ATOM     17  C   UNL     1      33.129 -20.650  29.737  0.00  0.00    -0.004 A 
ATOM     18  C   UNL     1      33.612 -21.548  30.661  0.00  0.00    -0.023 A 
ATOM     19  C   UNL     1      34.527 -21.095  31.738  0.00  0.00    +0.001 A 
ATOM     20  C   UNL     1      34.890 -19.786  31.818  0.00  0.00    +0.079 A 
ATOM     23  C   UNL     1      34.360 -18.793  30.803  0.00  0.00    +0.036 A 
BRANCH  20  21
ATOM     21  O   UNL     1      35.740 -19.375  32.818  0.00  0.00    -0.336 OA
ATOM     22  H   UNL     1      35.973 -20.120  33.360  0.00  0.00    +0.248 HD
ENDBRANCH  20  21
ENDBRANCH  14  16
BRANCH   8   9
ATOM      9  C   UNL     1      34.232 -12.611  29.342  0.00  0.00    +0.097 C 
ATOM     10  N   UNL     1      34.497 -11.503  29.369  0.00  0.00    -0.338 NA
ENDBRANCH   8   9
TORSDOF 4
