REMARK  Name = 5NK4
REMARK  12 active torsions:
REMARK  status: ('A' for Active; 'I' for Inactive)
REMARK    1  A    between atoms: C_8  and  N_9
REMARK    2  A    between atoms: C_10  and  C_12
REMARK    3  A    between atoms: C_17  and  N_18
REMARK    4  A    between atoms: C_23  and  C_24
REMARK    5  A    between atoms: N_26  and  C_27
REMARK    6  A    between atoms: C_33  and  C_34
REMARK    7  A    between atoms: C_42  and  N_43
REMARK    8  A    between atoms: C_44  and  C_46
REMARK    9  A    between atoms: C_51  and  N_52
REMARK   10  A    between atoms: C_57  and  C_58
REMARK   11  A    between atoms: N_60  and  C_61
REMARK   12  A    between atoms: C_67  and  C_68
REMARK                            x       y       z     vdW  Elec       q    Type
REMARK                         _______ _______ _______ _____ _____    ______ ____
ROOT
ATOM      7  C   UNL     1     -83.721 -10.971   7.073  0.00  0.00    +0.039 A 
ATOM      8  C   UNL     1     -82.729 -11.137   6.113  0.00  0.00    +0.013 A 
ATOM      9  C   UNL     1     -83.119 -11.382   4.795  0.00  0.00    +0.003 A 
ATOM     10  C   UNL     1     -84.466 -11.462   4.438  0.00  0.00    +0.023 A 
ATOM     11  C   UNL     1     -85.454 -11.318   5.410  0.00  0.00    +0.034 A 
ATOM     31  C   UNL     1     -85.056 -11.068   6.711  0.00  0.00    +0.036 A 
ENDROOT
BRANCH  11  12
ATOM     12  N   UNL     1     -86.746 -11.379   5.049  0.00  0.00    -0.294 N 
ATOM     13  H   UNL     1     -87.011 -10.999   4.084  0.00  0.00    +0.154 HD
ATOM     14  C   UNL     1     -87.735 -11.886   5.818  0.00  0.00    +0.163 A 
ATOM     15  N   UNL     1     -89.013 -11.864   5.413  0.00  0.00    -0.232 NA
ATOM     16  C   UNL     1     -89.904 -12.421   6.275  0.00  0.00    +0.133 A 
ATOM     17  C   UNL     1     -89.369 -12.906   7.415  0.00  0.00    +0.095 A 
ATOM     30  S   UNL     1     -87.679 -12.635   7.357  0.00  0.00    -0.048 S 
BRANCH  17  18
ATOM     18  C   UNL     1     -90.002 -13.531   8.441  0.00  0.00    +0.257 C 
ATOM     19  N   UNL     1     -91.297 -13.933   8.265  0.00  0.00    -0.280 N 
ATOM     20  H   UNL     1     -91.789 -13.736   7.335  0.00  0.00    +0.155 HD
ATOM     29  O   UNL     1     -89.365 -13.783   9.463  0.00  0.00    -0.269 OA
BRANCH  19  21
ATOM     21  C   UNL     1     -91.973 -14.583   9.261  0.00  0.00    +0.055 A 
ATOM     22  C   UNL     1     -92.196 -15.960   9.173  0.00  0.00    -0.028 A 
ATOM     23  C   UNL     1     -91.721 -16.703   8.093  0.00  0.00    +0.045 C 
ATOM     24  C   UNL     1     -92.903 -16.620  10.175  0.00  0.00    +0.005 A 
ATOM     25  C   UNL     1     -93.394 -15.914  11.269  0.00  0.00    +0.002 A 
ATOM     26  C   UNL     1     -93.183 -14.541  11.354  0.00  0.00    +0.022 A 
ATOM     27  C   UNL     1     -92.480 -13.875  10.351  0.00  0.00    +0.062 A 
ATOM     28 CL   UNL     1     -92.258 -12.199  10.501  0.00  0.00    -0.082 Cl
ENDBRANCH  19  21
ENDBRANCH  17  18
ENDBRANCH  11  12
BRANCH   7   6
ATOM      4  N   UNL     1     -84.212 -11.601   9.144  0.00  0.00    -0.303 N 
ATOM      5  H   UNL     1     -84.749 -12.339   8.586  0.00  0.00    +0.149 HD
ATOM      6  C   UNL     1     -83.512 -10.726   8.418  0.00  0.00    +0.245 C 
ATOM     32  O   UNL     1     -82.878  -9.751   8.829  0.00  0.00    -0.270 OA
BRANCH   4   3
ATOM      1  F   UNL     1     -86.025 -13.227  10.181  0.00  0.00    -0.202 F 
ATOM      2  C   UNL     1     -84.879 -13.085  10.839  0.00  0.00    +0.279 C 
ATOM      3  C   UNL     1     -84.345 -11.689  10.596  0.00  0.00    +0.145 C 
ATOM     33  C   UNL     1     -83.022 -11.526  11.307  0.00  0.00    +0.043 C 
ATOM     34  C   UNL     1     -83.250 -11.770  12.788  0.00  0.00    +0.083 C 
ATOM     35  N   UNL     1     -83.760 -13.133  13.020  0.00  0.00    -0.311 NA
ATOM     36  H   UNL     1     -83.052 -13.844  12.648  0.00  0.00    +0.122 HD
ATOM     37  C   UNL     1     -85.045 -13.318  12.326  0.00  0.00    +0.158 C 
ATOM     38  F   UNL     1     -84.031 -13.981  10.306  0.00  0.00    -0.202 F 
ENDBRANCH   4   3
ENDBRANCH   7   6
TORSDOF 5
