REMARK  Name = 4N0S
REMARK  4 active torsions:
REMARK  status: ('A' for Active; 'I' for Inactive)
REMARK    1  A    between atoms: C_1  and  C_3
REMARK    2  A    between atoms: C_4  and  C_5
REMARK    3  A    between atoms: C_7  and  O_12
REMARK    4  A    between atoms: C_8  and  O_11
REMARK                            x       y       z     vdW  Elec       q    Type
REMARK                         _______ _______ _______ _____ _____    ______ ____
ROOT
ATOM      5  C   UNL     1     -15.244  13.116  40.999  0.00  0.00    -0.021 A 
ATOM      6  C   UNL     1     -16.427  13.451  41.658  0.00  0.00    +0.012 A 
ATOM      7  C   UNL     1     -17.506  12.588  41.671  0.00  0.00    +0.050 A 
ATOM      8  C   UNL     1     -17.402  11.362  41.019  0.00  0.00    +0.158 A 
ATOM     11  C   UNL     1     -16.223  11.013  40.358  0.00  0.00    +0.159 A 
ATOM     14  C   UNL     1     -15.136  11.888  40.347  0.00  0.00    +0.057 A 
ENDROOT
BRANCH   5   4
ATOM      3  C   UNL     1     -13.382  14.387  39.980  0.00  0.00    +0.025 C 
ATOM      4  C   UNL     1     -14.123  14.052  41.018  0.00  0.00    +0.010 C 
BRANCH   3   1
ATOM      1  C   UNL     1     -12.124  15.245  40.151  0.00  0.00    +0.065 C 
ATOM      2  O   UNL     1     -12.195  16.213  40.934  0.00  0.00    -0.545 OA
ATOM     15  O   UNL     1     -11.127  14.897  39.483  0.00  0.00    -0.545 OA
ENDBRANCH   3   1
ENDBRANCH   5   4
BRANCH   8   9
ATOM      9  O   UNL     1     -18.425  10.487  41.001  0.00  0.00    -0.503 OA
ATOM     10  H   UNL     1     -18.053   9.648  40.724  0.00  0.00    +0.292 HD
ENDBRANCH   8   9
BRANCH  11  12
ATOM     12  O   UNL     1     -16.146   9.809  39.724  0.00  0.00    -0.503 OA
ATOM     13  H   UNL     1     -15.339   9.408  40.055  0.00  0.00    +0.292 HD
ENDBRANCH  11  12
TORSDOF 4
