REMARK  Name = 3BKB
REMARK  5 active torsions:
REMARK  status: ('A' for Active; 'I' for Inactive)
REMARK    1  A    between atoms: C_4  and  N_34
REMARK    2  A    between atoms: C_5  and  O_32
REMARK    3  A    between atoms: C_6  and  C_7
REMARK    4  A    between atoms: O_32  and  C_33
REMARK    5  A    between atoms: N_34  and  C_35
REMARK                            x       y       z     vdW  Elec       q    Type
REMARK                         _______ _______ _______ _____ _____    ______ ____
ROOT
ATOM      1  O   UNL     1      16.620  31.165  57.825  0.00  0.00    -0.328 OA
ATOM      2  C   UNL     1      17.125  29.977  57.178  0.00  0.00    +0.174 C 
ATOM      3  N   UNL     1      16.132  29.543  56.103  0.00  0.00    -0.307 N 
ATOM      4  C   UNL     1      16.402  28.882  54.957  0.00  0.00    +0.053 A 
ATOM      5  C   UNL     1      17.594  28.485  54.308  0.00  0.00    +0.026 A 
ATOM      6  C   UNL     1      17.546  27.826  53.069  0.00  0.00    +0.002 A 
ATOM      7  C   UNL     1      16.327  27.527  52.465  0.00  0.00    +0.001 A 
ATOM      8  C   UNL     1      15.145  27.943  53.116  0.00  0.00    +0.010 A 
ATOM      9  C   UNL     1      15.161  28.606  54.313  0.00  0.00    +0.008 A 
ATOM     10  C   UNL     1      14.156  29.073  55.168  0.00  0.00    +0.015 A 
ATOM     11  C   UNL     1      12.759  29.137  55.085  0.00  0.00    -0.008 A 
ATOM     12  C   UNL     1      11.882  28.586  54.022  0.00  0.00    +0.141 C 
ATOM     13  N   UNL     1      10.537  28.908  54.570  0.00  0.00    -0.307 N 
ATOM     14  H   UNL     1       9.613  28.678  54.081  0.00  0.00    +0.149 HD
ATOM     15  C   UNL     1      10.634  29.517  55.743  0.00  0.00    +0.245 C 
ATOM     16  O   UNL     1       9.673  29.898  56.413  0.00  0.00    -0.270 OA
ATOM     17  C   UNL     1      11.985  29.679  56.127  0.00  0.00    +0.052 A 
ATOM     18  C   UNL     1      12.618  30.259  57.245  0.00  0.00    +0.022 A 
ATOM     19  C   UNL     1      12.168  30.854  58.418  0.00  0.00    +0.009 A 
ATOM     20  C   UNL     1      10.895  31.191  58.973  0.00  0.00    +0.010 A 
ATOM     21  C   UNL     1      10.817  31.845  60.221  0.00  0.00    +0.001 A 
ATOM     22  C   UNL     1      11.944  32.208  60.934  0.00  0.00    +0.002 A 
ATOM     23  C   UNL     1      13.186  31.861  60.377  0.00  0.00    +0.026 A 
ATOM     24  C   UNL     1      13.300  31.214  59.150  0.00  0.00    +0.052 A 
ATOM     25  N   UNL     1      14.408  30.823  58.452  0.00  0.00    -0.312 N 
ATOM     26  C   UNL     1      14.041  30.217  57.316  0.00  0.00    +0.077 A 
ATOM     27  C   UNL     1      14.789  29.659  56.251  0.00  0.00    +0.077 A 
ATOM     28  C   UNL     1      18.572  30.325  56.653  0.00  0.00    +0.069 C 
ATOM     29  C   UNL     1      17.235  28.776  58.210  0.00  0.00    +0.187 C 
ATOM     32  C   UNL     1      17.498  29.304  59.585  0.00  0.00    +0.091 C 
ATOM     36  C   UNL     1      16.236  30.069  60.040  0.00  0.00    +0.076 C 
ATOM     37  C   UNL     1      15.789  31.053  58.962  0.00  0.00    +0.224 C 
ENDROOT
BRANCH  32  33
ATOM     33  N   UNL     1      17.891  28.253  60.531  0.00  0.00    -0.314 NA
ATOM     34  H   UNL     1      17.215  27.433  60.408  0.00  0.00    +0.122 HD
ATOM     35  C   UNL     1      19.294  27.721  60.383  0.00  0.00    +0.101 C 
ENDBRANCH  32  33
BRANCH  29  30
ATOM     30  O   UNL     1      16.001  27.966  58.338  0.00  0.00    -0.374 OA
ATOM     31  C   UNL     1      16.042  26.742  57.566  0.00  0.00    +0.194 C 
ENDBRANCH  29  30
TORSDOF 2
