REMARK  Name = 3GGF
REMARK  5 active torsions:
REMARK  status: ('A' for Active; 'I' for Inactive)
REMARK    1  A    between atoms: C_3  and  C_4
REMARK    2  A    between atoms: C_19  and  N_20
REMARK    3  A    between atoms: N_20  and  C_21
REMARK    4  A    between atoms: C_24  and  C_28
REMARK    5  A    between atoms: C_28  and  C_29
REMARK                            x       y       z     vdW  Elec       q    Type
REMARK                         _______ _______ _______ _____ _____    ______ ____
ROOT
ATOM      3  C   UNL     1      88.128 -12.762  91.481  0.00  0.00    +0.043 A 
ATOM      4  N   UNL     1      88.794 -13.691  90.830  0.00  0.00    -0.278 N 
ATOM      5  H   UNL     1      89.852 -13.699  90.667  0.00  0.00    +0.189 HD
ATOM      6  N   UNL     1      87.998 -14.555  90.436  0.00  0.00    -0.133 NA
ATOM      7  C   UNL     1      86.773 -14.251  90.836  0.00  0.00    +0.231 A 
ATOM      8  N   UNL     1      85.714 -15.062  90.527  0.00  0.00    -0.183 N 
ATOM      9  H   UNL     1      85.874 -15.774  89.744  0.00  0.00    +0.300 HD
ATOM     10  C   UNL     1      84.472 -15.065  91.108  0.00  0.00    +0.325 C 
ATOM     11  C   UNL     1      83.465 -15.916  90.629  0.00  0.00    +0.086 A 
ATOM     12  C   UNL     1      82.207 -15.932  91.231  0.00  0.00    +0.047 A 
ATOM     13  N   UNL     1      81.956 -15.144  92.281  0.00  0.00    -0.277 N 
ATOM     14  H   UNL     1      81.000 -15.164  92.761  0.00  0.00    +0.152 HD
ATOM     15  C   UNL     1      82.924 -14.328  92.721  0.00  0.00    +0.372 C 
ATOM     27  C   UNL     1      81.192 -16.794  90.755  0.00  0.00    +0.024 A 
ATOM     28  C   UNL     1      81.425 -17.619  89.658  0.00  0.00    +0.002 A 
ATOM     29  C   UNL     1      82.692 -17.605  89.064  0.00  0.00    +0.001 A 
ATOM     30  C   UNL     1      83.705 -16.771  89.550  0.00  0.00    +0.018 A 
ATOM     31  N   UNL     1      84.155 -14.295  92.159  0.00  0.00    -0.027 NA
ATOM     32  C   UNL     1      86.831 -13.081  91.502  0.00  0.00    +0.095 A 
ENDROOT
BRANCH   3   2
ATOM      1  C   UNL     1      88.309 -11.098  93.452  0.00  0.00    +0.010 C 
ATOM      2  C   UNL     1      88.827 -11.512  92.083  0.00  0.00    +0.037 C 
ATOM     33  C   UNL     1      87.988 -10.246  92.235  0.00  0.00    +0.010 C 
ENDBRANCH   3   2
BRANCH  15  16
ATOM     16  N   UNL     1      82.625 -13.572  93.773  0.00  0.00    -0.278 N 
ATOM     17  H   UNL     1      81.685 -13.745  94.254  0.00  0.00    +0.152 HD
BRANCH  16  18
ATOM     18  C   UNL     1      83.396 -12.626  94.270  0.00  0.00    +0.032 A 
ATOM     19  C   UNL     1      83.858 -11.567  93.505  0.00  0.00    +0.023 A 
ATOM     20  C   UNL     1      84.667 -10.566  94.050  0.00  0.00    +0.006 A 
ATOM     21  C   UNL     1      84.974 -10.609  95.404  0.00  0.00    -0.034 A 
ATOM     25  C   UNL     1      84.485 -11.663  96.172  0.00  0.00    +0.006 A 
ATOM     26  C   UNL     1      83.674 -12.659  95.617  0.00  0.00    +0.023 A 
BRANCH  21  22
ATOM     22  C   UNL     1      85.845  -9.541  96.079  0.00  0.00    +0.153 C 
BRANCH  22  23
ATOM     23  C   UNL     1      86.188  -8.396  95.238  0.00  0.00    +0.067 C 
ATOM     24  N   UNL     1      86.456  -7.496  94.595  0.00  0.00    -0.196 NA
ENDBRANCH  22  23
ENDBRANCH  21  22
ENDBRANCH  16  18
ENDBRANCH  15  16
TORSDOF 5
