REMARK  Name = 4I24
REMARK  8 active torsions:
REMARK  status: ('A' for Active; 'I' for Inactive)
REMARK    1  A    between atoms: C_1  and  N_22
REMARK    2  A    between atoms: C_2  and  O_20
REMARK    3  A    between atoms: N_11  and  C_12
REMARK    4  A    between atoms: O_20  and  C_21
REMARK    5  A    between atoms: C_23  and  C_24
REMARK    6  A    between atoms: C_24  and  C_25
REMARK    7  A    between atoms: C_25  and  C_26
REMARK    8  A    between atoms: C_26  and  N_27
REMARK                            x       y       z     vdW  Elec       q    Type
REMARK                         _______ _______ _______ _____ _____    ______ ____
ROOT
ATOM      1  C   UNL     1     -14.300  40.657  -4.767  0.00  0.00    +0.076 A 
ATOM     12  C   UNL     1     -13.274  41.162  -3.922  0.00  0.00    +0.040 A 
ATOM     13  C   UNL     1     -12.466  42.271  -4.318  0.00  0.00    +0.042 A 
ATOM     14  C   UNL     1     -11.420  42.842  -3.540  0.00  0.00    +0.134 A 
ATOM     15  N   UNL     1     -11.126  42.307  -2.246  0.00  0.00    -0.299 N 
ATOM     16  H   UNL     1     -11.389  41.283  -2.079  0.00  0.00    +0.154 HD
ATOM     25  N   UNL     1     -10.683  43.908  -4.013  0.00  0.00    -0.220 NA
ATOM     26  C   UNL     1     -10.988  44.393  -5.236  0.00  0.00    +0.224 A 
ATOM     27  N   UNL     1     -11.961  43.936  -6.051  0.00  0.00    -0.235 NA
ATOM     28  C   UNL     1     -12.695  42.888  -5.602  0.00  0.00    +0.080 A 
ATOM     29  C   UNL     1     -13.722  42.389  -6.429  0.00  0.00    +0.076 A 
ATOM     30  C   UNL     1     -14.539  41.280  -6.039  0.00  0.00    +0.143 A 
ENDROOT
BRANCH  15  17
ATOM     17  C   UNL     1     -10.522  42.992  -1.161  0.00  0.00    +0.034 A 
ATOM     18  C   UNL     1      -9.749  42.268  -0.204  0.00  0.00    +0.026 A 
ATOM     19  C   UNL     1      -9.130  42.941   0.886  0.00  0.00    +0.041 A 
ATOM     20  C   UNL     1      -9.284  44.344   1.023  0.00  0.00    +0.142 A 
ATOM     21  F   UNL     1      -8.691  44.962   2.055  0.00  0.00    -0.204 F 
ATOM     22  C   UNL     1     -10.049  45.074   0.082  0.00  0.00    +0.078 A 
ATOM     23 CL   UNL     1     -10.254  46.779   0.213  0.00  0.00    -0.081 Cl
ATOM     24  C   UNL     1     -10.658  44.408  -0.992  0.00  0.00    +0.046 A 
ENDBRANCH  15  17
BRANCH   1   2
ATOM      2  N   UNL     1     -15.101  39.534  -4.417  0.00  0.00    -0.283 N 
ATOM      3  H   UNL     1     -16.167  39.624  -4.451  0.00  0.00    +0.155 HD
ATOM      4  C   UNL     1     -14.530  38.310  -4.028  0.00  0.00    +0.217 C 
ATOM      5  O   UNL     1     -13.325  38.069  -3.942  0.00  0.00    -0.276 OA
BRANCH   4   6
ATOM      6  C   UNL     1     -15.584  37.252  -3.746  0.00  0.00    +0.097 C 
BRANCH   6   7
ATOM      7  C   UNL     1     -14.962  35.900  -3.356  0.00  0.00    +0.024 C 
BRANCH   7   8
ATOM      8  C   UNL     1     -16.066  34.967  -2.845  0.00  0.00    +0.078 C 
BRANCH   8   9
ATOM      9  N   UNL     1     -15.476  33.780  -2.124  0.00  0.00    -0.330 NA
ATOM     10  H   UNL     1     -14.846  33.233  -2.793  0.00  0.00    +0.118 HD
ATOM     11  H   UNL     1     -14.899  34.120  -1.289  0.00  0.00    +0.118 HD
ENDBRANCH   8   9
ENDBRANCH   7   8
ENDBRANCH   6   7
ENDBRANCH   4   6
ENDBRANCH   1   2
BRANCH  30  31
ATOM     31  O   UNL     1     -15.572  40.723  -6.787  0.00  0.00    -0.493 OA
ATOM     32  C   UNL     1     -15.906  41.271  -8.065  0.00  0.00    +0.277 C 
ENDBRANCH  30  31
TORSDOF 7
