REMARK  Name = F88
REMARK  8 active torsions:
REMARK  status: ('A' for Active; 'I' for Inactive)
REMARK    1  A    between atoms: C1_1  and  N_23
REMARK    2  A    between atoms: C3_3  and  C5_20
REMARK    3  A    between atoms: C7_4  and  N2_25
REMARK    4  A    between atoms: C10_7  and  O1_26
REMARK    5  A    between atoms: C13_10  and  O1_26
REMARK    6  A    between atoms: C16_13  and  O3_32
REMARK    7  A    between atoms: C6_19  and  C5_20
REMARK    8  A    between atoms: C17_30  and  O2_31
REMARK                            x       y       z     vdW  Elec       q    Type
REMARK                         _______ _______ _______ _____ _____    ______ ____
ROOT
ATOM     10  C   UNL     1      13.430   0.781   7.479  0.00  0.00    +0.074 A 
ATOM     11  C   UNL     1      14.099   0.795   8.702  0.00  0.00    +0.020 A 
ATOM     12  C   UNL     1      13.489   0.299   9.842  0.00  0.00    +0.039 A 
ATOM     13  C   UNL     1      12.200  -0.204   9.768  0.00  0.00    +0.147 A 
ATOM     29  C   UNL     1      11.524  -0.223   8.553  0.00  0.00    +0.039 A 
ATOM     30  C   UNL     1      12.149   0.249   7.410  0.00  0.00    +0.020 A 
ENDROOT
BRANCH  10   9
ATOM      7  C   UNL     1      15.411   0.987   6.019  0.00  0.00    +0.250 C 
ATOM      8  O   UNL     1      16.194   0.435   6.788  0.00  0.00    -0.273 OA
ATOM      9  N   UNL     1      14.102   1.196   6.304  0.00  0.00    -0.179 NA
BRANCH   7   6
ATOM      6  C   UNL     1      15.862   1.472   4.660  0.00  0.00    +0.117 C 
BRANCH   6   5
ATOM      3  N   UNL     1      19.384   0.480   4.322  0.00  0.00    -0.250 N 
ATOM      4  C   UNL     1      18.121   0.158   4.642  0.00  0.00    +0.093 A 
ATOM      5  C   UNL     1      17.342   1.324   4.428  0.00  0.00    +0.027 A 
ATOM     31  C   UNL     1      18.287   2.271   3.989  0.00  0.00    +0.118 A 
ATOM     32  N   UNL     1      19.511   1.770   3.921  0.00  0.00    -0.168 NA
BRANCH   3   1
ATOM      1  C   UNL     1      20.557  -0.428   4.397  0.00  0.00    +0.128 C 
ATOM      2  C   UNL     1      21.502   0.030   5.496  0.00  0.00    +0.028 C 
ENDBRANCH   3   1
ENDBRANCH   6   5
ENDBRANCH   7   6
ENDBRANCH  10   9
BRANCH  13  14
ATOM     14  O   UNL     1      11.622  -0.693  10.939  0.00  0.00    -0.436 OA
BRANCH  14  15
ATOM     15  C   UNL     1      11.410  -2.036  11.127  0.00  0.00    +0.233 A 
ATOM     16  C   UNL     1      10.884  -2.422  12.406  0.00  0.00    +0.074 A 
ATOM     17  C   UNL     1      10.706  -1.573  13.533  0.00  0.00    +0.046 A 
ATOM     18  C   UNL     1      10.218  -2.079  14.705  0.00  0.00    +0.173 A 
ATOM     21  C   UNL     1       9.955  -3.473  14.832  0.00  0.00    +0.174 A 
ATOM     24  C   UNL     1      10.182  -4.317  13.779  0.00  0.00    +0.059 A 
ATOM     25  C   UNL     1      10.681  -3.819  12.554  0.00  0.00    +0.091 A 
ATOM     26  N   UNL     1      10.906  -4.710  11.534  0.00  0.00    -0.224 NA
ATOM     27  C   UNL     1      11.392  -4.176  10.404  0.00  0.00    +0.202 A 
ATOM     28  N   UNL     1      11.648  -2.887  10.135  0.00  0.00    -0.189 NA
BRANCH  18  19
ATOM     19  O   UNL     1       9.982  -1.350  15.840  0.00  0.00    -0.468 OA
ATOM     20  C   UNL     1      10.407   0.015  15.867  0.00  0.00    +0.253 C 
ENDBRANCH  18  19
BRANCH  21  22
ATOM     22  O   UNL     1       9.494  -3.858  16.066  0.00  0.00    -0.468 OA
ATOM     23  C   UNL     1       9.203  -5.243  16.278  0.00  0.00    +0.253 C 
ENDBRANCH  21  22
ENDBRANCH  14  15
ENDBRANCH  13  14
TORSDOF 8
