REMARK  Name = 3s3i_ligand
REMARK  8 active torsions:
REMARK  status: ('A' for Active; 'I' for Inactive)
REMARK    1  A    between atoms: CAB_2  and  CAQ_17
REMARK    2  A    between atoms: CAC_3  and  CAG_7
REMARK    3  A    between atoms: CAE_5  and  CAR_18
REMARK    4  A    between atoms: CAO_15  and  CAP_16
REMARK    5  A    between atoms: CAP_16  and  CAX_24
REMARK    6  A    between atoms: CAP_16  and  CAY_25
REMARK    7  A    between atoms: CAP_16  and  CAZ_26
REMARK    8  A    between atoms: NAS_19  and  CAT_20
REMARK                            x       y       z     vdW  Elec       q    Type
REMARK                         _______ _______ _______ _____ _____    ______ ____
ROOT
ATOM      1  C   UNL     1       6.983  29.544  31.073  0.00  0.00    +0.010 A 
ATOM      2  C   UNL     1       7.096  28.756  29.923  0.00  0.00    +0.025 A 
ATOM      3  C   UNL     1       5.975  28.532  29.096  0.00  0.00    +0.049 A 
ATOM     11  C   UNL     1       4.790  29.162  29.449  0.00  0.00    +0.037 A 
ATOM     12  C   UNL     1       4.676  30.022  30.565  0.00  0.00    +0.006 A 
ATOM     26  C   UNL     1       5.779  30.195  31.399  0.00  0.00    -0.025 A 
ATOM     27  C   UNL     1       5.681  31.064  32.639  0.00  0.00    +0.101 C 
ENDROOT
BRANCH  12  13
ATOM     13  C   UNL     1       3.375  30.537  30.720  0.00  0.00    +0.008 A 
ATOM     14  C   UNL     1       2.498  29.815  31.545  0.00  0.00    +0.072 A 
ATOM     15  C   UNL     1       1.185  30.237  31.701  0.00  0.00    +0.247 A 
ATOM     16  N   UNL     1       0.788  31.455  31.008  0.00  0.00    -0.159 N 
ATOM     17  C   UNL     1      -0.466  32.171  30.904  0.00  0.00    +0.130 A 
ATOM     22  N   UNL     1      -0.249  33.194  30.038  0.00  0.00    -0.200 NA
ATOM     23  N   UNL     1       0.961  33.187  29.646  0.00  0.00    -0.194 NA
ATOM     24  C   UNL     1       1.650  32.135  30.151  0.00  0.00    +0.201 A 
ATOM     25  C   UNL     1       2.953  31.683  30.005  0.00  0.00    +0.094 A 
BRANCH  17  18
ATOM     18  C   UNL     1      -1.834  31.770  31.584  0.00  0.00    -0.033 C 
ATOM     19  C   UNL     1      -2.280  30.359  31.045  0.00  0.00    -0.080 C 
ATOM     20  C   UNL     1      -1.700  31.769  33.100  0.00  0.00    -0.080 C 
ATOM     21  C   UNL     1      -2.928  32.705  31.157  0.00  0.00    -0.080 C 
ENDBRANCH  17  18
ENDBRANCH  12  13
BRANCH   3   4
ATOM      4  C   UNL     1       5.963  27.653  27.824  0.00  0.00    +0.202 C 
ATOM      5  O   UNL     1       5.154  27.898  26.944  0.00  0.00    -0.388 OA
ATOM      6  N   UNL     1       6.852  26.646  27.728  0.00  0.00    -0.284 N 
ATOM      7  H   UNL     1       7.490  26.506  28.485  0.00  0.00    +0.185 HD
BRANCH   6   8
ATOM      8  C   UNL     1       6.936  25.748  26.582  0.00  0.00    +0.097 C 
ATOM      9  C   UNL     1       8.300  25.646  25.918  0.00  0.00    +0.030 C 
ATOM     10  C   UNL     1       7.177  26.459  25.288  0.00  0.00    +0.030 C 
ENDBRANCH   6   8
ENDBRANCH   3   4
TORSDOF 4
