REMARK  Name = 4hyi_ligand
REMARK  3 active torsions:
REMARK  status: ('A' for Active; 'I' for Inactive)
REMARK    1  A    between atoms: C04_4  and  N13_13
REMARK    2  A    between atoms: C05_5  and  N07_7
REMARK    3  A    between atoms: C14_14  and  C16_16
REMARK                            x       y       z     vdW  Elec       q    Type
REMARK                         _______ _______ _______ _____ _____    ______ ____
ROOT
ATOM     13  N   UNL     1      13.132  -2.780  12.177  0.00  0.00    -0.240 N 
ATOM     14  H   UNL     1      14.059  -3.099  11.979  0.00  0.00    +0.221 HD
ATOM     15  C   UNL     1      12.790  -1.566  11.646  0.00  0.00    +0.222 C 
ATOM     30  O   UNL     1      11.754  -0.936  11.814  0.00  0.00    -0.383 OA
ENDROOT
BRANCH  15  16
ATOM     16  C   UNL     1      13.875  -1.016  10.787  0.00  0.00    +0.088 A 
ATOM     17  C   UNL     1      13.724   0.162  10.116  0.00  0.00    +0.111 A 
ATOM     18  S   UNL     1      15.150   0.556   9.266  0.00  0.00    +0.040 S 
ATOM     19  C   UNL     1      15.853  -0.892   9.801  0.00  0.00    +0.249 A 
ATOM     20  N   UNL     1      17.141  -1.166   9.500  0.00  0.00    -0.114 N 
ATOM     21  C   UNL     1      17.963  -2.169   9.973  0.00  0.00    +0.117 A 
ATOM     22  C   UNL     1      17.676  -3.304  10.767  0.00  0.00    +0.028 A 
ATOM     23  C   UNL     1      18.740  -4.168  11.045  0.00  0.00    -0.010 A 
ATOM     24  C   UNL     1      20.043  -3.897  10.569  0.00  0.00    -0.017 A 
ATOM     25  C   UNL     1      20.252  -2.744   9.789  0.00  0.00    -0.002 A 
ATOM     26  C   UNL     1      19.239  -1.868   9.496  0.00  0.00    +0.016 A 
ATOM     27  C   UNL     1      19.103  -0.658   8.770  0.00  0.00    +0.102 A 
ATOM     28  N   UNL     1      17.876  -0.224   8.774  0.00  0.00    -0.180 NA
ATOM     29  N   UNL     1      15.108  -1.619  10.615  0.00  0.00    -0.281 NA
ENDBRANCH  15  16
BRANCH  13  12
ATOM      1  C   UNL     1      10.890  -5.455  14.434  0.00  0.00    -0.044 A 
ATOM      2  C   UNL     1      12.282  -5.537  14.444  0.00  0.00    -0.010 A 
ATOM      3  C   UNL     1      13.062  -4.606  13.688  0.00  0.00    +0.064 A 
ATOM     12  C   UNL     1      12.346  -3.631  12.963  0.00  0.00    +0.085 A 
ATOM     31  C   UNL     1      10.936  -3.569  12.966  0.00  0.00    -0.006 A 
ATOM     32  C   UNL     1      10.197  -4.487  13.704  0.00  0.00    -0.042 A 
BRANCH   3   4
ATOM      4  N   UNL     1      14.465  -4.587  13.704  0.00  0.00    -0.304 N 
ATOM      5  C   UNL     1      14.937  -3.490  14.659  0.00  0.00    +0.177 C 
ATOM      6  C   UNL     1      16.434  -3.382  14.565  0.00  0.00    +0.153 C 
ATOM      7  N   UNL     1      17.173  -4.608  14.799  0.00  0.00    +0.230 N 
ATOM      8  H   UNL     1      17.056  -4.887  15.761  0.00  0.00    +0.202 HD
ATOM      9  H   UNL     1      18.150  -4.446  14.613  0.00  0.00    +0.202 HD
ATOM     10  C   UNL     1      16.675  -5.707  13.902  0.00  0.00    +0.153 C 
ATOM     11  C   UNL     1      15.155  -5.840  13.934  0.00  0.00    +0.177 C 
ENDBRANCH   3   4
ENDBRANCH  13  12
TORSDOF 3
