REMARK  Name = B6B
REMARK  4 active torsions:
REMARK  status: ('A' for Active; 'I' for Inactive)
REMARK    1  A    between atoms: OAP_2  and  CAV_3
REMARK    2  A    between atoms: CAW_9  and  CAU_10
REMARK    3  A    between atoms: CAX_16  and  CAQ_17
REMARK    4  A    between atoms: CAQ_17  and  CAT_19
REMARK                            x       y       z     vdW  Elec       q    Type
REMARK                         _______ _______ _______ _____ _____    ______ ____
ROOT
ATOM     10  C   UNL     1       4.610 -29.711 -10.706  0.00  0.00    +0.104 A 
ATOM     11  C   UNL     1       5.445 -30.458  -9.880  0.00  0.00    +0.120 A 
ATOM     12  N   UNL     1       6.785 -30.077  -9.740  0.00  0.00    -0.223 NA
ATOM     13  C   UNL     1       7.223 -29.004 -10.411  0.00  0.00    +0.191 A 
ATOM     14  N   UNL     1       8.477 -28.575 -10.334  0.00  0.00    -0.106 NA
ATOM     15  C   UNL     1       6.380 -28.270 -11.232  0.00  0.00    +0.155 A 
ATOM     24  N   UNL     1       5.101 -28.652 -11.361  0.00  0.00    -0.237 NA
ENDROOT
BRANCH  10   9
ATOM      3  C   UNL     1       2.470 -30.671  -9.961  0.00  0.00    +0.140 A 
ATOM      4  C   UNL     1       1.133 -30.945 -10.230  0.00  0.00    +0.038 A 
ATOM      5  C   UNL     1       0.584 -30.568 -11.450  0.00  0.00    +0.021 A 
ATOM      6  C   UNL     1       1.373 -29.919 -12.394  0.00  0.00    +0.089 A 
ATOM      7  C   UNL     1       2.704 -29.647 -12.117  0.00  0.00    +0.023 A 
ATOM      8  N   UNL     1       0.857 -29.551 -13.566  0.00  0.00    -0.128 NA
ATOM      9  C   UNL     1       3.268 -30.023 -10.906  0.00  0.00    +0.055 A 
BRANCH   3   2
ATOM      1  C   UNL     1       2.122 -31.847  -8.041  0.00  0.00    +0.253 C 
ATOM      2  O   UNL     1       3.036 -31.026  -8.773  0.00  0.00    -0.471 OA
ENDBRANCH   3   2
ENDBRANCH  10   9
BRANCH  15  16
ATOM     16  C   UNL     1       6.909 -27.166 -11.904  0.00  0.00    +0.217 C 
ATOM     17  O   UNL     1       8.086 -26.851 -11.748  0.00  0.00    -0.285 OA
BRANCH  16  18
ATOM     18  C   UNL     1       6.102 -26.464 -12.802  0.00  0.00    +0.060 A 
ATOM     19  C   UNL     1       4.765 -26.161 -12.543  0.00  0.00    +0.006 A 
ATOM     20  C   UNL     1       3.997 -25.458 -13.466  0.00  0.00    +0.021 A 
ATOM     21  C   UNL     1       4.563 -25.033 -14.661  0.00  0.00    +0.099 A 
ATOM     22  N   UNL     1       5.905 -25.322 -14.924  0.00  0.00    -0.242 NA
ATOM     23  C   UNL     1       6.670 -26.034 -13.993  0.00  0.00    +0.102 A 
ENDBRANCH  16  18
ENDBRANCH  15  16
TORSDOF 4
