REMARK  Name = 4g34_ligand
REMARK  3 active torsions:
REMARK  status: ('A' for Active; 'I' for Inactive)
REMARK    1  A    between atoms: C9_9  and  C10_10
REMARK    2  A    between atoms: C19_19  and  C21_21
REMARK    3  A    between atoms: C21_21  and  C22_22
REMARK                            x       y       z     vdW  Elec       q    Type
REMARK                         _______ _______ _______ _____ _____    ______ ____
ROOT
ATOM      7  C   UNL     1      48.147 -12.570   5.785  0.00  0.00    -0.049 A 
ATOM      8  C   UNL     1      49.319 -12.580   5.051  0.00  0.00    -0.025 A 
ATOM      9  C   UNL     1      49.224 -12.445   3.686  0.00  0.00    -0.030 A 
ATOM     10  C   UNL     1      50.349 -12.439   2.718  0.00  0.00    -0.041 A 
ATOM     11  C   UNL     1      49.625 -12.282   1.392  0.00  0.00    +0.148 A 
ATOM     12  N   UNL     1      48.208 -12.213   1.683  0.00  0.00    -0.176 N 
ATOM     13  C   UNL     1      47.203 -12.333   0.739  0.00  0.00    +0.259 C 
ATOM     21  O   UNL     1      46.008 -12.219   0.975  0.00  0.00    -0.357 OA
ATOM     22  C   UNL     1      48.013 -12.323   3.067  0.00  0.00    +0.094 A 
ATOM     23  C   UNL     1      46.835 -12.309   3.780  0.00  0.00    +0.014 A 
ATOM     24  C   UNL     1      46.923 -12.434   5.151  0.00  0.00    -0.024 A 
ENDROOT
BRANCH   7   6
ATOM      1  N   UNL     1      47.018  -9.935   7.046  0.00  0.00    -0.322 N 
ATOM      2  H   UNL     1      46.621  -8.995   7.054  0.00  0.00    +0.178 HD
ATOM      3  H   UNL     1      47.271 -10.374   6.161  0.00  0.00    +0.178 HD
ATOM      4  C   UNL     1      47.214 -10.619   8.244  0.00  0.00    +0.108 A 
ATOM      5  C   UNL     1      47.751 -11.899   8.278  0.00  0.00    +0.031 A 
ATOM      6  C   UNL     1      48.184 -12.758   7.222  0.00  0.00    -0.019 A 
ATOM     25  C   UNL     1      48.658 -13.965   7.694  0.00  0.00    +0.082 A 
ATOM     26  S   UNL     1      48.595 -14.078   9.405  0.00  0.00    -0.033 S 
ATOM     27  C   UNL     1      47.912 -12.504   9.525  0.00  0.00    +0.046 A 
ATOM     28  C   UNL     1      47.562 -11.888  10.704  0.00  0.00    +0.016 A 
ATOM     29  C   UNL     1      47.040 -10.630  10.546  0.00  0.00    +0.054 A 
ATOM     30  N   UNL     1      46.867 -10.006   9.383  0.00  0.00    -0.299 NA
ENDBRANCH   7   6
BRANCH  13  14
ATOM     14  C   UNL     1      47.682 -12.585  -0.660  0.00  0.00    +0.222 C 
BRANCH  14  15
ATOM     15  C   UNL     1      47.683 -11.302  -1.408  0.00  0.00    -0.023 A 
ATOM     16  C   UNL     1      46.495 -10.699  -1.772  0.00  0.00    -0.002 A 
ATOM     17  C   UNL     1      46.500  -9.505  -2.463  0.00  0.00    -0.008 A 
ATOM     18  C   UNL     1      47.698  -8.906  -2.789  0.00  0.00    -0.012 A 
ATOM     19  C   UNL     1      48.887  -9.502  -2.427  0.00  0.00    -0.008 A 
ATOM     20  C   UNL     1      48.878 -10.700  -1.739  0.00  0.00    -0.002 A 
ENDBRANCH  14  15
ENDBRANCH  13  14
TORSDOF 3
