REMARK  Name = 2PZR
REMARK  1 active torsions:
REMARK  status: ('A' for Active; 'I' for Inactive)
REMARK    1  A    between atoms: C_5  and  N_6
REMARK                            x       y       z     vdW  Elec       q    Type
REMARK                         _______ _______ _______ _____ _____    ______ ____
ROOT
ATOM      1  N   UNL     1      31.340  14.528  23.174  0.00  0.00    -0.216 NA
ATOM      2  C   UNL     1      30.855  13.922  24.312  0.00  0.00    +0.183 A 
ATOM      3  N   UNL     1      31.421  12.915  25.009  0.00  0.00    -0.214 NA
ATOM      4  C   UNL     1      30.664  12.579  26.053  0.00  0.00    +0.225 A 
ATOM      5  N   UNL     1      29.489  13.092  26.455  0.00  0.00    -0.219 NA
ATOM      6  C   UNL     1      28.941  14.098  25.736  0.00  0.00    +0.145 A 
ATOM     10  C   UNL     1      29.656  14.556  24.598  0.00  0.00    +0.125 A 
ATOM     11  N   UNL     1      29.388  15.550  23.658  0.00  0.00    -0.340 N 
ATOM     12  H   UNL     1      28.545  16.207  23.614  0.00  0.00    +0.167 HD
ATOM     13  C   UNL     1      30.414  15.491  22.839  0.00  0.00    +0.199 A 
ENDROOT
BRANCH   6   7
ATOM      7  N   UNL     1      27.763  14.596  26.132  0.00  0.00    -0.341 N 
ATOM      8  H   UNL     1      27.280  14.201  27.002  0.00  0.00    +0.144 HD
ATOM      9  H   UNL     1      27.304  15.389  25.579  0.00  0.00    +0.144 HD
ENDBRANCH   6   7
TORSDOF 1
