REMARK  Name = 5NKG
REMARK  16 active torsions:
REMARK  status: ('A' for Active; 'I' for Inactive)
REMARK    1  A    between atoms: C_6  and  N_7
REMARK    2  A    between atoms: C_8  and  C_10
REMARK    3  A    between atoms: C_13  and  C_14
REMARK    4  A    between atoms: C_14  and  C_15
REMARK    5  A    between atoms: C_17  and  N_18
REMARK    6  A    between atoms: C_23  and  C_24
REMARK    7  A    between atoms: N_26  and  C_27
REMARK    8  A    between atoms: C_33  and  C_34
REMARK    9  A    between atoms: C_40  and  N_41
REMARK   10  A    between atoms: C_42  and  C_44
REMARK   11  A    between atoms: C_47  and  C_48
REMARK   12  A    between atoms: C_48  and  C_49
REMARK   13  A    between atoms: C_51  and  N_52
REMARK   14  A    between atoms: C_57  and  C_58
REMARK   15  A    between atoms: N_60  and  C_61
REMARK   16  A    between atoms: C_67  and  C_68
REMARK                            x       y       z     vdW  Elec       q    Type
REMARK                         _______ _______ _______ _____ _____    ______ ____
ROOT
ATOM      6  C   UNL     1     -82.834 -14.945   5.046  0.00  0.00    +0.039 A 
ATOM      7  C   UNL     1     -82.528 -14.862   6.394  0.00  0.00    +0.016 A 
ATOM      8  C   UNL     1     -83.503 -14.637   7.346  0.00  0.00    -0.045 A 
ATOM      9  C   UNL     1     -84.825 -14.525   6.926  0.00  0.00    +0.027 A 
ATOM     10  C   UNL     1     -85.197 -14.643   5.590  0.00  0.00    +0.034 A 
ATOM     32  C   UNL     1     -84.179 -14.841   4.639  0.00  0.00    +0.036 A 
ENDROOT
BRANCH  10  11
ATOM     11  N   UNL     1     -86.476 -14.528   5.151  0.00  0.00    -0.294 N 
ATOM     12  H   UNL     1     -86.636 -13.986   4.242  0.00  0.00    +0.154 HD
ATOM     13  C   UNL     1     -87.572 -15.045   5.772  0.00  0.00    +0.163 A 
ATOM     14  N   UNL     1     -88.808 -14.989   5.237  0.00  0.00    -0.232 NA
ATOM     15  C   UNL     1     -89.727 -15.584   6.049  0.00  0.00    +0.133 A 
ATOM     16  C   UNL     1     -89.251 -16.123   7.224  0.00  0.00    +0.095 A 
ATOM     29  S   UNL     1     -87.631 -15.850   7.281  0.00  0.00    -0.048 S 
BRANCH  16  17
ATOM     17  C   UNL     1     -89.865 -16.775   8.295  0.00  0.00    +0.257 C 
ATOM     18  N   UNL     1     -91.180 -17.124   8.203  0.00  0.00    -0.280 N 
ATOM     19  H   UNL     1     -91.714 -16.924   7.297  0.00  0.00    +0.155 HD
ATOM     28  O   UNL     1     -89.183 -17.015   9.304  0.00  0.00    -0.269 OA
BRANCH  18  20
ATOM     20  C   UNL     1     -91.842 -17.735   9.265  0.00  0.00    +0.055 A 
ATOM     21  C   UNL     1     -92.355 -16.936  10.304  0.00  0.00    -0.028 A 
ATOM     22  C   UNL     1     -92.214 -15.513  10.334  0.00  0.00    +0.045 C 
ATOM     23  C   UNL     1     -93.052 -17.571  11.336  0.00  0.00    +0.005 A 
ATOM     24  C   UNL     1     -93.233 -18.954  11.356  0.00  0.00    +0.002 A 
ATOM     25  C   UNL     1     -92.746 -19.740  10.321  0.00  0.00    +0.022 A 
ATOM     26  C   UNL     1     -92.052 -19.130   9.270  0.00  0.00    +0.062 A 
ATOM     27 CL   UNL     1     -91.457 -20.144   8.006  0.00  0.00    -0.082 Cl
ENDBRANCH  18  20
ENDBRANCH  16  17
ENDBRANCH  10  11
BRANCH   6   5
ATOM      3  N   UNL     1     -81.159 -14.473   3.348  0.00  0.00    -0.308 N 
ATOM      4  H   UNL     1     -80.279 -14.901   2.914  0.00  0.00    +0.149 HD
ATOM      5  C   UNL     1     -81.724 -15.262   4.248  0.00  0.00    +0.244 C 
ATOM     33  O   UNL     1     -81.191 -16.351   4.454  0.00  0.00    -0.270 OA
BRANCH   3   2
ATOM      1  C   UNL     1     -80.381 -13.034   1.778  0.00  0.00    +0.037 C 
ATOM      2  C   UNL     1     -81.461 -13.172   2.823  0.00  0.00    +0.076 C 
ATOM     34  C   UNL     1     -81.280 -12.072   3.832  0.00  0.00    +0.037 C 
ATOM     35  C   UNL     1     -79.881 -12.058   4.408  0.00  0.00    +0.083 C 
ATOM     36  N   UNL     1     -78.842 -11.971   3.370  0.00  0.00    -0.316 NA
ATOM     37  H   UNL     1     -78.948 -11.058   2.822  0.00  0.00    +0.122 HD
ATOM     38  C   UNL     1     -79.023 -13.120   2.472  0.00  0.00    +0.083 C 
ENDBRANCH   3   2
ENDBRANCH   6   5
BRANCH   8  30
ATOM     30  C   UNL     1     -83.131 -14.534   8.693  0.00  0.00    +0.032 C 
ATOM     31  C   UNL     1     -83.101 -13.113   9.209  0.00  0.00    +0.009 C 
ENDBRANCH   8  30
TORSDOF 6
