REMARK  Name = 3E87
REMARK  6 active torsions:
REMARK  status: ('A' for Active; 'I' for Inactive)
REMARK    1  A    between atoms: C_1  and  C_2
REMARK    2  A    between atoms: C_1  and  N_13
REMARK    3  A    between atoms: C_2  and  C_17
REMARK    4  A    between atoms: C_2  and  N_18
REMARK    5  A    between atoms: C_3  and  C_4
REMARK    6  A    between atoms: C_8  and  C_9
REMARK                            x       y       z     vdW  Elec       q    Type
REMARK                         _______ _______ _______ _____ _____    ______ ____
ROOT
ATOM      6  N   UNL     1      35.744 -11.542   6.783  0.00  0.00    -0.303 N 
ATOM      7  H   UNL     1      35.888 -11.137   7.763  0.00  0.00    +0.150 HD
ATOM      8  C   UNL     1      35.840 -12.892   6.547  0.00  0.00    +0.251 C 
ATOM      9  O   UNL     1      35.938 -13.389   5.431  0.00  0.00    -0.270 OA
ENDROOT
BRANCH   8  10
ATOM     10  C   UNL     1      35.822 -13.709   7.711  0.00  0.00    +0.074 A 
ATOM     11  S   UNL     1      35.968 -15.387   7.424  0.00  0.00    -0.084 S 
ATOM     12  C   UNL     1      35.883 -15.772   9.092  0.00  0.00    +0.021 A 
ATOM     13  C   UNL     1      35.749 -14.621   9.844  0.00  0.00    +0.017 A 
ATOM     23  C   UNL     1      35.710 -13.436   9.057  0.00  0.00    +0.021 A 
BRANCH  12  14
ATOM     14  C   UNL     1      35.978 -17.156   9.503  0.00  0.00    +0.001 A 
ATOM     15  C   UNL     1      35.889 -18.195   8.588  0.00  0.00    +0.029 A 
ATOM     16  C   UNL     1      36.010 -19.484   9.065  0.00  0.00    +0.160 A 
ATOM     17  N   UNL     1      35.897 -20.348   8.017  0.00  0.00    -0.236 NA
ATOM     18  C   UNL     1      35.700 -19.648   6.866  0.00  0.00    +0.114 A 
ATOM     19  N   UNL     1      36.213 -19.880  10.320  0.00  0.00    -0.236 NA
ATOM     20  C   UNL     1      36.290 -18.847  11.159  0.00  0.00    +0.114 A 
ATOM     21  C   UNL     1      35.690 -18.315   7.187  0.00  0.00    +0.032 A 
ATOM     22  C   UNL     1      36.184 -17.520  10.814  0.00  0.00    +0.029 A 
ENDBRANCH  12  14
ENDBRANCH   8  10
BRANCH   6   5
ATOM      5  C   UNL     1      35.442 -10.693   5.657  0.00  0.00    +0.117 C 
BRANCH   5  24
ATOM     24  C   UNL     1      34.032 -10.211   5.722  0.00  0.00    -0.026 A 
ATOM     25  C   UNL     1      33.612  -9.340   6.704  0.00  0.00    +0.005 A 
ATOM     26  C   UNL     1      32.305  -8.915   6.732  0.00  0.00    +0.000 A 
ATOM     27  C   UNL     1      31.419  -9.363   5.780  0.00  0.00    +0.000 A 
ATOM     28  C   UNL     1      31.834 -10.232   4.802  0.00  0.00    +0.000 A 
ATOM     29  C   UNL     1      33.141 -10.656   4.772  0.00  0.00    +0.005 A 
ENDBRANCH   5  24
BRANCH   5   1
ATOM      1  C   UNL     1      36.409  -9.534   5.574  0.00  0.00    +0.104 C 
BRANCH   1   2
ATOM      2  N   UNL     1      36.242  -8.935   4.230  0.00  0.00    -0.328 NA
ATOM      3  H   UNL     1      36.462  -9.668   3.482  0.00  0.00    +0.118 HD
ATOM      4  H   UNL     1      35.233  -8.598   4.112  0.00  0.00    +0.118 HD
ENDBRANCH   1   2
ENDBRANCH   5   1
ENDBRANCH   6   5
TORSDOF 6
