REMARK  Name = 6HMQ
REMARK  3 active torsions:
REMARK  status: ('A' for Active; 'I' for Inactive)
REMARK    1  A    between atoms: CAF_6  and  CAG_7
REMARK    2  A    between atoms: CAG_7  and  CAH_8
REMARK    3  A    between atoms: CAH_8  and  NAQ_17
REMARK                            x       y       z     vdW  Elec       q    Type
REMARK                         _______ _______ _______ _____ _____    ______ ____
ROOT
ATOM      5  N   UNL     1      41.155  30.163   8.516  0.00  0.00    -0.250 N 
ATOM      6  C   UNL     1      41.900  30.581   9.625  0.00  0.00    +0.200 A 
ATOM      7  C   UNL     1      43.215  30.757   9.244  0.00  0.00    +0.200 A 
ATOM      8  C   UNL     1      44.193  31.152  10.171  0.00  0.00    +0.000 A 
ATOM      9  C   UNL     1      43.821  31.376  11.506  0.00  0.00    +0.000 A 
ATOM     10  C   UNL     1      42.502  31.201  11.871  0.00  0.00    +0.000 A 
ATOM     11 BR   UNL     1      41.871  31.477  13.607  0.00  0.00    +0.000 Br
ATOM     12 BR   UNL     1      45.049  31.872  12.801  0.00  0.00    +0.000 Br
ATOM     13 BR   UNL     1      45.885  31.367   9.570  0.00  0.00    +0.000 Br
ATOM     14  N   UNL     1      43.245  30.476   7.858  0.00  0.00    -0.200 NA
ATOM     15  C   UNL     1      41.583  30.809  10.937  0.00  0.00    +0.000 A 
ATOM     16 BR   UNL     1      39.943  30.577  11.417  0.00  0.00    +0.000 Br
ATOM     17  N   UNL     1      42.047  30.131   7.449  0.00  0.00    +0.000 NA
ENDROOT
BRANCH   5   4
ATOM      4  C   UNL     1      39.680  29.886   8.339  0.00  0.00    -0.050 C 
BRANCH   4   3
ATOM      3  C   UNL     1      38.850  31.177   8.209  0.00  0.00    -0.100 C 
BRANCH   3   2
ATOM      1  O   UNL     1      38.446  33.113   6.821  0.00  0.00    -0.650 OA
ATOM      2  C   UNL     1      39.369  32.061   7.041  0.00  0.00    +0.150 C 
ENDBRANCH   3   2
ENDBRANCH   4   3
ENDBRANCH   5   4
TORSDOF 3
