REMARK  Name = 2C47
REMARK  6 active torsions:
REMARK  status: ('A' for Active; 'I' for Inactive)
REMARK    1  A    between atoms: O5*_1  and  C5*_2
REMARK    2  A    between atoms: C5*_2  and  C4*_3
REMARK    3  A    between atoms: C1*_5  and  N_6
REMARK    4  A    between atoms: C_10  and  N_15
REMARK    5  A    between atoms: C2*_16  and  O2*_17
REMARK    6  A    between atoms: C3*_18  and  O3*_19
REMARK                            x       y       z     vdW  Elec       q    Type
REMARK                         _______ _______ _______ _____ _____    ______ ____
ROOT
ATOM     12  N   UNL     1       4.405  36.771  19.001  0.00  0.00    -0.302 N 
ATOM     13  C   UNL     1       4.663  38.040  18.588  0.00  0.00    +0.149 A 
ATOM     14  N   UNL     1       5.732  38.838  18.735  0.00  0.00    -0.218 NA
ATOM     15  C   UNL     1       5.731  40.065  18.244  0.00  0.00    +0.225 A 
ATOM     16  N   UNL     1       4.699  40.556  17.569  0.00  0.00    -0.220 NA
ATOM     17  C   UNL     1       3.602  39.816  17.346  0.00  0.00    +0.130 A 
ATOM     21  C   UNL     1       3.569  38.516  17.875  0.00  0.00    +0.071 A 
ATOM     22  C   UNL     1       2.665  37.452  17.887  0.00  0.00    +0.043 A 
ATOM     23  I   UNL     1       0.724  37.383  17.000  0.00  0.00    -0.042 I 
ATOM     24  C   UNL     1       3.190  36.428  18.577  0.00  0.00    +0.105 A 
ENDROOT
BRANCH  12  11
ATOM      4  C4* UNL     1       4.766  33.737  20.752  0.00  0.00    +0.177 C 
ATOM      5  C3* UNL     1       4.228  34.810  21.729  0.00  0.00    +0.178 C 
ATOM      8  C2* UNL     1       4.980  36.098  21.336  0.00  0.00    +0.195 C 
ATOM     11  C1* UNL     1       5.305  35.846  19.837  0.00  0.00    +0.252 C 
ATOM     25  O4* UNL     1       5.031  34.425  19.544  0.00  0.00    -0.346 OA
BRANCH   5   6
ATOM      6  O3* UNL     1       4.423  34.427  23.114  0.00  0.00    -0.386 OA
ATOM      7  H3* UNL     1       3.917  33.527  23.303  0.00  0.00    +0.210 HD
ENDBRANCH   5   6
BRANCH   8   9
ATOM      9  O2* UNL     1       6.189  36.353  22.116  0.00  0.00    -0.385 OA
ATOM     10  H2* UNL     1       6.829  35.523  22.052  0.00  0.00    +0.210 HD
ENDBRANCH   8   9
BRANCH   4   3
ATOM      3  C5* UNL     1       3.690  32.661  20.403  0.00  0.00    +0.190 C 
BRANCH   3   1
ATOM      1  O5* UNL     1       2.406  33.277  20.148  0.00  0.00    -0.392 OA
ATOM      2  H5* UNL     1       2.093  33.801  21.002  0.00  0.00    +0.209 HD
ENDBRANCH   3   1
ENDBRANCH   4   3
ENDBRANCH  12  11
BRANCH  17  18
ATOM     18  N   UNL     1       2.595  40.348  16.630  0.00  0.00    -0.343 N 
ATOM     19  H   UNL     1       2.676  41.346  16.252  0.00  0.00    +0.144 HD
ATOM     20  H   UNL     1       1.713  39.774  16.439  0.00  0.00    +0.144 HD
ENDBRANCH  17  18
TORSDOF 6
