REMARK  Name = 15G
REMARK  5 active torsions:
REMARK  status: ('A' for Active; 'I' for Inactive)
REMARK    1  A    between atoms: C14_11  and  C15_12
REMARK    2  A    between atoms: C19_14  and  C20_15
REMARK    3  A    between atoms: C20_15  and  O3_23
REMARK    4  A    between atoms: C17_19  and  O2_22
REMARK    5  A    between atoms: O3_23  and  C4_24
REMARK                            x       y       z     vdW  Elec       q    Type
REMARK                         _______ _______ _______ _____ _____    ______ ____
ROOT
ATOM      7  C   UNL     1       1.802   3.291  16.094  0.00  0.00    +0.103 A 
ATOM      8  C   UNL     1       2.245   4.007  17.267  0.00  0.00    +0.023 A 
ATOM      9  C   UNL     1       3.022   3.237  18.223  0.00  0.00    +0.054 A 
ATOM     20  C   UNL     1       3.281   1.824  17.896  0.00  0.00    +0.159 A 
ATOM     23  C   UNL     1       2.788   1.204  16.674  0.00  0.00    +0.135 A 
ATOM     24  N   UNL     1       2.063   1.985  15.831  0.00  0.00    -0.241 NA
ENDROOT
BRANCH   9  10
ATOM     10  C   UNL     1       3.467   3.962  19.483  0.00  0.00    +0.084 A 
ATOM     11  C   UNL     1       4.481   3.522  20.376  0.00  0.00    +0.025 A 
ATOM     12  C   UNL     1       4.474   4.493  21.386  0.00  0.00    +0.070 A 
ATOM     13  C   UNL     1       5.277   4.558  22.520  0.00  0.00    +0.266 C 
ATOM     14  N   UNL     1       4.939   5.525  23.395  0.00  0.00    -0.201 NA
ATOM     15  C   UNL     1       3.668   6.293  23.390  0.00  0.00    +0.122 C 
ATOM     16  C   UNL     1       3.172   6.618  21.976  0.00  0.00    +0.069 C 
ATOM     17  O   UNL     1       6.229   3.796  22.691  0.00  0.00    -0.268 OA
ATOM     18  C   UNL     1       3.499   5.447  21.087  0.00  0.00    +0.065 A 
ATOM     19  N   UNL     1       2.881   5.136  19.922  0.00  0.00    -0.249 NA
ENDBRANCH   9  10
BRANCH  20  21
ATOM     21  O   UNL     1       4.022   1.041  18.793  0.00  0.00    -0.470 OA
ATOM     22  C   UNL     1       4.162  -0.389  18.634  0.00  0.00    +0.253 C 
ENDBRANCH  20  21
BRANCH   7   6
ATOM      6  C   UNL     1       0.977   3.959  15.041  0.00  0.00    +0.251 C 
BRANCH   6   5
ATOM      5  O   UNL     1       0.612   5.268  15.445  0.00  0.00    -0.469 OA
BRANCH   5   4
ATOM      1  C   UNL     1      -0.982   8.104  12.852  0.00  0.00    +0.168 A 
ATOM      2  C   UNL     1      -0.676   8.367  14.225  0.00  0.00    +0.170 A 
ATOM      3  C   UNL     1      -0.147   7.381  15.068  0.00  0.00    +0.069 A 
ATOM      4  C   UNL     1       0.065   6.111  14.473  0.00  0.00    +0.141 A 
ATOM     25  C   UNL     1      -0.237   5.809  13.079  0.00  0.00    +0.039 A 
ATOM     26  F   UNL     1      -0.884   9.577  14.734  0.00  0.00    -0.202 F 
ATOM     27  C   UNL     1      -0.778   6.825  12.219  0.00  0.00    +0.035 A 
ATOM     28  F   UNL     1      -1.492   9.172  12.199  0.00  0.00    -0.202 F 
ENDBRANCH   5   4
ENDBRANCH   6   5
ENDBRANCH   7   6
TORSDOF 5
