REMARK  Name = 5C1Q
REMARK  2 active torsions:
REMARK  status: ('A' for Active; 'I' for Inactive)
REMARK    1  A    between atoms: C_1  and  O_2
REMARK    2  A    between atoms: O_2  and  C_3
REMARK                            x       y       z     vdW  Elec       q    Type
REMARK                         _______ _______ _______ _____ _____    ______ ____
ROOT
ATOM      3  C   UNL     1     -22.155 -33.214  -1.060  0.00  0.00    +0.122 A 
ATOM      4  C   UNL     1     -22.551 -34.560  -0.993  0.00  0.00    +0.046 A 
ATOM      5  C   UNL     1     -22.833 -35.195   0.226  0.00  0.00    +0.014 A 
ATOM      6  C   UNL     1     -22.730 -34.542   1.471  0.00  0.00    +0.008 A 
ATOM      7  C   UNL     1     -22.985 -35.123   2.700  0.00  0.00    +0.011 A 
ATOM      8  C   UNL     1     -23.381 -36.393   3.050  0.00  0.00    -0.002 A 
ATOM      9  C   UNL     1     -23.628 -37.456   2.287  0.00  0.00    +0.009 A 
ATOM     10  C   UNL     1     -24.022 -38.668   2.852  0.00  0.00    +0.001 A 
ATOM     11  C   UNL     1     -24.176 -38.798   4.227  0.00  0.00    +0.001 A 
ATOM     12  C   UNL     1     -23.923 -37.700   5.013  0.00  0.00    +0.016 A 
ATOM     13  C   UNL     1     -23.545 -36.577   4.415  0.00  0.00    +0.021 A 
ATOM     14  S   UNL     1     -23.240 -35.311   5.160  0.00  0.00    -0.083 S 
ATOM     15  C   UNL     1     -22.855 -34.346   3.854  0.00  0.00    +0.085 A 
ATOM     16  C   UNL     1     -22.485 -33.029   3.892  0.00  0.00    +0.264 C 
ATOM     17  O   UNL     1     -22.380 -32.398   4.978  0.00  0.00    -0.267 OA
ATOM     18  N   UNL     1     -22.217 -32.402   2.627  0.00  0.00    -0.321 N 
ATOM     19  H   UNL     1     -21.930 -31.372   2.587  0.00  0.00    +0.169 HD
ATOM     20  C   UNL     1     -22.337 -33.170   1.408  0.00  0.00    +0.053 A 
ATOM     21  C   UNL     1     -22.060 -32.538   0.169  0.00  0.00    +0.072 A 
ENDROOT
BRANCH   3   2
ATOM      1  C   UNL     1     -21.814 -33.217  -3.538  0.00  0.00    +0.277 C 
ATOM      2  O   UNL     1     -21.870 -32.534  -2.252  0.00  0.00    -0.495 OA
ENDBRANCH   3   2
TORSDOF 1
