REMARK  Name = 2oo8_ligand
REMARK  12 active torsions:
REMARK  status: ('A' for Active; 'I' for Inactive)
REMARK    1  A    between atoms: C28_1  and  N6_2
REMARK    2  A    between atoms: N6_2  and  C29_3
REMARK    3  A    between atoms: N6_2  and  C27_4
REMARK    4  A    between atoms: C27_4  and  C26_5
REMARK    5  A    between atoms: C26_5  and  C25_6
REMARK    6  A    between atoms: C25_6  and  C20_7
REMARK    7  A    between atoms: C22_10  and  C24_11
REMARK    8  A    between atoms: C18_16  and  N5_17
REMARK    9  A    between atoms: C17_18  and  C12_20
REMARK   10  A    between atoms: C15_24  and  C16_25
REMARK   11  A    between atoms: C10_26  and  N4_27
REMARK   12  A    between atoms: C5_33  and  C3_34
REMARK                            x       y       z     vdW  Elec       q    Type
REMARK                         _______ _______ _______ _____ _____    ______ ____
ROOT
ATOM     12  N   UNL     1      53.144   1.380  70.859  0.00  0.00    -0.230 N 
ATOM     13  H   UNL     1      52.647   0.578  70.528  0.00  0.00    +0.225 HD
ATOM     14  C   UNL     1      53.619   1.327  72.115  0.00  0.00    +0.225 C 
ATOM     36  O   UNL     1      54.197   2.252  72.677  0.00  0.00    -0.376 OA
ENDROOT
BRANCH  14  15
ATOM     15  C   UNL     1      53.390   0.011  72.886  0.00  0.00    +0.039 A 
ATOM     16  C   UNL     1      53.007  -1.171  72.235  0.00  0.00    -0.004 A 
ATOM     17  C   UNL     1      52.821  -2.345  72.976  0.00  0.00    -0.010 A 
ATOM     18  C   UNL     1      53.040  -2.342  74.369  0.00  0.00    -0.017 A 
ATOM     19  C   UNL     1      53.422  -1.160  75.022  0.00  0.00    +0.071 A 
ATOM     34  C   UNL     1      52.835  -3.650  75.160  0.00  0.00    +0.083 C 
ATOM     35  C   UNL     1      53.613   0.003  74.262  0.00  0.00    +0.032 A 
BRANCH  19  20
ATOM     20  N   UNL     1      53.676  -1.123  76.347  0.00  0.00    -0.258 N 
ATOM     21  H   UNL     1      54.660  -1.245  76.626  0.00  0.00    +0.213 HD
ATOM     22  C   UNL     1      52.805  -0.948  77.332  0.00  0.00    +0.147 A 
ATOM     23  C   UNL     1      53.224  -0.981  78.679  0.00  0.00    +0.058 A 
ATOM     30  C   UNL     1      52.266  -0.767  79.676  0.00  0.00    +0.035 A 
ATOM     31  C   UNL     1      50.937  -0.559  79.309  0.00  0.00    +0.018 A 
ATOM     32  C   UNL     1      50.591  -0.539  77.961  0.00  0.00    +0.081 A 
ATOM     33  N   UNL     1      51.518  -0.725  77.031  0.00  0.00    -0.276 NA
BRANCH  23  24
ATOM     24  C   UNL     1      54.554  -1.173  79.075  0.00  0.00    +0.071 A 
ATOM     25  N   UNL     1      55.538  -1.341  78.184  0.00  0.00    -0.262 NA
ATOM     26  C   UNL     1      56.799  -1.513  78.562  0.00  0.00    +0.197 A 
ATOM     27  N   UNL     1      57.141  -1.504  79.841  0.00  0.00    -0.267 NA
ATOM     28  C   UNL     1      56.230  -1.313  80.779  0.00  0.00    +0.118 A 
ATOM     29  C   UNL     1      54.895  -1.131  80.420  0.00  0.00    +0.071 A 
ENDBRANCH  23  24
ENDBRANCH  19  20
ENDBRANCH  14  15
BRANCH  12  11
ATOM      7  C   UNL     1      52.505   3.647  68.051  0.00  0.00    -0.025 A 
ATOM      8  C   UNL     1      53.612   4.505  68.133  0.00  0.00    +0.023 A 
ATOM      9  C   UNL     1      54.578   4.307  69.135  0.00  0.00    +0.027 A 
ATOM     10  C   UNL     1      54.408   3.265  70.061  0.00  0.00    +0.048 A 
ATOM     11  C   UNL     1      53.276   2.415  70.003  0.00  0.00    +0.089 A 
ATOM     41  C   UNL     1      52.340   2.606  68.978  0.00  0.00    +0.061 A 
BRANCH   9  37
ATOM     37  C   UNL     1      55.800   5.248  69.245  0.00  0.00    +0.371 C 
ATOM     38  F   UNL     1      56.306   5.518  68.037  0.00  0.00    -0.221 F 
ATOM     39  F   UNL     1      56.750   4.674  70.006  0.00  0.00    -0.221 F 
ATOM     40  F   UNL     1      55.429   6.411  69.789  0.00  0.00    -0.221 F 
ENDBRANCH   9  37
BRANCH   7   6
ATOM      6  C   UNL     1      51.459   3.882  66.938  0.00  0.00    +0.075 C 
BRANCH   6   5
ATOM      5  C   UNL     1      50.042   3.900  67.508  0.00  0.00    +0.065 C 
BRANCH   5   4
ATOM      4  C   UNL     1      49.577   5.354  67.686  0.00  0.00    +0.133 C 
BRANCH   4   2
ATOM      1  C   UNL     1      47.722   4.805  69.194  0.00  0.00    +0.190 C 
ATOM      2  N   UNL     1      48.131   5.520  67.961  0.00  0.00    +0.231 N 
ATOM      3  H   UNL     1      47.968   6.501  68.124  0.00  0.00    +0.203 HD
ATOM     42  C   UNL     1      47.322   5.135  66.783  0.00  0.00    +0.190 C 
ENDBRANCH   4   2
ENDBRANCH   5   4
ENDBRANCH   6   5
ENDBRANCH   7   6
ENDBRANCH  12  11
TORSDOF 9
