REMARK  Name = 2ycr_ligand
REMARK  9 active torsions:
REMARK  status: ('A' for Active; 'I' for Inactive)
REMARK    1  A    between atoms: NAF_3  and  CAW_4
REMARK    2  A    between atoms: CAZ_9  and  CBC_10
REMARK    3  A    between atoms: CBC_10  and  CBD_11
REMARK    4  A    between atoms: NAG_12  and  NAH_13
REMARK    5  A    between atoms: NAH_13  and  CBE_14
REMARK    6  A    between atoms: NAE_19  and  CAS_20
REMARK    7  A    between atoms: CAP_23  and  CAN_26
REMARK    8  A    between atoms: CAN_26  and  CAO_27
REMARK    9  A    between atoms: NAD_28  and  NAC_29
REMARK                            x       y       z     vdW  Elec       q    Type
REMARK                         _______ _______ _______ _____ _____    ______ ____
ROOT
ATOM      1  O   UNL     1     -36.535  33.796   7.737  0.00  0.00    -0.378 OA
ATOM      2  C   UNL     1     -37.104  32.982   8.437  0.00  0.00    +0.322 C 
ATOM      3  N   UNL     1     -36.932  32.867   9.752  0.00  0.00    -0.209 N 
ATOM      4  H   UNL     1     -37.485  32.123  10.177  0.00  0.00    +0.230 HD
ATOM     21  N   UNL     1     -37.989  32.089   8.003  0.00  0.00    -0.212 N 
ATOM     22  H   UNL     1     -38.374  31.491   8.734  0.00  0.00    +0.228 HD
ENDROOT
BRANCH   3   5
ATOM      5  C   UNL     1     -36.161  33.552  10.634  0.00  0.00    +0.075 A 
ATOM      6  C   UNL     1     -36.296  33.126  11.946  0.00  0.00    +0.018 A 
ATOM      7  C   UNL     1     -35.564  33.713  12.962  0.00  0.00    +0.004 A 
ATOM      8  C   UNL     1     -34.694  34.756  12.686  0.00  0.00    -0.008 A 
ATOM     19  C   UNL     1     -34.573  35.193  11.362  0.00  0.00    +0.004 A 
ATOM     20  C   UNL     1     -35.290  34.598  10.335  0.00  0.00    +0.018 A 
BRANCH   8   9
ATOM      9  C   UNL     1     -33.944  35.347  13.855  0.00  0.00    +0.022 C 
ATOM     10  N   UNL     1     -34.202  34.813  15.046  0.00  0.00    -0.289 NA
ATOM     18  C   UNL     1     -32.951  36.469  13.756  0.00  0.00    +0.120 C 
BRANCH  10  11
ATOM     11  N   UNL     1     -33.667  35.120  16.125  0.00  0.00    -0.266 NA
ATOM     12  C   UNL     1     -34.202  34.493  17.334  0.00  0.00    +0.174 C 
ATOM     13  N   UNL     1     -34.795  33.152  17.330  0.00  0.00    -0.242 NA
ATOM     14  C   UNL     1     -34.901  32.761  18.544  0.00  0.00    +0.184 C 
ATOM     15  C   UNL     1     -34.246  33.706  19.544  0.00  0.00    +0.268 C 
ATOM     16  N   UNL     1     -33.535  34.561  18.614  0.00  0.00    -0.267 N 
ATOM     17  H   UNL     1     -32.706  35.116  18.827  0.00  0.00    +0.194 HD
ENDBRANCH  10  11
ENDBRANCH   8   9
ENDBRANCH   3   5
BRANCH  21  23
ATOM     23  C   UNL     1     -38.469  31.833   6.763  0.00  0.00    +0.070 A 
ATOM     24  C   UNL     1     -39.411  30.810   6.680  0.00  0.00    +0.012 A 
ATOM     25  C   UNL     1     -39.965  30.462   5.460  0.00  0.00    -0.006 A 
ATOM     26  C   UNL     1     -39.582  31.145   4.309  0.00  0.00    -0.020 A 
ATOM     39  C   UNL     1     -38.640  32.165   4.396  0.00  0.00    -0.006 A 
ATOM     40  C   UNL     1     -38.081  32.516   5.614  0.00  0.00    +0.012 A 
BRANCH  26  27
ATOM     27  C   UNL     1     -40.187  30.767   2.990  0.00  0.00    +0.029 C 
ATOM     28  N   UNL     1     -41.076  29.774   2.957  0.00  0.00    -0.238 NA
ATOM     38  C   UNL     1     -39.798  31.460   1.718  0.00  0.00    +0.098 C 
BRANCH  28  29
ATOM     29  N   UNL     1     -41.737  29.358   1.889  0.00  0.00    -0.231 N 
ATOM     30  H   UNL     1     -41.415  29.603   0.953  0.00  0.00    +0.193 HD
BRANCH  29  31
ATOM     31  C   UNL     1     -42.939  28.540   2.071  0.00  0.00    +0.257 C 
ATOM     32  N   UNL     1     -44.049  28.978   1.236  0.00  0.00    +0.274 N 
ATOM     33  H   UNL     1     -43.785  29.865   0.807  0.00  0.00    +0.207 HD
ATOM     34  H   UNL     1     -44.232  28.245   0.551  0.00  0.00    +0.207 HD
ATOM     35  C   UNL     1     -45.267  29.195   1.986  0.00  0.00    +0.249 C 
ATOM     36  C   UNL     1     -44.754  28.981   3.388  0.00  0.00    +0.178 C 
ATOM     37  N   UNL     1     -43.532  28.651   3.417  0.00  0.00    -0.273 NA
ENDBRANCH  29  31
ENDBRANCH  28  29
ENDBRANCH  26  27
ENDBRANCH  21  23
TORSDOF 7
