REMARK  Name = 5H8G
REMARK  13 active torsions:
REMARK  status: ('A' for Active; 'I' for Inactive)
REMARK    1  A    between atoms: C_1  and  C_31
REMARK    2  A    between atoms: C_2  and  N_29
REMARK    3  A    between atoms: C_5  and  N_32
REMARK    4  A    between atoms: C_6  and  N_32
REMARK    5  A    between atoms: C_7  and  C_8
REMARK    6  A    between atoms: C_7  and  N_32
REMARK    7  A    between atoms: C_8  and  N_33
REMARK    8  A    between atoms: C_9  and  N_33
REMARK    9  A    between atoms: C_10  and  N_33
REMARK   10  A    between atoms: C_13  and  N_23
REMARK   11  A    between atoms: C_15  and  C_20
REMARK   12  A    between atoms: C_16  and  N_23
REMARK   13  A    between atoms: N_25  and  C_26
REMARK                            x       y       z     vdW  Elec       q    Type
REMARK                         _______ _______ _______ _____ _____    ______ ____
ROOT
ATOM     18  N   UNL     1      10.251  -5.081  32.294  0.00  0.00    -0.200 N 
ATOM     19  H   UNL     1       9.990  -5.487  33.249  0.00  0.00    +0.298 HD
ATOM     20  C   UNL     1      10.614  -6.035  31.359  0.00  0.00    +0.324 C 
ATOM     21  N   UNL     1      11.012  -5.668  30.129  0.00  0.00    -0.015 NA
ATOM     22  C   UNL     1      11.456  -6.637  29.314  0.00  0.00    +0.430 C 
ATOM     23  N   UNL     1      11.484  -7.977  29.688  0.00  0.00    -0.068 N 
ATOM     24  C   UNL     1      11.018  -8.391  30.955  0.00  0.00    +0.291 C 
ATOM     30  N   UNL     1      11.978  -8.757  28.693  0.00  0.00    -0.195 N 
ATOM     31  H   UNL     1      12.123  -9.817  28.708  0.00  0.00    +0.194 HD
ATOM     32  C   UNL     1      12.246  -7.908  27.684  0.00  0.00    +0.134 C 
ATOM     33  C   UNL     1      11.940  -6.577  27.998  0.00  0.00    +0.151 C 
ATOM     36  C   UNL     1      10.664  -7.351  31.815  0.00  0.00    +0.193 C 
ENDROOT
BRANCH  18  17
ATOM      6  C   UNL     1      10.488  -1.587  31.059  0.00  0.00    +0.059 A 
ATOM      7  C   UNL     1       9.996  -0.892  32.174  0.00  0.00    +0.051 A 
ATOM     15  C   UNL     1       9.626  -1.601  33.317  0.00  0.00    +0.029 A 
ATOM     16  C   UNL     1       9.677  -2.982  33.329  0.00  0.00    +0.051 A 
ATOM     17  C   UNL     1      10.160  -3.676  32.226  0.00  0.00    +0.121 A 
ATOM     37  C   UNL     1      10.555  -2.978  31.093  0.00  0.00    +0.074 A 
BRANCH   6   4
ATOM      1  C   UNL     1      10.959  -1.089  28.604  0.00  0.00    +0.214 C 
ATOM      2  C   UNL     1      10.070  -2.216  28.155  0.00  0.00    +0.109 C 
ATOM      3  O   UNL     1      11.528  -0.365  27.800  0.00  0.00    -0.276 OA
ATOM      4  N   UNL     1      10.950  -0.837  29.941  0.00  0.00    -0.284 N 
ATOM      5  H   UNL     1      11.373   0.110  30.203  0.00  0.00    +0.155 HD
ENDBRANCH   6   4
BRANCH   7   8
ATOM      8  N   UNL     1       9.971   0.577  32.187  0.00  0.00    -0.330 N 
ATOM     14  C   UNL     1       8.992   1.251  31.337  0.00  0.00    +0.129 C 
BRANCH   8   9
ATOM      9  C   UNL     1      10.175   1.188  33.552  0.00  0.00    +0.120 C 
BRANCH   9  10
ATOM     10  C   UNL     1      10.904   2.571  33.502  0.00  0.00    +0.102 C 
BRANCH  10  11
ATOM     11  N   UNL     1      12.132   2.647  32.696  0.00  0.00    -0.307 NA
ATOM     12  C   UNL     1      13.262   2.049  33.400  0.00  0.00    +0.104 C 
ATOM     13  C   UNL     1      12.440   4.035  32.357  0.00  0.00    +0.104 C 
ENDBRANCH  10  11
ENDBRANCH   9  10
ENDBRANCH   8   9
ENDBRANCH   7   8
ENDBRANCH  18  17
BRANCH  24  25
ATOM     25  N   UNL     1      11.097  -9.740  31.299  0.00  0.00    -0.234 N 
ATOM     26  H   UNL     1      11.382 -10.437  30.538  0.00  0.00    +0.291 HD
BRANCH  25  27
ATOM     27  C   UNL     1      10.814 -10.260  32.634  0.00  0.00    +0.165 C 
ATOM     28  C   UNL     1      10.289 -11.632  32.748  0.00  0.00    +0.051 C 
ATOM     29  C   UNL     1       9.412 -10.477  33.030  0.00  0.00    +0.051 C 
ENDBRANCH  25  27
ENDBRANCH  24  25
BRANCH  33  34
ATOM     34  C   UNL     1      12.096  -5.425  27.157  0.00  0.00    +0.106 C 
ATOM     35  N   UNL     1      12.267  -4.560  26.425  0.00  0.00    -0.191 NA
ENDBRANCH  33  34
TORSDOF 9
