REMARK  Name = 5NHF
REMARK  4 active torsions:
REMARK  status: ('A' for Active; 'I' for Inactive)
REMARK    1  A    between atoms: C_3  and  C_20
REMARK    2  A    between atoms: C_9  and  C_10
REMARK    3  A    between atoms: N_19  and  C_20
REMARK    4  A    between atoms: N_27  and  C_28
REMARK                            x       y       z     vdW  Elec       q    Type
REMARK                         _______ _______ _______ _____ _____    ______ ____
ROOT
ATOM      7  N   UNL     1     -10.571  15.612  40.153  0.00  0.00    -0.293 N 
ATOM      8  C   UNL     1     -11.154  14.436  39.807  0.00  0.00    +0.249 C 
ATOM      9  O   UNL     1     -10.582  13.551  39.174  0.00  0.00    -0.270 OA
ATOM     10  C   UNL     1     -12.511  14.296  40.319  0.00  0.00    +0.060 A 
ATOM     11  C   UNL     1     -13.457  13.233  40.219  0.00  0.00    +0.044 A 
ATOM     12  C   UNL     1     -14.582  13.648  40.904  0.00  0.00    +0.090 A 
ATOM     13  N   UNL     1     -14.363  14.906  41.416  0.00  0.00    -0.249 NA
ATOM     28  C   UNL     1     -13.102  15.297  41.070  0.00  0.00    +0.056 A 
ATOM     29  C   UNL     1     -12.475  16.609  41.407  0.00  0.00    +0.075 C 
ATOM     30  C   UNL     1     -10.977  16.335  41.369  0.00  0.00    +0.114 C 
ENDROOT
BRANCH  12  14
ATOM     14  C   UNL     1     -15.859  12.950  41.112  0.00  0.00    +0.094 A 
ATOM     15  N   UNL     1     -16.769  13.616  41.840  0.00  0.00    -0.211 NA
ATOM     16  C   UNL     1     -17.945  12.990  42.048  0.00  0.00    +0.224 A 
ATOM     17  N   UNL     1     -18.864  13.642  42.789  0.00  0.00    -0.247 NA
ATOM     24  N   UNL     1     -18.282  11.762  41.605  0.00  0.00    -0.331 N 
ATOM     25  H   UNL     1     -19.241  11.327  41.797  0.00  0.00    +0.168 HD
ATOM     26  C   UNL     1     -17.330  11.122  40.905  0.00  0.00    +0.088 A 
ATOM     27  C   UNL     1     -16.102  11.680  40.605  0.00  0.00    +0.047 A 
BRANCH  17  18
ATOM     18  C   UNL     1     -18.673  14.928  43.462  0.00  0.00    +0.113 C 
ATOM     19  C   UNL     1     -17.767  14.777  44.680  0.00  0.00    +0.055 C 
ATOM     20  C   UNL     1     -17.657  16.098  45.404  0.00  0.00    +0.162 C 
ATOM     21  O   UNL     1     -18.947  16.585  45.788  0.00  0.00    -0.380 OA
ATOM     22  C   UNL     1     -19.757  16.826  44.629  0.00  0.00    +0.162 C 
ATOM     23  C   UNL     1     -20.004  15.550  43.857  0.00  0.00    +0.055 C 
ENDBRANCH  17  18
ENDBRANCH  12  14
BRANCH   7   6
ATOM      6  C   UNL     1      -9.184  15.868  39.747  0.00  0.00    +0.143 C 
BRANCH   6   5
ATOM      1  C   UNL     1      -9.836  16.917  36.149  0.00  0.00    +0.000 A 
ATOM      2  C   UNL     1      -8.640  16.591  35.541  0.00  0.00    +0.000 A 
ATOM      3  C   UNL     1      -7.621  16.037  36.288  0.00  0.00    +0.000 A 
ATOM      4  C   UNL     1      -7.800  15.799  37.644  0.00  0.00    +0.005 A 
ATOM      5  C   UNL     1      -9.000  16.119  38.269  0.00  0.00    -0.030 A 
ATOM     31  C   UNL     1     -10.010  16.695  37.507  0.00  0.00    +0.005 A 
ENDBRANCH   6   5
ENDBRANCH   7   6
TORSDOF 4
