REMARK  Name = RAP
REMARK  6 active torsions:
REMARK  status: ('A' for Active; 'I' for Inactive)
REMARK    1  A    between atoms: C16_22  and  O7_23
REMARK    2  A    between atoms: C27_35  and  O9_36
REMARK    3  A    between atoms: C34_45  and  C35_46
REMARK    4  A    between atoms: C35_46  and  C36_47
REMARK    5  A    between atoms: C36_47  and  C37_48
REMARK    6  A    between atoms: C39_50  and  O12_51
REMARK                            x       y       z     vdW  Elec       q    Type
REMARK                         _______ _______ _______ _____ _____    ______ ____
ROOT
ATOM      1  C   UNL     1     -21.196   2.833   7.201  0.00  0.00    +0.335 C 
ATOM      2  O   UNL     1     -21.918   2.821   8.193  0.00  0.00    -0.248 OA
ATOM      3  O   UNL     1     -19.774   2.663   7.358  0.00  0.00    -0.451 OA
ATOM      4  C   UNL     1     -19.306   2.558   8.701  0.00  0.00    +0.176 C 
ATOM     17  C   UNL     1     -18.076   1.667   8.657  0.00  0.00    +0.108 C 
ATOM     18  C   UNL     1     -18.436   0.198   8.545  0.00  0.00    +0.158 C 
ATOM     19  C   UNL     1     -17.556  -0.798   9.257  0.00  0.00    +0.079 C 
ATOM     20  C   UNL     1     -17.945  -0.756  10.720  0.00  0.00    -0.025 C 
ATOM     21  C   UNL     1     -17.203  -0.119  11.648  0.00  0.00    -0.015 C 
ATOM     22  C   UNL     1     -17.659  -0.074  13.077  0.00  0.00    +0.204 C 
ATOM     23  C   UNL     1     -16.634  -0.650  14.052  0.00  0.00    +0.206 C 
ATOM     26  C   UNL     1     -16.610  -2.146  13.963  0.00  0.00    +0.180 C 
ATOM     27  O   UNL     1     -17.187  -2.818  14.805  0.00  0.00    -0.293 OA
ATOM     28  C   UNL     1     -15.870  -2.824  12.854  0.00  0.00    +0.060 C 
ATOM     29  C   UNL     1     -14.451  -3.115  13.353  0.00  0.00    +0.012 C 
ATOM     30  C   UNL     1     -13.486  -3.436  12.220  0.00  0.00    +0.022 C 
ATOM     31  C   UNL     1     -12.104  -3.745  12.787  0.00  0.00    +0.005 C 
ATOM     32  C   UNL     1     -13.404  -2.256  11.277  0.00  0.00    -0.026 C 
ATOM     33  C   UNL     1     -13.718  -2.401   9.988  0.00  0.00    -0.005 C 
ATOM     34  C   UNL     1     -13.653  -1.272   9.062  0.00  0.00    -0.000 C 
ATOM     35  C   UNL     1     -14.193  -1.378   7.843  0.00  0.00    -0.001 C 
ATOM     36  C   UNL     1     -14.134  -0.239   6.928  0.00  0.00    -0.006 C 
ATOM     37  C   UNL     1     -14.659  -0.275   5.686  0.00  0.00    -0.017 C 
ATOM     38  C   UNL     1     -15.341  -1.511   5.145  0.00  0.00    +0.029 C 
ATOM     39  C   UNL     1     -14.569   0.946   4.823  0.00  0.00    +0.136 C 
ATOM     40  C   UNL     1     -15.984   1.494   4.732  0.00  0.00    +0.063 C 
ATOM     41  C   UNL     1     -16.105   2.875   4.111  0.00  0.00    +0.121 C 
ATOM     42  C   UNL     1     -15.630   3.952   5.077  0.00  0.00    +0.030 C 
ATOM     43  C   UNL     1     -16.054   5.330   4.578  0.00  0.00    +0.008 C 
ATOM     44  C   UNL     1     -17.545   5.380   4.238  0.00  0.00    +0.062 C 
ATOM     45  C   UNL     1     -17.902   6.739   3.640  0.00  0.00    +0.006 C 
ATOM     46  C   UNL     1     -17.902   4.240   3.291  0.00  0.00    +0.279 C 
ATOM     47  C   UNL     1     -19.385   4.056   3.060  0.00  0.00    +0.279 C 
ATOM     48  C   UNL     1     -20.341   4.133   4.169  0.00  0.00    +0.289 C 
ATOM     49  N   UNL     1     -20.707   2.984   4.764  0.00  0.00    -0.265 N 
ATOM     50  C   UNL     1     -20.140   1.649   4.508  0.00  0.00    +0.094 C 
ATOM     51  C   UNL     1     -21.266   0.664   4.209  0.00  0.00    +0.022 C 
ATOM     52  C   UNL     1     -22.295   0.634   5.329  0.00  0.00    +0.004 C 
ATOM     53  C   UNL     1     -22.854   2.043   5.479  0.00  0.00    +0.031 C 
ATOM     54  O   UNL     1     -20.797   5.218   4.496  0.00  0.00    -0.267 OA
ATOM     55  O   UNL     1     -19.789   3.813   1.934  0.00  0.00    -0.281 OA
ATOM     56  O   UNL     1     -17.208   4.427   2.052  0.00  0.00    -0.187 OA
ATOM     57  O   UNL     1     -17.506   3.025   3.897  0.00  0.00    -0.329 OA
ATOM     60  C   UNL     1     -16.621  -4.093  12.460  0.00  0.00    +0.008 C 
ATOM     61  O   UNL     1     -18.891  -0.777  13.231  0.00  0.00    -0.216 OA
ATOM     62  C   UNL     1     -15.928   0.591  11.281  0.00  0.00    +0.029 C 
ATOM     63  C   UNL     1     -17.760  -2.195   8.691  0.00  0.00    +0.013 C 
ATOM     64  O   UNL     1     -19.425  -0.166   7.925  0.00  0.00    -0.296 OA
ATOM     65  C   UNL     1     -21.740   3.044   5.812  0.00  0.00    +0.175 C 
ENDROOT
BRANCH   4   5
ATOM      5  C   UNL     1     -18.951   3.969   9.182  0.00  0.00    +0.041 C 
ATOM     16  C   UNL     1     -17.931   4.637   8.262  0.00  0.00    +0.004 C 
BRANCH   5   6
ATOM      6  C   UNL     1     -18.435   4.054  10.623  0.00  0.00    +0.004 C 
BRANCH   6   7
ATOM      7  C   UNL     1     -19.411   3.558  11.689  0.00  0.00    +0.003 C 
ATOM      8  C   UNL     1     -18.795   3.898  13.052  0.00  0.00    +0.032 C 
ATOM      9  C   UNL     1     -19.707   3.573  14.226  0.00  0.00    +0.145 C 
ATOM     12  C   UNL     1     -21.076   4.229  14.051  0.00  0.00    +0.179 C 
ATOM     13  O   UNL     1     -21.939   3.842  15.135  0.00  0.00    -0.221 OA
ATOM     14  C   UNL     1     -21.699   3.831  12.715  0.00  0.00    +0.035 C 
ATOM     15  C   UNL     1     -20.778   4.225  11.559  0.00  0.00    +0.003 C 
BRANCH   9  10
ATOM     10  O   UNL     1     -19.107   4.106  15.405  0.00  0.00    -0.351 OA
ATOM     11  C   UNL     1     -18.181   3.191  15.983  0.00  0.00    +0.174 C 
ENDBRANCH   9  10
ENDBRANCH   6   7
ENDBRANCH   5   6
ENDBRANCH   4   5
BRANCH  23  24
ATOM     24  O   UNL     1     -17.074  -0.270  15.360  0.00  0.00    -0.343 OA
ATOM     25  C   UNL     1     -16.003   0.116  16.229  0.00  0.00    +0.175 C 
ENDBRANCH  23  24
BRANCH  39  58
ATOM     58  O   UNL     1     -14.143   0.569   3.520  0.00  0.00    -0.349 OA
ATOM     59  C   UNL     1     -12.840  -0.028   3.540  0.00  0.00    +0.174 C 
ENDBRANCH  39  58
TORSDOF 6
