REMARK  Name = 4clj_ligand
REMARK  5 active torsions:
REMARK  status: ('A' for Active; 'I' for Inactive)
REMARK    1  A    between atoms: C23_1  and  C19_7
REMARK    2  A    between atoms: C2_15  and  N17_27
REMARK    3  A    between atoms: C8_18  and  C9_19
REMARK    4  A    between atoms: C25_20  and  N20_25
REMARK    5  A    between atoms: C29_21  and  N26_26
REMARK                            x       y       z     vdW  Elec       q    Type
REMARK                         _______ _______ _______ _____ _____    ______ ____
ROOT
ATOM      3  C   UNL     1     -27.815 -20.246  59.713  0.00  0.00    +0.205 A 
ATOM      4  N   UNL     1     -28.349 -21.321  59.037  0.00  0.00    -0.187 N 
ATOM      5  N   UNL     1     -29.686 -21.361  59.028  0.00  0.00    -0.198 NA
ATOM      6  C   UNL     1     -30.069 -20.282  59.717  0.00  0.00    +0.065 A 
ATOM      7  C   UNL     1     -31.567 -20.066  59.873  0.00  0.00    +0.212 C 
ATOM      8  N   UNL     1     -32.187 -19.126  58.871  0.00  0.00    -0.266 N 
ATOM      9  C   UNL     1     -31.820 -19.316  57.456  0.00  0.00    +0.170 C 
ATOM     10  C   UNL     1     -33.110 -18.062  59.152  0.00  0.00    +0.201 C 
ATOM     11  O   UNL     1     -33.593 -17.313  58.295  0.00  0.00    -0.390 OA
ATOM     12  C   UNL     1     -33.569 -17.776  60.551  0.00  0.00    +0.050 A 
ATOM     13  C   UNL     1     -33.194 -16.575  61.282  0.00  0.00    +0.008 A 
ATOM     14  C   UNL     1     -32.275 -15.469  60.705  0.00  0.00    +0.196 C 
ATOM     15  O   UNL     1     -31.118 -15.232  61.568  0.00  0.00    -0.299 OA
ATOM     16  C   UNL     1     -30.066 -16.137  61.633  0.00  0.00    +0.140 A 
ATOM     17  C   UNL     1     -28.991 -15.841  62.505  0.00  0.00    +0.141 A 
ATOM     21  N   UNL     1     -27.915 -16.690  62.630  0.00  0.00    -0.296 NA
ATOM     22  C   UNL     1     -27.886 -17.858  61.894  0.00  0.00    +0.057 A 
ATOM     23  C   UNL     1     -28.901 -18.250  61.000  0.00  0.00    -0.017 A 
ATOM     24  C   UNL     1     -29.973 -17.345  60.906  0.00  0.00    +0.039 A 
ATOM     25  C   UNL     1     -33.012 -14.126  60.587  0.00  0.00    +0.061 C 
ATOM     26  C   UNL     1     -33.708 -16.431  62.619  0.00  0.00    +0.038 A 
ATOM     27  C   UNL     1     -34.544 -17.425  63.184  0.00  0.00    +0.131 A 
ATOM     28  F   UNL     1     -35.002 -17.260  64.423  0.00  0.00    -0.181 F 
ATOM     29  C   UNL     1     -34.901 -18.584  62.465  0.00  0.00    +0.027 A 
ATOM     30  C   UNL     1     -34.419 -18.763  61.152  0.00  0.00    +0.014 A 
ATOM     31  C   UNL     1     -27.631 -22.384  58.354  0.00  0.00    +0.241 C 
ATOM     32  C   UNL     1     -28.922 -19.508  60.195  0.00  0.00    +0.043 A 
ENDROOT
BRANCH  17  18
ATOM     18  N   UNL     1     -29.006 -14.668  63.268  0.00  0.00    -0.325 N 
ATOM     19  H   UNL     1     -29.801 -14.017  63.196  0.00  0.00    +0.174 HD
ATOM     20  H   UNL     1     -28.222 -14.456  63.901  0.00  0.00    +0.174 HD
ENDBRANCH  17  18
BRANCH   3   1
ATOM      1  C   UNL     1     -26.402 -20.014  59.844  0.00  0.00    +0.115 C 
ATOM      2  N   UNL     1     -25.269 -19.816  59.970  0.00  0.00    -0.343 NA
ENDBRANCH   3   1
TORSDOF 2
