REMARK  Name = 5LMB
REMARK  5 active torsions:
REMARK  status: ('A' for Active; 'I' for Inactive)
REMARK    1  A    between atoms: N_1  and  C_13
REMARK    2  A    between atoms: N_1  and  C_14
REMARK    3  A    between atoms: C_5  and  C_7
REMARK    4  A    between atoms: C_10  and  N_23
REMARK    5  A    between atoms: C_10  and  C_24
REMARK                            x       y       z     vdW  Elec       q    Type
REMARK                         _______ _______ _______ _____ _____    ______ ____
ROOT
ATOM      6  C   UNL     1       0.671   0.444 -29.397  0.00  0.00    +0.077 A 
ATOM      7  C   UNL     1      -0.376   1.307 -29.551  0.00  0.00    +0.058 A 
ATOM      8  C   UNL     1      -1.633   0.943 -29.100  0.00  0.00    +0.095 A 
ATOM      9  C   UNL     1      -1.818  -0.298 -28.448  0.00  0.00    +0.129 A 
ATOM     10  N   UNL     1      -3.027  -0.671 -28.002  0.00  0.00    -0.249 NA
ATOM     11  C   UNL     1      -4.050   0.164 -28.172  0.00  0.00    +0.131 A 
ATOM     12  C   UNL     1      -3.878   1.383 -28.803  0.00  0.00    +0.131 A 
ATOM     13  C   UNL     1      -0.644  -1.115 -28.287  0.00  0.00    +0.147 A 
ATOM     14  N   UNL     1      -0.732  -2.294 -27.653  0.00  0.00    -0.327 N 
ATOM     15  H   UNL     1      -1.692  -2.681 -27.382  0.00  0.00    +0.147 HD
ATOM     24  N   UNL     1      -2.680   1.768 -29.257  0.00  0.00    -0.252 NA
ATOM     25  N   UNL     1       0.531  -0.720 -28.744  0.00  0.00    -0.230 NA
ENDROOT
BRANCH   6   5
ATOM      1  N   UNL     1       5.984   1.727 -30.670  0.00  0.00    -0.321 N 
ATOM      2  C   UNL     1       4.670   1.422 -30.411  0.00  0.00    +0.121 A 
ATOM      3  N   UNL     1       4.384   0.298 -29.696  0.00  0.00    -0.240 NA
ATOM      4  C   UNL     1       3.109   0.016 -29.415  0.00  0.00    +0.123 A 
ATOM      5  C   UNL     1       2.040   0.810 -29.819  0.00  0.00    +0.019 A 
ATOM     26  C   UNL     1       2.320   1.977 -30.528  0.00  0.00    +0.015 A 
ATOM     27  C   UNL     1       3.639   2.270 -30.829  0.00  0.00    +0.044 A 
ATOM     28  C   UNL     1       7.036   0.997 -29.969  0.00  0.00    +0.130 C 
ATOM     29  C   UNL     1       6.357   2.825 -31.556  0.00  0.00    +0.130 C 
ENDBRANCH   6   5
BRANCH  14  16
ATOM     16  C   UNL     1       0.464  -3.047 -27.333  0.00  0.00    +0.108 C 
BRANCH  16  17
ATOM     17  C   UNL     1       0.501  -3.342 -25.838  0.00  0.00    +0.020 C 
ATOM     18  C   UNL     1       0.836  -2.108 -25.020  0.00  0.00    +0.086 C 
ATOM     19  N   UNL     1       0.871  -2.375 -23.593  0.00  0.00    -0.316 NA
ATOM     20  H   UNL     1      -0.135  -2.544 -23.271  0.00  0.00    +0.122 HD
ATOM     21  C   UNL     1       1.664  -3.503 -23.158  0.00  0.00    +0.081 C 
ATOM     22  C   UNL     1       1.533  -4.741 -24.029  0.00  0.00    +0.016 C 
ATOM     23  C   UNL     1       1.547  -4.408 -25.519  0.00  0.00    +0.007 C 
ENDBRANCH  16  17
ENDBRANCH  14  16
TORSDOF 3
