REMARK  Name = 4BBM
REMARK  8 active torsions:
REMARK  status: ('A' for Active; 'I' for Inactive)
REMARK    1  A    between atoms: C_3  and  N_4
REMARK    2  A    between atoms: N_4  and  C_5
REMARK    3  A    between atoms: C_5  and  C_6
REMARK    4  A    between atoms: N_12  and  C_13
REMARK    5  A    between atoms: C_17  and  C_18
REMARK    6  A    between atoms: C_23  and  C_24
REMARK    7  A    between atoms: C_27  and  O_28
REMARK    8  A    between atoms: C_30  and  O_31
REMARK                            x       y       z     vdW  Elec       q    Type
REMARK                         _______ _______ _______ _____ _____    ______ ____
ROOT
ATOM     11  C   UNL     1      -7.764   5.181 -44.085  0.00  0.00    +0.150 A 
ATOM     12  N   UNL     1      -8.832   5.953 -44.222  0.00  0.00    -0.260 N 
ATOM     13  H   UNL     1      -9.018   6.843 -43.659  0.00  0.00    +0.191 HD
ATOM     14  N   UNL     1      -9.585   5.497 -45.096  0.00  0.00    -0.172 NA
ATOM     15  C   UNL     1      -9.046   4.392 -45.607  0.00  0.00    +0.095 A 
ATOM     32  C   UNL     1      -7.895   4.160 -44.950  0.00  0.00    +0.077 A 
ENDROOT
BRANCH  11  10
ATOM      6  C   UNL     1      -2.922   4.252 -42.354  0.00  0.00    +0.034 C 
ATOM      7  C   UNL     1      -3.652   3.629 -43.367  0.00  0.00    -0.012 C 
ATOM      8  C   UNL     1      -4.961   4.014 -43.679  0.00  0.00    +0.024 C 
ATOM      9  C   UNL     1      -5.587   5.045 -42.977  0.00  0.00    +0.066 C 
ATOM     10  N   UNL     1      -6.844   5.531 -43.154  0.00  0.00    -0.229 NA
ATOM     33  C   UNL     1      -4.848   5.658 -41.958  0.00  0.00    +0.024 C 
ATOM     34  C   UNL     1      -3.546   5.268 -41.643  0.00  0.00    -0.012 C 
BRANCH   6   5
ATOM      5  C   UNL     1      -1.608   3.822 -42.045  0.00  0.00    +0.097 C 
BRANCH   5   3
ATOM      3  N   UNL     1      -0.630   4.920 -41.905  0.00  0.00    -0.312 NA
ATOM      4  H   UNL     1       0.336   4.537 -42.161  0.00  0.00    +0.122 HD
BRANCH   3   2
ATOM      1  C   UNL     1      -1.097   6.944 -40.348  0.00  0.00    +0.020 C 
ATOM      2  C   UNL     1      -0.542   5.520 -40.549  0.00  0.00    +0.054 C 
ATOM     35  C   UNL     1       0.257   6.821 -40.483  0.00  0.00    +0.020 C 
ENDBRANCH   3   2
ENDBRANCH   5   3
ENDBRANCH   6   5
ENDBRANCH  11  10
BRANCH  15  16
ATOM     16  C   UNL     1      -9.641   3.610 -46.536  0.00  0.00    +0.002 A 
ATOM     17  C   UNL     1     -10.996   3.800 -46.845  0.00  0.00    +0.010 A 
ATOM     18  C   UNL     1     -11.652   2.969 -47.758  0.00  0.00    +0.009 A 
ATOM     19  C   UNL     1     -10.996   1.904 -48.388  0.00  0.00    -0.014 A 
ATOM     30  C   UNL     1      -9.648   1.708 -48.077  0.00  0.00    +0.009 A 
ATOM     31  C   UNL     1      -8.992   2.537 -47.161  0.00  0.00    +0.010 A 
BRANCH  19  20
ATOM     20  C   UNL     1     -11.666   1.091 -49.324  0.00  0.00    +0.024 A 
ATOM     21  C   UNL     1     -12.997   0.668 -49.160  0.00  0.00    +0.128 A 
ATOM     24  C   UNL     1     -13.646  -0.127 -50.110  0.00  0.00    +0.091 A 
ATOM     25  C   UNL     1     -12.963  -0.509 -51.265  0.00  0.00    +0.120 A 
ATOM     28  C   UNL     1     -11.645  -0.093 -51.447  0.00  0.00    +0.046 A 
ATOM     29  C   UNL     1     -11.005   0.698 -50.492  0.00  0.00    +0.016 A 
BRANCH  21  22
ATOM     22  O   UNL     1     -13.654   1.055 -48.028  0.00  0.00    -0.506 OA
ATOM     23  H   UNL     1     -13.145   0.690 -47.185  0.00  0.00    +0.292 HD
ENDBRANCH  21  22
BRANCH  25  26
ATOM     26  O   UNL     1     -13.579  -1.286 -52.209  0.00  0.00    -0.507 OA
ATOM     27  H   UNL     1     -13.603  -0.772 -53.124  0.00  0.00    +0.292 HD
ENDBRANCH  25  26
ENDBRANCH  19  20
ENDBRANCH  15  16
TORSDOF 8
