REMARK  Name = 3hmo_ligand
REMARK  5 active torsions:
REMARK  status: ('A' for Active; 'I' for Inactive)
REMARK    1  A    between atoms: C23_4  and  N4_34
REMARK    2  A    between atoms: C22_5  and  O6_32
REMARK    3  A    between atoms: C21_6  and  C26_7
REMARK    4  A    between atoms: O6_32  and  C27_33
REMARK    5  A    between atoms: N4_34  and  C28_35
REMARK                            x       y       z     vdW  Elec       q    Type
REMARK                         _______ _______ _______ _____ _____    ______ ____
ROOT
ATOM      1  O   UNL     1     -37.999 -13.142 -11.283  0.00  0.00    -0.315 OA
ATOM      2  C   UNL     1     -38.017 -13.441 -12.647  0.00  0.00    +0.202 C 
ATOM      3  N   UNL     1     -37.974 -14.892 -12.896  0.00  0.00    -0.229 N 
ATOM      4  C   UNL     1     -38.558 -15.633 -13.920  0.00  0.00    +0.070 A 
ATOM      5  C   UNL     1     -39.345 -15.272 -15.024  0.00  0.00    +0.013 A 
ATOM      6  C   UNL     1     -39.777 -16.283 -15.878  0.00  0.00    -0.018 A 
ATOM      7  C   UNL     1     -39.455 -17.616 -15.676  0.00  0.00    -0.024 A 
ATOM      8  C   UNL     1     -38.681 -18.011 -14.598  0.00  0.00    -0.013 A 
ATOM      9  C   UNL     1     -38.243 -17.004 -13.732  0.00  0.00    -0.007 A 
ATOM     10  C   UNL     1     -37.427 -17.082 -12.534  0.00  0.00    +0.001 A 
ATOM     11  C   UNL     1     -36.830 -18.134 -11.869  0.00  0.00    -0.017 A 
ATOM     12  C   UNL     1     -36.813 -19.612 -12.155  0.00  0.00    +0.196 C 
ATOM     13  N   UNL     1     -36.015 -20.196 -11.080  0.00  0.00    -0.279 N 
ATOM     14  H   UNL     1     -35.810 -21.169 -10.974  0.00  0.00    +0.186 HD
ATOM     15  C   UNL     1     -35.600 -19.217 -10.256  0.00  0.00    +0.187 C 
ATOM     16  O   UNL     1     -34.914 -19.392  -9.277  0.00  0.00    -0.396 OA
ATOM     17  C   UNL     1     -36.086 -17.911 -10.710  0.00  0.00    +0.032 A 
ATOM     18  C   UNL     1     -35.931 -16.589 -10.204  0.00  0.00    -0.002 A 
ATOM     19  C   UNL     1     -35.244 -15.979  -9.059  0.00  0.00    -0.007 A 
ATOM     20  C   UNL     1     -34.474 -16.513  -8.019  0.00  0.00    -0.011 A 
ATOM     21  C   UNL     1     -33.969 -15.626  -7.078  0.00  0.00    -0.023 A 
ATOM     22  C   UNL     1     -34.210 -14.262  -7.149  0.00  0.00    -0.016 A 
ATOM     23  C   UNL     1     -34.968 -13.707  -8.169  0.00  0.00    +0.014 A 
ATOM     24  C   UNL     1     -35.488 -14.581  -9.129  0.00  0.00    +0.068 A 
ATOM     25  N   UNL     1     -36.265 -14.352 -10.261  0.00  0.00    -0.238 N 
ATOM     26  C   UNL     1     -36.540 -15.527 -10.887  0.00  0.00    +0.095 A 
ATOM     27  C   UNL     1     -37.294 -15.770 -12.052  0.00  0.00    +0.098 A 
ATOM     28  C   UNL     1     -39.421 -12.960 -13.021  0.00  0.00    +0.079 C 
ATOM     29  C   UNL     1     -37.054 -12.574 -13.487  0.00  0.00    +0.227 C 
ATOM     32  C   UNL     1     -36.449 -11.471 -12.574  0.00  0.00    +0.102 C 
ATOM     37  C   UNL     1     -35.764 -12.090 -11.340  0.00  0.00    +0.120 C 
ATOM     38  C   UNL     1     -36.756 -13.027 -10.649  0.00  0.00    +0.260 C 
ENDROOT
BRANCH  32  33
ATOM     33  N   UNL     1     -35.510 -10.642 -13.346  0.00  0.00    +0.229 N 
ATOM     34  H   UNL     1     -34.969 -10.114 -12.679  0.00  0.00    +0.201 HD
ATOM     35  H   UNL     1     -34.904 -11.274 -13.846  0.00  0.00    +0.201 HD
ATOM     36  C   UNL     1     -36.031  -9.683 -14.329  0.00  0.00    +0.189 C 
ENDBRANCH  32  33
BRANCH  29  30
ATOM     30  O   UNL     1     -36.015 -13.292 -14.207  0.00  0.00    -0.369 OA
ATOM     31  C   UNL     1     -35.168 -14.132 -13.417  0.00  0.00    +0.195 C 
ENDBRANCH  29  30
TORSDOF 2
