REMARK  Name = 5G6V
REMARK  11 active torsions:
REMARK  status: ('A' for Active; 'I' for Inactive)
REMARK    1  A    between atoms: C_1  and  N_26
REMARK    2  A    between atoms: C_13  and  C_34
REMARK    3  A    between atoms: C_15  and  O_32
REMARK    4  A    between atoms: C_19  and  O_32
REMARK    5  A    between atoms: C_22  and  N_30
REMARK    6  A    between atoms: C_23  and  C_38
REMARK    7  A    between atoms: C_25  and  N_28
REMARK    8  A    between atoms: N_36  and  C_37
REMARK    9  A    between atoms: C_38  and  C_39
REMARK   10  A    between atoms: C_38  and  C_40
REMARK   11  A    between atoms: C_38  and  C_41
REMARK                            x       y       z     vdW  Elec       q    Type
REMARK                         _______ _______ _______ _____ _____    ______ ____
ROOT
ATOM     11  N   UNL     1      60.329  22.435  40.540  0.00  0.00    -0.254 N 
ATOM     12  H   UNL     1      60.288  22.442  39.471  0.00  0.00    +0.158 HD
ATOM     13  C   UNL     1      59.183  22.702  41.222  0.00  0.00    +0.309 C 
ATOM     14  O   UNL     1      59.182  22.762  42.444  0.00  0.00    -0.252 OA
ATOM     15  N   UNL     1      58.075  22.870  40.445  0.00  0.00    -0.267 N 
ATOM     16  H   UNL     1      58.208  22.753  39.390  0.00  0.00    +0.157 HD
ENDROOT
BRANCH  15  17
ATOM     17  C   UNL     1      56.776  23.181  40.886  0.00  0.00    +0.070 A 
ATOM     18  C   UNL     1      55.854  23.664  39.963  0.00  0.00    +0.148 A 
ATOM     19  F   UNL     1      56.248  23.805  38.679  0.00  0.00    -0.203 F 
ATOM     20  C   UNL     1      54.571  23.992  40.308  0.00  0.00    +0.086 A 
ATOM     21  C   UNL     1      54.181  23.842  41.634  0.00  0.00    +0.131 A 
ATOM     34  C   UNL     1      55.070  23.368  42.571  0.00  0.00    +0.048 A 
ATOM     35  C   UNL     1      56.361  23.052  42.203  0.00  0.00    +0.030 A 
BRANCH  21  22
ATOM     22  O   UNL     1      52.875  24.190  41.956  0.00  0.00    -0.456 OA
BRANCH  22  23
ATOM     23  C   UNL     1      52.275  23.750  43.128  0.00  0.00    +0.132 A 
ATOM     24  C   UNL     1      52.226  22.429  43.554  0.00  0.00    +0.066 A 
ATOM     25  C   UNL     1      51.589  22.149  44.732  0.00  0.00    +0.115 A 
ATOM     26  N   UNL     1      51.017  23.099  45.494  0.00  0.00    -0.250 NA
ATOM     27  C   UNL     1      51.065  24.371  45.082  0.00  0.00    +0.129 A 
ATOM     33  C   UNL     1      51.691  24.739  43.903  0.00  0.00    +0.079 A 
BRANCH  27  28
ATOM     28  C   UNL     1      50.440  25.422  45.954  0.00  0.00    +0.262 C 
ATOM     29  N   UNL     1      49.703  24.979  46.979  0.00  0.00    -0.313 N 
ATOM     30  H   UNL     1      49.514  23.929  47.065  0.00  0.00    +0.149 HD
ATOM     31  C   UNL     1      49.149  25.880  47.983  0.00  0.00    +0.128 C 
ATOM     32  O   UNL     1      50.620  26.618  45.724  0.00  0.00    -0.269 OA
ENDBRANCH  27  28
ENDBRANCH  22  23
ENDBRANCH  21  22
ENDBRANCH  15  17
BRANCH  11  10
ATOM      2  N   UNL     1      62.763  22.460  40.612  0.00  0.00    -0.218 N 
ATOM      3  N   UNL     1      63.773  22.054  41.465  0.00  0.00    -0.169 NA
ATOM      4  C   UNL     1      63.168  21.493  42.505  0.00  0.00    +0.071 A 
ATOM      9  C   UNL     1      61.805  21.534  42.318  0.00  0.00    +0.069 A 
ATOM     10  C   UNL     1      61.555  22.152  41.144  0.00  0.00    +0.130 A 
BRANCH   2   1
ATOM      1  C   UNL     1      63.092  23.110  39.387  0.00  0.00    +0.068 A 
ATOM     36  C   UNL     1      62.450  24.239  39.032  0.00  0.00    +0.038 A 
ATOM     37  C   UNL     1      62.789  24.898  37.824  0.00  0.00    +0.002 A 
ATOM     38  C   UNL     1      62.178  26.092  37.379  0.00  0.00    +0.011 A 
ATOM     39  C   UNL     1      62.585  26.671  36.211  0.00  0.00    +0.020 A 
ATOM     40  C   UNL     1      63.587  26.062  35.452  0.00  0.00    +0.111 A 
ATOM     41  N   UNL     1      64.178  24.930  35.819  0.00  0.00    -0.255 NA
ATOM     42  C   UNL     1      63.806  24.339  37.007  0.00  0.00    +0.071 A 
ATOM     43  C   UNL     1      64.443  23.156  37.419  0.00  0.00    +0.030 A 
ATOM     44  C   UNL     1      64.090  22.564  38.593  0.00  0.00    +0.030 A 
ENDBRANCH   2   1
BRANCH   4   5
ATOM      5  C   UNL     1      63.960  20.905  43.651  0.00  0.00    +0.006 C 
ATOM      6  C   UNL     1      64.019  19.405  43.501  0.00  0.00    +0.017 C 
ATOM      7  C   UNL     1      63.286  21.252  44.971  0.00  0.00    +0.017 C 
ATOM      8  C   UNL     1      65.386  21.467  43.656  0.00  0.00    +0.017 C 
ENDBRANCH   4   5
ENDBRANCH  11  10
TORSDOF 7
