REMARK  Name = 5O12
REMARK  4 active torsions:
REMARK  status: ('A' for Active; 'I' for Inactive)
REMARK    1  A    between atoms: N_5  and  C_6
REMARK    2  A    between atoms: C_6  and  C_7
REMARK    3  A    between atoms: C_13  and  C_14
REMARK    4  A    between atoms: C_14  and  C_15
REMARK                            x       y       z     vdW  Elec       q    Type
REMARK                         _______ _______ _______ _____ _____    ______ ____
ROOT
ATOM      1  N   UNL     1      72.621  52.629   8.542  0.00  0.00    -0.244 NA
ATOM      2  C   UNL     1      71.319  52.432   8.178  0.00  0.00    +0.130 A 
ATOM      3  C   UNL     1      71.238  51.207   7.553  0.00  0.00    +0.103 A 
ATOM      4  N   UNL     1      72.497  50.685   7.560  0.00  0.00    -0.351 N 
ATOM      5  H   UNL     1      72.772  49.737   7.148  0.00  0.00    +0.166 HD
ATOM      6  C   UNL     1      73.349  51.546   8.167  0.00  0.00    +0.196 A 
ENDROOT
TORSDOF 0
