REMARK  Name = 4QP2
REMARK  0 active torsions:
REMARK  status: ('A' for Active; 'I' for Inactive)
REMARK                            x       y       z     vdW  Elec       q    Type
REMARK                         _______ _______ _______ _____ _____    ______ ____
ROOT
ATOM      1  C   UNL     1     -17.667 -36.252 -28.466  0.00  0.00    +0.113 A 
ATOM      2  N   UNL     1     -17.880 -35.049 -29.088  0.00  0.00    -0.196 NA
ATOM      3  C   UNL     1     -17.469 -34.107 -28.251  0.00  0.00    +0.286 A 
ATOM      4  N   UNL     1     -17.499 -32.757 -28.458  0.00  0.00    -0.313 N 
ATOM      5  H   UNL     1     -17.136 -32.092 -27.703  0.00  0.00    +0.147 HD
ATOM      6  H   UNL     1     -17.885 -32.365 -29.376  0.00  0.00    +0.147 HD
ATOM      7  O   UNL     1     -17.012 -34.637 -27.100  0.00  0.00    -0.425 OA
ATOM      8  C   UNL     1     -17.111 -35.981 -27.195  0.00  0.00    +0.157 A 
ATOM      9  C   UNL     1     -16.784 -37.015 -26.328  0.00  0.00    +0.050 A 
ATOM     10  C   UNL     1     -16.995 -38.326 -26.708  0.00  0.00    +0.023 A 
ATOM     11  C   UNL     1     -17.539 -38.605 -27.958  0.00  0.00    +0.043 A 
ATOM     12 CL   UNL     1     -17.795 -40.255 -28.444  0.00  0.00    -0.084 Cl
ATOM     13  C   UNL     1     -17.878 -37.581 -28.827  0.00  0.00    +0.051 A 
ENDROOT
TORSDOF 0
