REMARK  Name = 5HU9
REMARK  10 active torsions:
REMARK  status: ('A' for Active; 'I' for Inactive)
REMARK    1  A    between atoms: N_3  and  C_4
REMARK    2  A    between atoms: N_7  and  C_8
REMARK    3  A    between atoms: C_8  and  C_9
REMARK    4  A    between atoms: C_10  and  C_11
REMARK    5  A    between atoms: C_18  and  C_19
REMARK    6  A    between atoms: N_21  and  C_22
REMARK    7  A    between atoms: C_26  and  C_27
REMARK    8  A    between atoms: C_28  and  O_29
REMARK    9  A    between atoms: O_29  and  C_30
REMARK   10  A    between atoms: C_36  and  C_38
REMARK                            x       y       z     vdW  Elec       q    Type
REMARK                         _______ _______ _______ _____ _____    ______ ____
ROOT
ATOM      8  C   UNL     1      -7.556 -27.628 -15.493  0.00  0.00    +0.248 C 
ATOM      9  N   UNL     1      -7.642 -28.740 -14.743  0.00  0.00    -0.281 N 
ATOM     10  H   UNL     1      -8.283 -28.734 -13.886  0.00  0.00    +0.155 HD
ATOM     33  O   UNL     1      -6.704 -27.527 -16.322  0.00  0.00    -0.270 OA
ENDROOT
BRANCH   9  11
ATOM     11  C   UNL     1      -6.955 -29.859 -15.027  0.00  0.00    +0.037 A 
ATOM     12  C   UNL     1      -7.586 -31.048 -14.740  0.00  0.00    +0.024 A 
ATOM     13  C   UNL     1      -6.995 -32.252 -15.012  0.00  0.00    +0.009 A 
ATOM     14  C   UNL     1      -5.774 -32.352 -15.582  0.00  0.00    -0.009 A 
ATOM     15  C   UNL     1      -5.112 -31.209 -15.894  0.00  0.00    +0.126 A 
ATOM     31  C   UNL     1      -5.217 -33.551 -15.859  0.00  0.00    +0.048 C 
ATOM     32  C   UNL     1      -5.711 -29.980 -15.634  0.00  0.00    +0.069 A 
BRANCH  15  16
ATOM     16  O   UNL     1      -3.925 -31.431 -16.424  0.00  0.00    -0.488 OA
BRANCH  16  17
ATOM     17  C   UNL     1      -3.246 -30.372 -17.068  0.00  0.00    +0.176 C 
ATOM     18  C   UNL     1      -1.839 -30.691 -17.240  0.00  0.00    +0.063 C 
ATOM     19  C   UNL     1      -1.621 -31.757 -18.277  0.00  0.00    +0.112 C 
ATOM     20  N   UNL     1      -2.284 -31.505 -19.532  0.00  0.00    -0.297 N 
ATOM     21  C   UNL     1      -1.681 -31.638 -20.723  0.00  0.00    +0.248 C 
ATOM     28  O   UNL     1      -2.295 -31.481 -21.744  0.00  0.00    -0.270 OA
ATOM     29  C   UNL     1      -3.640 -31.125 -19.426  0.00  0.00    +0.112 C 
ATOM     30  C   UNL     1      -3.840 -30.039 -18.398  0.00  0.00    +0.063 C 
BRANCH  21  22
ATOM     22  C   UNL     1      -0.312 -31.867 -20.833  0.00  0.00    +0.055 A 
ATOM     23  C   UNL     1       0.236 -32.785 -21.675  0.00  0.00    +0.123 A 
ATOM     24  N   UNL     1       1.581 -32.929 -21.757  0.00  0.00    -0.263 NA
ATOM     25  C   UNL     1       2.468 -32.162 -21.042  0.00  0.00    +0.111 A 
ATOM     26  C   UNL     1       1.932 -31.218 -20.235  0.00  0.00    +0.020 A 
ATOM     27  C   UNL     1       0.593 -31.086 -20.163  0.00  0.00    +0.016 A 
ENDBRANCH  21  22
ENDBRANCH  16  17
ENDBRANCH  15  16
ENDBRANCH   9  11
BRANCH   8   7
ATOM      4  C   UNL     1     -10.074 -24.298 -14.574  0.00  0.00    -0.022 A 
ATOM      5  C   UNL     1      -9.907 -25.359 -13.702  0.00  0.00    +0.006 A 
ATOM      6  C   UNL     1      -9.086 -26.432 -14.001  0.00  0.00    +0.013 A 
ATOM      7  C   UNL     1      -8.396 -26.528 -15.185  0.00  0.00    +0.038 A 
ATOM     34  C   UNL     1      -8.586 -25.447 -16.057  0.00  0.00    +0.025 A 
ATOM     35  C   UNL     1      -9.403 -24.361 -15.784  0.00  0.00    +0.060 A 
BRANCH  35  36
ATOM     36  C   UNL     1      -9.556 -23.298 -16.728  0.00  0.00    +0.418 C 
ATOM     37  F   UNL     1     -10.849 -23.053 -16.917  0.00  0.00    -0.166 F 
ATOM     38  F   UNL     1      -8.959 -22.200 -16.276  0.00  0.00    -0.166 F 
ATOM     39  F   UNL     1      -9.001 -23.663 -17.878  0.00  0.00    -0.166 F 
ENDBRANCH  35  36
BRANCH   4   3
ATOM      3  C   UNL     1     -10.885 -23.212 -14.226  0.00  0.00    +0.120 C 
BRANCH   3   2
ATOM      1  C   UNL     1      -9.513 -22.414 -12.356  0.00  0.00    +0.100 C 
ATOM      2  N   UNL     1     -10.796 -22.784 -12.827  0.00  0.00    -0.296 NA
ATOM     40  C   UNL     1     -11.799 -21.795 -12.500  0.00  0.00    +0.100 C 
ATOM     41  C   UNL     1     -11.804 -21.493 -11.037  0.00  0.00    +0.099 C 
ATOM     42  N   UNL     1     -10.510 -21.051 -10.603  0.00  0.00    -0.303 NA
ATOM     43  C   UNL     1     -10.489 -20.687  -9.187  0.00  0.00    +0.105 C 
ATOM     44  C   UNL     1      -9.502 -22.052 -10.882  0.00  0.00    +0.099 C 
ENDBRANCH   3   2
ENDBRANCH   4   3
ENDBRANCH   8   7
TORSDOF 8
