REMARK  Name = 9CT
REMARK  8 active torsions:
REMARK  status: ('A' for Active; 'I' for Inactive)
REMARK    1  A    between atoms: C2_2  and  C3_3
REMARK    2  A    between atoms: C12_5  and  C7_21
REMARK    3  A    between atoms: C18_7  and  C19_8
REMARK    4  A    between atoms: C19_8  and  C20_9
REMARK    5  A    between atoms: C20_9  and  C21_10
REMARK    6  A    between atoms: C23_12  and  O24_29
REMARK    7  A    between atoms: C27_15  and  O28_30
REMARK    8  A    between atoms: N5_19  and  C6_20
REMARK                            x       y       z     vdW  Elec       q    Type
REMARK                         _______ _______ _______ _____ _____    ______ ____
ROOT
ATOM     10  C   UNL     1       1.370 -12.925  28.256  0.00  0.00    +0.377 C 
ATOM     11  N   UNL     1       0.496 -13.068  29.297  0.00  0.00    +0.035 NA
ATOM     12  C   UNL     1      -0.366 -12.127  29.783  0.00  0.00    +0.378 C 
ATOM     13  N   UNL     1      -1.298 -12.379  30.629  0.00  0.00    +0.079 NA
ATOM     14  N   UNL     1      -2.030 -11.279  30.911  0.00  0.00    -0.043 NA
ATOM     15  C   UNL     1      -1.568 -10.277  30.206  0.00  0.00    +0.096 C 
ATOM     28  C   UNL     1      -0.504 -10.685  29.479  0.00  0.00    +0.169 C 
ATOM     29  O   UNL     1       1.489 -11.844  27.696  0.00  0.00    -0.238 OA
ENDROOT
BRANCH  10   6
ATOM      5  C   UNL     1       3.043 -14.014  26.569  0.00  0.00    +0.080 A 
ATOM      6  C   UNL     1       2.307 -14.061  27.800  0.00  0.00    +0.097 A 
ATOM      7  C   UNL     1       2.516 -15.166  28.664  0.00  0.00    +0.008 A 
ATOM      8  C   UNL     1       3.405 -16.203  28.332  0.00  0.00    +0.000 A 
ATOM      9  C   UNL     1       4.113 -16.154  27.117  0.00  0.00    +0.001 A 
ATOM     30  C   UNL     1       3.933 -15.066  26.248  0.00  0.00    +0.017 A 
BRANCH   5   4
ATOM      3  C   UNL     1       2.727 -13.012  24.312  0.00  0.00    +0.246 C 
ATOM      4  N   UNL     1       2.863 -12.921  25.658  0.00  0.00    -0.179 NA
ATOM     31  O   UNL     1       2.815 -14.061  23.695  0.00  0.00    -0.273 OA
BRANCH   3   2
ATOM      1  C   UNL     1       3.728 -11.095  22.937  0.00  0.00    +0.010 C 
ATOM      2  C   UNL     1       2.461 -11.740  23.545  0.00  0.00    +0.087 C 
ENDBRANCH   3   2
ENDBRANCH   5   4
ENDBRANCH  10   6
BRANCH  15  16
ATOM     16  C   UNL     1      -2.157  -8.895  30.309  0.00  0.00    +0.051 C 
BRANCH  16  17
ATOM     17  C   UNL     1      -1.974  -7.994  29.061  0.00  0.00    +0.033 C 
BRANCH  17  18
ATOM     18  C   UNL     1      -2.950  -6.817  29.194  0.00  0.00    -0.016 A 
ATOM     19  C   UNL     1      -2.670  -5.765  30.098  0.00  0.00    +0.033 A 
ATOM     20  C   UNL     1      -3.581  -4.703  30.265  0.00  0.00    +0.141 A 
ATOM     23  C   UNL     1      -4.779  -4.709  29.513  0.00  0.00    +0.074 A 
ATOM     24  C   UNL     1      -5.078  -5.734  28.604  0.00  0.00    +0.141 A 
ATOM     27  C   UNL     1      -4.163  -6.797  28.459  0.00  0.00    +0.033 A 
BRANCH  20  21
ATOM     21  O   UNL     1      -3.288  -3.677  31.181  0.00  0.00    -0.471 OA
ATOM     22  C   UNL     1      -3.914  -2.377  31.176  0.00  0.00    +0.253 C 
ENDBRANCH  20  21
BRANCH  24  25
ATOM     25  O   UNL     1      -6.268  -5.720  27.858  0.00  0.00    -0.471 OA
ATOM     26  C   UNL     1      -7.107  -4.553  27.655  0.00  0.00    +0.253 C 
ENDBRANCH  24  25
ENDBRANCH  17  18
ENDBRANCH  16  17
ENDBRANCH  15  16
TORSDOF 8
