REMARK  Name = 5BX0
REMARK  4 active torsions:
REMARK  status: ('A' for Active; 'I' for Inactive)
REMARK    1  A    between atoms: C_5  and  C_10
REMARK    2  A    between atoms: C_5  and  O_13
REMARK    3  A    between atoms: C_6  and  C_7
REMARK    4  A    between atoms: C_6  and  O_13
REMARK                            x       y       z     vdW  Elec       q    Type
REMARK                         _______ _______ _______ _____ _____    ______ ____
ROOT
ATOM      1  C   UNL     1      18.210 -28.686  -2.763  0.00  0.00    +0.026 A 
ATOM      2  C   UNL     1      17.639 -27.415  -2.867  0.00  0.00    +0.060 A 
ATOM      3  C   UNL     1      18.462 -26.287  -3.014  0.00  0.00    +0.017 A 
ATOM      4  C   UNL     1      19.845 -26.402  -3.026  0.00  0.00    +0.028 A 
ATOM      5  C   UNL     1      20.400 -27.672  -2.891  0.00  0.00    +0.066 A 
ATOM      6  N   UNL     1      21.686 -28.093  -2.849  0.00  0.00    -0.277 N 
ATOM      7  H   UNL     1      22.533 -27.442  -2.906  0.00  0.00    +0.189 HD
ATOM      8  N   UNL     1      21.770 -29.454  -2.725  0.00  0.00    -0.181 NA
ATOM      9  C   UNL     1      20.526 -29.895  -2.684  0.00  0.00    +0.142 A 
ATOM     15  C   UNL     1      19.601 -28.823  -2.773  0.00  0.00    +0.020 A 
ENDROOT
BRANCH   2  10
ATOM     10  C   UNL     1      16.160 -27.252  -2.777  0.00  0.00    +0.339 C 
ATOM     11  O   UNL     1      15.597 -26.175  -2.696  0.00  0.00    -0.245 OA
BRANCH  10  12
ATOM     12  O   UNL     1      15.520 -28.434  -2.816  0.00  0.00    -0.461 OA
BRANCH  12  13
ATOM     13  C   UNL     1      14.069 -28.425  -3.012  0.00  0.00    +0.229 C 
ATOM     14  C   UNL     1      13.807 -28.529  -4.485  0.00  0.00    +0.048 C 
ENDBRANCH  12  13
ENDBRANCH  10  12
ENDBRANCH   2  10
TORSDOF 3
