REMARK  Name = 2c3k_ligand
REMARK  5 active torsions:
REMARK  status: ('A' for Active; 'I' for Inactive)
REMARK    1  A    between atoms: C18_1  and  O17_2
REMARK    2  A    between atoms: O17_2  and  C12_3
REMARK    3  A    between atoms: C13_5  and  O16_6
REMARK    4  A    between atoms: C10_9  and  C8_10
REMARK    5  A    between atoms: C2_18  and  C19_19
REMARK                            x       y       z     vdW  Elec       q    Type
REMARK                         _______ _______ _______ _____ _____    ______ ____
ROOT
ATOM      8  C   UNL     1       8.042  -3.607  17.198  0.00  0.00    -0.035 A 
ATOM      9  C   UNL     1       7.032  -4.555  16.974  0.00  0.00    -0.013 A 
ATOM     10  C   UNL     1       5.809  -4.426  17.651  0.00  0.00    -0.004 A 
ATOM     11  C   UNL     1       5.594  -3.358  18.535  0.00  0.00    +0.025 A 
ATOM     12  C   UNL     1       4.547  -2.917  19.395  0.00  0.00    +0.119 A 
ATOM     23  N   UNL     1       4.944  -1.758  19.997  0.00  0.00    -0.179 NA
ATOM     24  N   UNL     1       6.123  -1.509  19.646  0.00  0.00    -0.205 N 
ATOM     25  H   UNL     1       6.665  -0.707  19.998  0.00  0.00    +0.251 HD
ATOM     26  C   UNL     1       6.609  -2.411  18.752  0.00  0.00    +0.092 A 
ATOM     27  C   UNL     1       7.834  -2.515  18.084  0.00  0.00    +0.026 A 
ENDROOT
BRANCH  12  13
ATOM     13  C   UNL     1       3.270  -3.468  19.511  0.00  0.00    +0.150 A 
ATOM     14  N   UNL     1       2.235  -2.787  20.117  0.00  0.00    -0.306 NA
ATOM     15  C   UNL     1       1.125  -3.539  20.015  0.00  0.00    +0.032 A 
ATOM     16  C   UNL     1      -0.184  -3.342  20.474  0.00  0.00    -0.006 A 
ATOM     17  C   UNL     1      -1.188  -4.338  20.221  0.00  0.00    -0.024 A 
ATOM     18  C   UNL     1      -0.823  -5.519  19.517  0.00  0.00    -0.020 A 
ATOM     19  C   UNL     1       0.521  -5.675  19.101  0.00  0.00    +0.015 A 
ATOM     20  C   UNL     1       1.483  -4.711  19.333  0.00  0.00    +0.082 A 
ATOM     21  N   UNL     1       2.807  -4.648  19.008  0.00  0.00    -0.249 N 
ATOM     22  H   UNL     1       3.349  -5.352  18.486  0.00  0.00    +0.230 HD
ENDBRANCH  12  13
BRANCH   8   7
ATOM      3  C   UNL     1      11.187  -2.610  15.460  0.00  0.00    +0.121 A 
ATOM      4  C   UNL     1      11.724  -3.868  15.177  0.00  0.00    +0.118 A 
ATOM      5  C   UNL     1      11.067  -5.041  15.566  0.00  0.00    +0.012 A 
ATOM      6  C   UNL     1       9.832  -4.962  16.247  0.00  0.00    -0.022 A 
ATOM      7  C   UNL     1       9.267  -3.709  16.536  0.00  0.00    -0.040 A 
ATOM     30  C   UNL     1       9.957  -2.538  16.146  0.00  0.00    +0.018 A 
BRANCH   3   2
ATOM      1  C   UNL     1      11.231  -0.125  15.182  0.00  0.00    +0.229 C 
ATOM      2  O   UNL     1      11.893  -1.476  15.052  0.00  0.00    -0.325 OA
ENDBRANCH   3   2
BRANCH   4  28
ATOM     28  O   UNL     1      12.917  -3.953  14.524  0.00  0.00    -0.336 OA
ATOM     29  H   UNL     1      13.149  -4.867  14.405  0.00  0.00    +0.245 HD
ENDBRANCH   4  28
ENDBRANCH   8   7
TORSDOF 4
