REMARK  Name = 2ym8_ligand
REMARK  9 active torsions:
REMARK  status: ('A' for Active; 'I' for Inactive)
REMARK    1  A    between atoms: CAA_1  and  CAZ_26
REMARK    2  A    between atoms: CAB_2  and  NBA_27
REMARK    3  A    between atoms: CAC_3  and  NBA_27
REMARK    4  A    between atoms: CAF_6  and  CAT_20
REMARK    5  A    between atoms: CAM_13  and  CAZ_26
REMARK    6  A    between atoms: CAM_13  and  NBA_27
REMARK    7  A    between atoms: NAQ_17  and  CAV_22
REMARK    8  A    between atoms: OAR_18  and  CAW_23
REMARK    9  A    between atoms: OAR_18  and  CAZ_26
REMARK                            x       y       z     vdW  Elec       q    Type
REMARK                         _______ _______ _______ _____ _____    ______ ____
ROOT
ATOM      4  C   UNL     1      13.094  -1.286  11.869  0.00  0.00    +0.218 A 
ATOM      5  C   UNL     1      11.849  -0.691  12.056  0.00  0.00    +0.213 A 
ATOM      6  N   UNL     1      11.537   0.430  11.388  0.00  0.00    -0.260 NA
ATOM      7  C   UNL     1      12.427   0.994  10.592  0.00  0.00    +0.143 A 
ATOM      8  C   UNL     1      13.684   0.425  10.411  0.00  0.00    +0.162 A 
ATOM      9  N   UNL     1      14.557   1.055   9.615  0.00  0.00    -0.239 N 
ATOM     10  H   UNL     1      14.218   1.889   9.136  0.00  0.00    +0.221 HD
ATOM     24  N   UNL     1      14.007  -0.681  11.094  0.00  0.00    -0.220 NA
ENDROOT
BRANCH   9  11
ATOM     11  C   UNL     1      15.832   0.705   9.381  0.00  0.00    +0.136 A 
ATOM     12  N   UNL     1      16.549   1.473   8.544  0.00  0.00    -0.272 NA
ATOM     13  C   UNL     1      17.818   1.222   8.266  0.00  0.00    +0.101 A 
ATOM     14  C   UNL     1      18.477   0.157   8.865  0.00  0.00    +0.015 A 
ATOM     15  C   UNL     1      17.785  -0.649   9.755  0.00  0.00    -0.014 A 
ATOM     16  C   UNL     1      18.426  -1.723  10.363  0.00  0.00    +0.009 A 
ATOM     17  C   UNL     1      19.762  -1.984  10.076  0.00  0.00    +0.005 A 
ATOM     18  C   UNL     1      20.456  -1.175   9.182  0.00  0.00    +0.017 A 
ATOM     19  C   UNL     1      19.813  -0.102   8.575  0.00  0.00    +0.053 A 
ATOM     20 CL   UNL     1      20.676   0.906   7.462  0.00  0.00    -0.066 Cl
ATOM     21  C   UNL     1      16.449  -0.368  10.022  0.00  0.00    +0.048 A 
ENDBRANCH   9  11
BRANCH   5  22
ATOM     22  C   UNL     1      10.877  -1.310  12.913  0.00  0.00    +0.110 C 
ATOM     23  N   UNL     1      10.113  -1.804  13.600  0.00  0.00    -0.336 NA
ENDBRANCH   5  22
BRANCH   4   3
ATOM      3  O   UNL     1      13.421  -2.405  12.580  0.00  0.00    -0.284 OA
BRANCH   3   2
ATOM      1  C   UNL     1      15.199  -3.321  11.244  0.00  0.00    +0.043 C 
ATOM      2  C   UNL     1      14.845  -2.623  12.559  0.00  0.00    +0.133 C 
BRANCH   2  25
ATOM     25  C   UNL     1      15.283  -3.626  13.612  0.00  0.00    -0.072 C 
BRANCH  25  26
ATOM     26  N   UNL     1      14.930  -3.035  14.913  0.00  0.00    +0.401 NA
ATOM     27  C   UNL     1      15.629  -1.746  15.020  0.00  0.00    -0.132 C 
ATOM     28  C   UNL     1      15.313  -3.911  16.028  0.00  0.00    -0.132 C 
ENDBRANCH  25  26
ENDBRANCH   2  25
ENDBRANCH   3   2
ENDBRANCH   4   3
TORSDOF 6
