REMARK  Name = 3idp_ligand
REMARK  5 active torsions:
REMARK  status: ('A' for Active; 'I' for Inactive)
REMARK    1  A    between atoms: C7_2  and  C3_28
REMARK    2  A    between atoms: C20_7  and  C19_22
REMARK    3  A    between atoms: C24_10  and  N25_18
REMARK    4  A    between atoms: C26_11  and  N25_18
REMARK    5  A    between atoms: C14_23  and  N13_24
REMARK                            x       y       z     vdW  Elec       q    Type
REMARK                         _______ _______ _______ _____ _____    ______ ____
ROOT
ATOM     17  C   UNL     1      23.342  43.535  38.683  0.00  0.00    +0.079 A 
ATOM     18  C   UNL     1      22.446  44.256  39.489  0.00  0.00    -0.020 A 
ATOM     19  C   UNL     1      21.515  45.126  38.923  0.00  0.00    -0.014 A 
ATOM     20  C   UNL     1      21.456  45.289  37.546  0.00  0.00    -0.011 A 
ATOM     21  C   UNL     1      22.338  44.574  36.736  0.00  0.00    +0.024 A 
ATOM     22  C   UNL     1      22.303  44.706  35.346  0.00  0.00    +0.136 A 
ATOM     23  N   UNL     1      23.157  44.007  34.581  0.00  0.00    -0.294 NA
ATOM     24  C   UNL     1      24.050  43.176  35.094  0.00  0.00    +0.050 A 
ATOM     25  C   UNL     1      24.135  43.003  36.468  0.00  0.00    +0.003 A 
ATOM     35  C   UNL     1      22.453  44.120  41.006  0.00  0.00    +0.076 C 
ATOM     36  C   UNL     1      23.271  43.703  37.304  0.00  0.00    +0.010 A 
ENDROOT
BRANCH  17  15
ATOM     10  C   UNL     1      26.464  41.806  39.481  0.00  0.00    +0.055 A 
ATOM     11  C   UNL     1      25.567  42.880  39.228  0.00  0.00    +0.147 A 
ATOM     12  N   UNL     1      26.042  44.135  39.023  0.00  0.00    -0.276 NA
ATOM     13  C   UNL     1      27.343  44.412  39.039  0.00  0.00    +0.081 A 
ATOM     14  C   UNL     1      28.272  43.399  39.271  0.00  0.00    +0.018 A 
ATOM     15  N   UNL     1      24.240  42.677  39.204  0.00  0.00    -0.257 N 
ATOM     16  H   UNL     1      23.883  41.802  39.614  0.00  0.00    +0.215 HD
ATOM     37  C   UNL     1      27.834  42.094  39.491  0.00  0.00    +0.034 A 
BRANCH  10   9
ATOM      1  C   UNL     1      24.292  38.899  39.717  0.00  0.00    +0.171 A 
ATOM      2  N   UNL     1      25.106  37.901  40.014  0.00  0.00    -0.255 NA
ATOM      3  C   UNL     1      26.420  38.142  40.153  0.00  0.00    +0.169 A 
ATOM      4  N   UNL     1      27.460  37.356  40.436  0.00  0.00    -0.231 N 
ATOM      5  H   UNL     1      27.415  36.342  40.610  0.00  0.00    +0.241 HD
ATOM      6  C   UNL     1      28.569  38.100  40.456  0.00  0.00    +0.251 A 
ATOM      7  N   UNL     1      28.236  39.363  40.186  0.00  0.00    -0.291 NA
ATOM      8  C   UNL     1      26.918  39.435  39.994  0.00  0.00    +0.089 A 
ATOM      9  C   UNL     1      26.029  40.476  39.684  0.00  0.00    +0.071 A 
ATOM     38  N   UNL     1      24.726  40.147  39.545  0.00  0.00    -0.280 NA
ENDBRANCH  10   9
ENDBRANCH  17  15
BRANCH  22  26
ATOM     26  N   UNL     1      21.430  45.530  34.774  0.00  0.00    -0.256 N 
ATOM     27  H   UNL     1      21.082  46.329  35.322  0.00  0.00    +0.217 HD
BRANCH  26  28
ATOM     28  C   UNL     1      20.982  45.375  33.527  0.00  0.00    +0.065 A 
ATOM     29  C   UNL     1      20.740  46.524  32.767  0.00  0.00    +0.016 A 
ATOM     30  C   UNL     1      20.272  46.405  31.462  0.00  0.00    +0.002 A 
ATOM     31  C   UNL     1      20.044  45.136  30.926  0.00  0.00    +0.028 A 
ATOM     32 CL   UNL     1      19.452  45.005  29.308  0.00  0.00    -0.081 Cl
ATOM     33  C   UNL     1      20.280  43.982  31.678  0.00  0.00    +0.002 A 
ATOM     34  C   UNL     1      20.751  44.105  32.983  0.00  0.00    +0.016 A 
ENDBRANCH  26  28
ENDBRANCH  22  26
TORSDOF 4
