REMARK  Name = 5MTY
REMARK  7 active torsions:
REMARK  status: ('A' for Active; 'I' for Inactive)
REMARK    1  A    between atoms: C_5  and  C_6
REMARK    2  A    between atoms: N_8  and  C_9
REMARK    3  A    between atoms: C_16  and  N_17
REMARK    4  A    between atoms: C_33  and  C_34
REMARK    5  A    between atoms: N_36  and  C_37
REMARK    6  A    between atoms: C_37  and  C_38
REMARK    7  A    between atoms: C_38  and  O_39
REMARK                            x       y       z     vdW  Elec       q    Type
REMARK                         _______ _______ _______ _____ _____    ______ ____
ROOT
ATOM     11  N   UNL     1      20.401  -0.562 -20.743  0.00  0.00    -0.245 NA
ATOM     12  C   UNL     1      20.248   0.063 -21.939  0.00  0.00    +0.064 C 
ATOM     13  C   UNL     1      20.738  -0.389 -23.187  0.00  0.00    +0.025 C 
ATOM     14  C   UNL     1      20.513   0.361 -24.330  0.00  0.00    -0.004 C 
ATOM     15  C   UNL     1      19.796   1.554 -24.298  0.00  0.00    +0.093 C 
ATOM     16  C   UNL     1      19.295   2.020 -23.072  0.00  0.00    -0.048 C 
ATOM     17  C   UNL     1      18.519   3.210 -22.819  0.00  0.00    +0.037 C 
ATOM     18  C   UNL     1      17.594   3.633 -24.007  0.00  0.00    +0.040 C 
ATOM     19  C   UNL     1      18.469   4.277 -24.866  0.00  0.00    -0.036 A 
ATOM     20  C   UNL     1      19.463   3.608 -25.561  0.00  0.00    +0.023 A 
ATOM     21  C   UNL     1      20.364   4.312 -26.328  0.00  0.00    +0.024 A 
ATOM     22  C   UNL     1      20.252   5.695 -26.425  0.00  0.00    +0.037 A 
ATOM     31  C   UNL     1      19.254   6.379 -25.726  0.00  0.00    +0.013 A 
ATOM     32  C   UNL     1      18.372   5.675 -24.925  0.00  0.00    +0.005 A 
ATOM     33  C   UNL     1      19.662   2.233 -25.529  0.00  0.00    +0.179 C 
ATOM     34  O   UNL     1      19.666   1.647 -26.600  0.00  0.00    -0.291 OA
ATOM     35  C   UNL     1      19.541   1.277 -21.907  0.00  0.00    +0.028 C 
ENDROOT
BRANCH  11  10
ATOM      6  C   UNL     1      21.136  -3.857 -19.402  0.00  0.00    +0.071 A 
ATOM      7  C   UNL     1      22.423  -4.035 -19.888  0.00  0.00    +0.147 A 
ATOM      8  C   UNL     1      23.055  -3.072 -20.675  0.00  0.00    +0.080 A 
ATOM      9  C   UNL     1      22.393  -1.894 -20.981  0.00  0.00    +0.152 A 
ATOM     10  C   UNL     1      21.078  -1.704 -20.513  0.00  0.00    +0.102 A 
ATOM     36  F   UNL     1      22.992  -0.997 -21.745  0.00  0.00    -0.203 F 
ATOM     37  F   UNL     1      23.003  -5.079 -19.606  0.00  0.00    -0.203 F 
ATOM     38  C   UNL     1      20.488  -2.668 -19.720  0.00  0.00    +0.057 A 
BRANCH   6   4
ATOM      3  C   UNL     1      19.330  -5.193 -18.644  0.00  0.00    +0.255 C 
ATOM      4  N   UNL     1      20.660  -4.881 -18.649  0.00  0.00    -0.279 N 
ATOM      5  H   UNL     1      21.337  -5.453 -18.050  0.00  0.00    +0.155 HD
ATOM     39  O   UNL     1      18.493  -4.588 -19.288  0.00  0.00    -0.269 OA
BRANCH   3   2
ATOM      1  C   UNL     1      19.416  -6.577 -16.716  0.00  0.00    +0.020 A 
ATOM      2  C   UNL     1      18.931  -6.223 -17.890  0.00  0.00    +0.074 A 
ATOM     40  S   UNL     1      17.789  -7.221 -18.210  0.00  0.00    -0.092 S 
ATOM     41  C   UNL     1      17.850  -8.169 -16.948  0.00  0.00    +0.046 A 
ATOM     42  C   UNL     1      18.814  -7.667 -16.193  0.00  0.00    +0.008 A 
ENDBRANCH   3   2
ENDBRANCH   6   4
ENDBRANCH  11  10
BRANCH  22  23
ATOM     23  C   UNL     1      21.171   6.388 -27.203  0.00  0.00    +0.244 C 
ATOM     24  N   UNL     1      21.645   7.528 -26.672  0.00  0.00    -0.309 N 
ATOM     25  H   UNL     1      21.264   7.882 -25.737  0.00  0.00    +0.149 HD
ATOM     30  O   UNL     1      21.621   5.927 -28.246  0.00  0.00    -0.270 OA
BRANCH  24  26
ATOM     26  C   UNL     1      22.677   8.281 -27.369  0.00  0.00    +0.132 C 
BRANCH  26  27
ATOM     27  C   UNL     1      22.483   9.755 -27.074  0.00  0.00    +0.174 C 
BRANCH  27  28
ATOM     28  O   UNL     1      21.379  10.209 -27.878  0.00  0.00    -0.394 OA
ATOM     29  H   UNL     1      21.601  10.062 -28.894  0.00  0.00    +0.209 HD
ENDBRANCH  27  28
ENDBRANCH  26  27
ENDBRANCH  24  26
ENDBRANCH  22  23
TORSDOF 7
