REMARK  Name = 2Y0A
REMARK  3 active torsions:
REMARK  status: ('A' for Active; 'I' for Inactive)
REMARK    1  A    between atoms: N_4  and  C_7
REMARK    2  A    between atoms: C_7  and  C_8
REMARK    3  A    between atoms: C_8  and  S_9
REMARK                            x       y       z     vdW  Elec       q    Type
REMARK                         _______ _______ _______ _____ _____    ______ ____
ROOT
ATOM      1  O   UNL     1       7.274 -12.145 -13.087  0.00  0.00    -0.377 OA
ATOM      2  C   UNL     1       7.947 -11.383 -14.093  0.00  0.00    +0.175 C 
ATOM      3  C   UNL     1       9.442 -11.629 -13.973  0.00  0.00    +0.112 C 
ATOM      4  N   UNL     1       9.625 -13.066 -14.123  0.00  0.00    -0.296 NA
ATOM     11  C   UNL     1       8.845 -14.015 -13.316  0.00  0.00    +0.112 C 
ATOM     12  C   UNL     1       7.387 -13.559 -13.262  0.00  0.00    +0.175 C 
ENDROOT
BRANCH   4   5
ATOM      5  C   UNL     1      10.621 -13.566 -15.068  0.00  0.00    +0.106 C 
BRANCH   5   6
ATOM      6  C   UNL     1      11.887 -13.727 -14.223  0.00  0.00    +0.168 C 
BRANCH   6   7
ATOM      7  S   UNL     1      13.137 -14.568 -14.936  0.00  0.00    -0.079 S 
ATOM      8  O   UNL     1      12.582 -15.656 -15.754  0.00  0.00    -0.185 OA
ATOM      9  O   UNL     1      14.086 -15.119 -13.930  0.00  0.00    -0.725 OA
ATOM     10  O   UNL     1      13.848 -13.649 -15.833  0.00  0.00    -0.185 OA
ENDBRANCH   6   7
ENDBRANCH   5   6
ENDBRANCH   4   5
TORSDOF 3
