REMARK  Name = 5AP2
REMARK  11 active torsions:
REMARK  status: ('A' for Active; 'I' for Inactive)
REMARK    1  A    between atoms: C_2  and  O_3
REMARK    2  A    between atoms: O_3  and  C_4
REMARK    3  A    between atoms: C_4  and  C_5
REMARK    4  A    between atoms: C_4  and  C_6
REMARK    5  A    between atoms: C_8  and  C_9
REMARK    6  A    between atoms: N_12  and  C_13
REMARK    7  A    between atoms: C_19  and  N_22
REMARK    8  A    between atoms: N_22  and  C_23
REMARK    9  A    between atoms: C_26  and  C_29
REMARK   10  A    between atoms: C_32  and  C_33
REMARK   11  A    between atoms: N_34  and  C_35
REMARK                            x       y       z     vdW  Elec       q    Type
REMARK                         _______ _______ _______ _____ _____    ______ ____
ROOT
ATOM      1  O   UNL     1       3.072 -36.137 -14.307  0.00  0.00    -0.223 OA
ATOM      2  C   UNL     1       2.370 -35.778 -13.396  0.00  0.00    +0.421 C 
ATOM      3  N   UNL     1       2.136 -34.428 -13.101  0.00  0.00    -0.245 N 
ATOM      4  C   UNL     1       1.342 -33.935 -12.038  0.00  0.00    +0.065 A 
ATOM      5  C   UNL     1       0.594 -34.582 -11.063  0.00  0.00    +0.070 A 
ATOM      6  C   UNL     1      -0.096 -33.783 -10.153  0.00  0.00    +0.125 A 
ATOM     22  N   UNL     1      -0.059 -32.448 -10.182  0.00  0.00    -0.239 NA
ATOM     23  C   UNL     1       0.673 -31.864 -11.136  0.00  0.00    +0.123 A 
ATOM     24  C   UNL     1       1.401 -32.531 -12.102  0.00  0.00    +0.019 A 
ATOM     25  C   UNL     1       2.236 -32.190 -13.217  0.00  0.00    +0.038 A 
ATOM     26  C   UNL     1       2.660 -33.344 -13.801  0.00  0.00    +0.064 A 
ENDROOT
BRANCH  26  27
ATOM     27  C   UNL     1       3.490 -33.398 -14.966  0.00  0.00    +0.036 A 
ATOM     28  C   UNL     1       3.240 -32.640 -16.094  0.00  0.00    +0.118 A 
ATOM     29  N   UNL     1       4.189 -32.946 -16.986  0.00  0.00    -0.274 N 
ATOM     30  C   UNL     1       4.348 -32.413 -18.333  0.00  0.00    +0.172 C 
ATOM     31  N   UNL     1       5.069 -33.882 -16.491  0.00  0.00    -0.179 NA
ATOM     32  C   UNL     1       4.638 -34.148 -15.271  0.00  0.00    +0.144 A 
ENDBRANCH  26  27
BRANCH   6   7
ATOM      7  N   UNL     1      -0.880 -34.330  -9.158  0.00  0.00    -0.299 N 
ATOM      8  H   UNL     1      -1.361 -33.627  -8.511  0.00  0.00    +0.154 HD
BRANCH   7   9
ATOM      9  C   UNL     1      -1.134 -35.685  -8.877  0.00  0.00    +0.032 A 
ATOM     10  C   UNL     1      -1.042 -36.636  -9.882  0.00  0.00    +0.024 A 
ATOM     11  C   UNL     1      -1.290 -37.967  -9.607  0.00  0.00    +0.012 A 
ATOM     12  C   UNL     1      -1.634 -38.375  -8.324  0.00  0.00    +0.000 A 
ATOM     20  C   UNL     1      -1.726 -37.417  -7.322  0.00  0.00    +0.012 A 
ATOM     21  C   UNL     1      -1.479 -36.085  -7.594  0.00  0.00    +0.024 A 
BRANCH  12  13
ATOM     13  C   UNL     1      -1.891 -39.799  -8.033  0.00  0.00    +0.068 A 
ATOM     14  N   UNL     1      -2.840 -40.295  -7.130  0.00  0.00    -0.331 N 
ATOM     15  C   UNL     1      -3.763 -39.543  -6.276  0.00  0.00    +0.150 C 
ATOM     16  C   UNL     1      -2.720 -41.667  -7.210  0.00  0.00    +0.107 A 
ATOM     17  C   UNL     1      -3.567 -42.580  -6.404  0.00  0.00    +0.086 C 
ATOM     18  N   UNL     1      -1.796 -42.063  -8.064  0.00  0.00    -0.240 NA
ATOM     19  C   UNL     1      -1.259 -40.921  -8.596  0.00  0.00    +0.139 A 
ENDBRANCH  12  13
ENDBRANCH   7   9
ENDBRANCH   6   7
BRANCH   2  33
ATOM     33  O   UNL     1       1.736 -36.606 -12.556  0.00  0.00    -0.445 OA
BRANCH  33  34
ATOM     34  C   UNL     1       1.874 -38.045 -12.812  0.00  0.00    +0.172 C 
ATOM     35  C   UNL     1       2.276 -38.690 -11.528  0.00  0.00    +0.052 C 
ATOM     36  C   UNL     1       0.563 -38.535 -13.330  0.00  0.00    +0.052 C 
ENDBRANCH  33  34
ENDBRANCH   2  33
TORSDOF 6
