REMARK  Name = 4X7O
REMARK  6 active torsions:
REMARK  status: ('A' for Active; 'I' for Inactive)
REMARK    1  A    between atoms: C_2  and  C_5
REMARK    2  A    between atoms: C_11  and  C_12
REMARK    3  A    between atoms: C_12  and  C_13
REMARK    4  A    between atoms: C_23  and  C_24
REMARK    5  A    between atoms: N_27  and  C_28
REMARK    6  A    between atoms: C_31  and  C_32
REMARK                            x       y       z     vdW  Elec       q    Type
REMARK                         _______ _______ _______ _____ _____    ______ ____
ROOT
ATOM      9  C   UNL     1     -41.155  47.251  -7.452  0.00  0.00    +0.224 C 
ATOM     10  N   UNL     1     -41.855  47.967  -8.349  0.00  0.00    -0.271 N 
ATOM     11  C   UNL     1     -42.022  47.668  -9.647  0.00  0.00    +0.040 A 
ATOM     12  C   UNL     1     -41.467  46.677 -10.454  0.00  0.00    +0.024 A 
ATOM     13  C   UNL     1     -41.880  46.532 -11.787  0.00  0.00    +0.010 A 
ATOM     14  C   UNL     1     -42.836  47.382 -12.354  0.00  0.00    -0.015 A 
ATOM     29  C   UNL     1     -43.425  48.348 -11.537  0.00  0.00    +0.014 A 
ATOM     30  C   UNL     1     -43.017  48.493 -10.205  0.00  0.00    -0.024 A 
ATOM     31  C   UNL     1     -43.485  49.485  -9.150  0.00  0.00    +0.056 C 
ATOM     32  C   UNL     1     -42.781  49.013  -7.890  0.00  0.00    +0.118 C 
ATOM     33  O   UNL     1     -40.420  46.319  -7.794  0.00  0.00    -0.275 OA
ENDROOT
BRANCH  14  15
ATOM     15  C   UNL     1     -43.292  47.168 -13.662  0.00  0.00    +0.012 A 
ATOM     16  C   UNL     1     -44.583  46.906 -13.915  0.00  0.00    +0.096 A 
ATOM     17  N   UNL     1     -44.746  46.682 -15.215  0.00  0.00    -0.334 N 
ATOM     18  C   UNL     1     -43.587  46.765 -15.846  0.00  0.00    +0.146 A 
ATOM     19  N   UNL     1     -43.272  46.616 -17.145  0.00  0.00    -0.215 NA
ATOM     20  C   UNL     1     -42.001  46.744 -17.539  0.00  0.00    +0.130 A 
ATOM     21  N   UNL     1     -41.030  47.029 -16.637  0.00  0.00    -0.217 NA
ATOM     22  C   UNL     1     -41.304  47.193 -15.322  0.00  0.00    +0.130 A 
ATOM     23  N   UNL     1     -40.333  47.473 -14.460  0.00  0.00    -0.343 N 
ATOM     24  H   UNL     1     -39.325  47.576 -14.804  0.00  0.00    +0.144 HD
ATOM     25  H   UNL     1     -40.559  47.596 -13.421  0.00  0.00    +0.144 HD
ATOM     26  C   UNL     1     -41.685  46.564 -19.024  0.00  0.00    +0.088 C 
ATOM     27  C   UNL     1     -46.039  46.385 -15.874  0.00  0.00    +0.150 C 
ATOM     28  C   UNL     1     -42.614  47.058 -14.883  0.00  0.00    +0.066 A 
ENDBRANCH  14  15
BRANCH   9   8
ATOM      8  C   UNL     1     -41.266  47.614  -5.959  0.00  0.00    +0.131 C 
BRANCH   8   7
ATOM      3  C   UNL     1     -39.572  50.735  -4.598  0.00  0.00    +0.058 A 
ATOM      4  C   UNL     1     -38.223  50.346  -4.635  0.00  0.00    +0.050 A 
ATOM      5  C   UNL     1     -37.868  49.072  -5.095  0.00  0.00    +0.124 A 
ATOM      6  C   UNL     1     -38.853  48.188  -5.515  0.00  0.00    +0.042 A 
ATOM      7  C   UNL     1     -40.190  48.581  -5.493  0.00  0.00    -0.035 A 
ATOM     34  F   UNL     1     -36.585  48.657  -5.133  0.00  0.00    -0.205 F 
ATOM     35  C   UNL     1     -40.555  49.844  -5.028  0.00  0.00    +0.016 A 
BRANCH   3   2
ATOM      1  F   UNL     1     -41.051  52.052  -3.293  0.00  0.00    -0.166 F 
ATOM      2  C   UNL     1     -39.994  52.127  -4.083  0.00  0.00    +0.417 C 
ATOM     36  F   UNL     1     -40.310  52.906  -5.112  0.00  0.00    -0.166 F 
ATOM     37  F   UNL     1     -39.021  52.644  -3.343  0.00  0.00    -0.166 F 
ENDBRANCH   3   2
ENDBRANCH   8   7
ENDBRANCH   9   8
TORSDOF 4
