REMARK  Name = 5J87
REMARK  14 active torsions:
REMARK  status: ('A' for Active; 'I' for Inactive)
REMARK    1  A    between atoms: C_1  and  C_2
REMARK    2  A    between atoms: C_2  and  C_3
REMARK    3  A    between atoms: N_5  and  C_6
REMARK    4  A    between atoms: C_8  and  C_9
REMARK    5  A    between atoms: C_19  and  N_20
REMARK    6  A    between atoms: N_25  and  C_26
REMARK    7  A    between atoms: C_28  and  C_29
REMARK    8  A    between atoms: C_30  and  C_31
REMARK    9  A    between atoms: C_35  and  N_36
REMARK   10  A    between atoms: C_37  and  C_39
REMARK   11  A    between atoms: C_42  and  C_43
REMARK   12  A    between atoms: C_43  and  C_44
REMARK   13  A    between atoms: C_43  and  C_45
REMARK   14  A    between atoms: C_43  and  C_46
REMARK                            x       y       z     vdW  Elec       q    Type
REMARK                         _______ _______ _______ _____ _____    ______ ____
ROOT
ATOM     11  N   UNL     1      25.414 -28.796  95.936  0.00  0.00    -0.243 NA
ATOM     12  C   UNL     1      26.649 -28.291  95.716  0.00  0.00    +0.127 C 
ATOM     13  C   UNL     1      26.723 -27.594  94.521  0.00  0.00    +0.265 C 
ATOM     14  N   UNL     1      27.866 -27.031  94.133  0.00  0.00    -0.295 N 
ATOM     15  C   UNL     1      29.017 -27.098  94.905  0.00  0.00    +0.143 C 
ATOM     16  C   UNL     1      29.019 -27.781  96.107  0.00  0.00    -0.021 C 
ATOM     38  C   UNL     1      27.897 -26.299  92.860  0.00  0.00    +0.133 C 
ATOM     39  O   UNL     1      25.735 -27.502  93.807  0.00  0.00    -0.268 OA
ATOM     40  C   UNL     1      27.803 -28.387  96.515  0.00  0.00    +0.039 C 
ENDROOT
BRANCH  16  17
ATOM     17  C   UNL     1      30.208 -27.861  96.881  0.00  0.00    -0.016 A 
ATOM     18  C   UNL     1      30.084 -27.735  98.253  0.00  0.00    +0.008 A 
ATOM     19  C   UNL     1      31.197 -27.834  99.069  0.00  0.00    +0.002 A 
ATOM     20  C   UNL     1      32.461 -28.051  98.561  0.00  0.00    +0.023 A 
ATOM     21  C   UNL     1      32.631 -28.164  97.198  0.00  0.00    +0.037 A 
ATOM     36  C   UNL     1      31.499 -28.094  96.360  0.00  0.00    -0.022 A 
ATOM     37  C   UNL     1      31.681 -28.242  95.002  0.00  0.00    +0.046 C 
BRANCH  21  22
ATOM     22  N   UNL     1      33.850 -28.405  96.648  0.00  0.00    -0.281 N 
ATOM     23  H   UNL     1      34.172 -29.418  96.528  0.00  0.00    +0.155 HD
ATOM     24  C   UNL     1      34.677 -27.398  96.244  0.00  0.00    +0.248 C 
ATOM     35  O   UNL     1      34.408 -26.210  96.306  0.00  0.00    -0.270 OA
BRANCH  24  25
ATOM     25  C   UNL     1      35.874 -27.783  95.633  0.00  0.00    +0.037 A 
ATOM     26  C   UNL     1      36.074 -29.083  95.206  0.00  0.00    +0.013 A 
ATOM     27  C   UNL     1      37.267 -29.433  94.586  0.00  0.00    +0.005 A 
ATOM     28  C   UNL     1      38.277 -28.516  94.361  0.00  0.00    -0.042 A 
ATOM     33  C   UNL     1      38.085 -27.209  94.784  0.00  0.00    +0.005 A 
ATOM     34  C   UNL     1      36.891 -26.862  95.401  0.00  0.00    +0.013 A 
BRANCH  28  29
ATOM     29  C   UNL     1      39.471 -28.899  93.748  0.00  0.00    -0.013 C 
ATOM     30  C   UNL     1      40.226 -27.688  93.216  0.00  0.00    +0.015 C 
ATOM     31  C   UNL     1      40.348 -29.599  94.770  0.00  0.00    +0.015 C 
ATOM     32  C   UNL     1      39.198 -29.858  92.601  0.00  0.00    +0.015 C 
ENDBRANCH  28  29
ENDBRANCH  24  25
ENDBRANCH  21  22
ENDBRANCH  16  17
BRANCH  11  10
ATOM      6  C   UNL     1      25.409 -31.211  98.718  0.00  0.00    +0.048 A 
ATOM      7  C   UNL     1      24.066 -31.187  99.095  0.00  0.00    +0.058 A 
ATOM      8  C   UNL     1      23.215 -30.341  98.401  0.00  0.00    +0.017 A 
ATOM      9  C   UNL     1      23.707 -29.566  97.356  0.00  0.00    +0.028 A 
ATOM     10  C   UNL     1      25.038 -29.582  96.970  0.00  0.00    +0.067 A 
ATOM     49  C   UNL     1      25.889 -30.426  97.668  0.00  0.00    +0.051 A 
BRANCH   7  41
ATOM     41  C   UNL     1      23.581 -31.933 100.174  0.00  0.00    +0.249 C 
ATOM     42  N   UNL     1      22.491 -32.714 100.082  0.00  0.00    -0.293 N 
ATOM     43  C   UNL     1      21.747 -32.898  98.830  0.00  0.00    +0.136 C 
ATOM     44  C   UNL     1      20.309 -33.341  99.044  0.00  0.00    +0.178 C 
ATOM     45  O   UNL     1      20.212 -34.284 100.098  0.00  0.00    -0.377 OA
ATOM     46  C   UNL     1      20.581 -33.634 101.302  0.00  0.00    +0.178 C 
ATOM     47  C   UNL     1      22.045 -33.425 101.301  0.00  0.00    +0.136 C 
ATOM     48  O   UNL     1      24.160 -31.782 101.248  0.00  0.00    -0.270 OA
ENDBRANCH   7  41
BRANCH   6   4
ATOM      3  C   UNL     1      26.104 -33.294  99.596  0.00  0.00    +0.217 C 
ATOM      4  N   UNL     1      26.276 -31.990  99.366  0.00  0.00    -0.285 N 
ATOM      5  H   UNL     1      27.175 -31.537  99.728  0.00  0.00    +0.155 HD
ATOM     50  O   UNL     1      25.130 -33.972  99.304  0.00  0.00    -0.276 OA
BRANCH   3   2
ATOM      1  C   UNL     1      28.393 -33.952  99.119  0.00  0.00    +0.013 C 
ATOM      2  C   UNL     1      27.328 -33.935 100.229  0.00  0.00    +0.093 C 
ENDBRANCH   3   2
ENDBRANCH   6   4
ENDBRANCH  11  10
TORSDOF 8
