REMARK  Name = 1di8_ligand
REMARK  6 active torsions:
REMARK  status: ('A' for Active; 'I' for Inactive)
REMARK    1  A    between atoms: C8_8  and  O26_19
REMARK    2  A    between atoms: C9_9  and  O31_21
REMARK    3  A    between atoms: N12_11  and  C14_12
REMARK    4  A    between atoms: C16_14  and  O21_18
REMARK    5  A    between atoms: O26_19  and  C27_20
REMARK    6  A    between atoms: O31_21  and  C32_22
REMARK                            x       y       z     vdW  Elec       q    Type
REMARK                         _______ _______ _______ _____ _____    ______ ____
ROOT
ATOM      1  N   UNL     1      -9.264  52.309  13.372  0.00  0.00    -0.261 NA
ATOM      2  C   UNL     1     -10.204  52.972  12.599  0.00  0.00    +0.155 A 
ATOM      3  N   UNL     1     -10.828  52.353  11.520  0.00  0.00    -0.305 NA
ATOM      4  C   UNL     1     -10.505  51.015  11.131  0.00  0.00    +0.027 A 
ATOM      5  C   UNL     1      -9.432  50.241  11.937  0.00  0.00    +0.040 A 
ATOM      6  C   UNL     1      -9.052  48.898  11.469  0.00  0.00    +0.038 A 
ATOM      7  C   UNL     1      -9.751  48.253  10.309  0.00  0.00    +0.132 A 
ATOM      8  C   UNL     1     -10.854  48.991   9.593  0.00  0.00    +0.132 A 
ATOM     13  C   UNL     1     -11.178  50.377   9.993  0.00  0.00    +0.033 A 
ATOM     14  C   UNL     1      -8.863  50.942  13.132  0.00  0.00    +0.151 A 
ATOM     15  N   UNL     1      -7.942  50.318  14.011  0.00  0.00    -0.251 N 
ATOM     16  H   UNL     1      -7.745  49.347  13.731  0.00  0.00    +0.221 HD
ENDROOT
BRANCH  15  17
ATOM     17  C   UNL     1      -7.229  50.682  15.165  0.00  0.00    +0.059 A 
ATOM     18  C   UNL     1      -6.365  49.615  15.721  0.00  0.00    +0.036 A 
ATOM     19  C   UNL     1      -5.572  49.843  16.948  0.00  0.00    +0.079 A 
ATOM     20  C   UNL     1      -5.570  51.162  17.592  0.00  0.00    +0.001 A 
ATOM     21  C   UNL     1      -6.419  52.245  17.062  0.00  0.00    -0.023 A 
ATOM     24  C   UNL     1      -7.262  52.003  15.878  0.00  0.00    -0.003 A 
BRANCH  19  22
ATOM     22  O   UNL     1      -4.834  48.824  17.509  0.00  0.00    -0.336 OA
ATOM     23  H   UNL     1      -4.391  49.146  18.286  0.00  0.00    +0.248 HD
ENDBRANCH  19  22
ENDBRANCH  15  17
BRANCH   8   9
ATOM      9  O   UNL     1     -11.547  48.278   8.582  0.00  0.00    -0.316 OA
ATOM     10  C   UNL     1     -12.396  48.892   7.605  0.00  0.00    +0.234 C 
ENDBRANCH   8   9
BRANCH   7  11
ATOM     11  O   UNL     1      -9.463  46.930   9.855  0.00  0.00    -0.320 OA
ATOM     12  C   UNL     1      -8.482  46.117  10.508  0.00  0.00    +0.231 C 
ENDBRANCH   7  11
TORSDOF 4
