REMARK  Name = 3itz_ligand
REMARK  4 active torsions:
REMARK  status: ('A' for Active; 'I' for Inactive)
REMARK    1  A    between atoms: N3_2  and  C4_3
REMARK    2  A    between atoms: C19_14  and  N5_15
REMARK    3  A    between atoms: C18_16  and  C14_18
REMARK    4  A    between atoms: C12_21  and  N4_22
REMARK                            x       y       z     vdW  Elec       q    Type
REMARK                         _______ _______ _______ _____ _____    ______ ____
ROOT
ATOM      1  N   UNL     1       1.983  31.008  31.048  0.00  0.00    -0.286 NA
ATOM      2  N   UNL     1       0.835  30.812  31.477  0.00  0.00    -0.278 NA
ATOM      3  C   UNL     1      -0.095  31.764  31.522  0.00  0.00    +0.168 A 
ATOM      4  C   UNL     1       0.220  33.044  31.069  0.00  0.00    +0.161 A 
ATOM      5  C   UNL     1       1.495  33.277  30.589  0.00  0.00    +0.084 A 
ATOM      6  C   UNL     1       1.516  34.562  30.232  0.00  0.00    +0.115 A 
ATOM      7  N   UNL     1       0.307  35.076  30.489  0.00  0.00    -0.177 NA
ATOM      8  N   UNL     1      -0.430  34.202  30.969  0.00  0.00    -0.132 N 
ATOM     17  C   UNL     1       2.404  32.210  30.585  0.00  0.00    +0.131 A 
ATOM     18  N   UNL     1       3.659  32.370  30.136  0.00  0.00    -0.249 N 
ATOM     19  H   UNL     1       3.956  33.303  29.816  0.00  0.00    +0.222 HD
ENDROOT
BRANCH   8   9
ATOM      9  C   UNL     1      -1.704  34.397  31.339  0.00  0.00    +0.187 A 
ATOM     10  C   UNL     1      -2.002  34.870  32.621  0.00  0.00    +0.170 A 
ATOM     11  F   UNL     1      -1.010  35.125  33.489  0.00  0.00    -0.185 F 
ATOM     12  C   UNL     1      -3.325  35.081  33.018  0.00  0.00    +0.021 A 
ATOM     13  C   UNL     1      -4.364  34.815  32.129  0.00  0.00    -0.016 A 
ATOM     14  C   UNL     1      -4.072  34.338  30.849  0.00  0.00    +0.021 A 
ATOM     15  C   UNL     1      -2.750  34.134  30.456  0.00  0.00    +0.170 A 
ATOM     16  F   UNL     1      -2.487  33.675  29.220  0.00  0.00    -0.185 F 
ENDBRANCH   8   9
BRANCH  18  20
ATOM     20  C   UNL     1       4.539  31.362  30.089  0.00  0.00    +0.088 A 
ATOM     21  C   UNL     1       5.534  31.208  31.065  0.00  0.00    +0.069 A 
ATOM     22 CL   UNL     1       5.677  32.317  32.389  0.00  0.00    -0.074 Cl
ATOM     23  C   UNL     1       6.445  30.149  30.978  0.00  0.00    +0.010 A 
ATOM     24  C   UNL     1       6.365  29.237  29.925  0.00  0.00    +0.005 A 
ATOM     25  C   UNL     1       5.370  29.382  28.956  0.00  0.00    +0.041 A 
ATOM     33  C   UNL     1       4.468  30.445  29.039  0.00  0.00    +0.043 A 
BRANCH  25  26
ATOM     26  C   UNL     1       5.257  28.399  27.780  0.00  0.00    +0.203 C 
ATOM     27  O   UNL     1       4.368  28.549  26.940  0.00  0.00    -0.385 OA
ATOM     28  N   UNL     1       6.179  27.427  27.750  0.00  0.00    -0.283 N 
ATOM     29  H   UNL     1       6.862  27.402  28.480  0.00  0.00    +0.185 HD
BRANCH  28  30
ATOM     30  C   UNL     1       6.244  26.392  26.702  0.00  0.00    +0.097 C 
ATOM     31  C   UNL     1       7.619  26.193  26.050  0.00  0.00    +0.030 C 
ATOM     32  C   UNL     1       6.509  26.903  25.283  0.00  0.00    +0.030 C 
ENDBRANCH  28  30
ENDBRANCH  25  26
ENDBRANCH  18  20
TORSDOF 4
