REMARK  Name = 4YU2
REMARK  4 active torsions:
REMARK  status: ('A' for Active; 'I' for Inactive)
REMARK    1  A    between atoms: N_4  and  C_9
REMARK    2  A    between atoms: C_9  and  C_10
REMARK    3  A    between atoms: C_14  and  O_15
REMARK    4  A    between atoms: O_15  and  C_16
REMARK                            x       y       z     vdW  Elec       q    Type
REMARK                         _______ _______ _______ _____ _____    ______ ____
ROOT
ATOM      1  C   UNL     1       8.875 -24.350  28.609  0.00  0.00    +0.008 A 
ATOM      2  C   UNL     1       9.130 -25.139  29.687  0.00  0.00    +0.014 A 
ATOM      3  C   UNL     1      10.080 -26.123  29.568  0.00  0.00    +0.046 A 
ATOM      4  C   UNL     1      10.742 -26.277  28.374  0.00  0.00    +0.122 A 
ATOM      7  C   UNL     1      10.442 -25.451  27.291  0.00  0.00    +0.072 A 
ATOM      8  C   UNL     1       9.482 -24.467  27.412  0.00  0.00    +0.055 A 
ATOM      9  N   UNL     1       8.926 -23.492  26.597  0.00  0.00    -0.324 N 
ATOM     13  C   UNL     1       7.981 -22.819  27.305  0.00  0.00    +0.088 A 
ATOM     14  C   UNL     1       7.177 -21.775  26.951  0.00  0.00    +0.153 A 
ATOM     15  N   UNL     1       6.305 -21.253  27.827  0.00  0.00    -0.241 NA
ATOM     16  C   UNL     1       6.211 -21.750  29.064  0.00  0.00    +0.113 A 
ATOM     17  C   UNL     1       7.040 -22.812  29.458  0.00  0.00    +0.030 A 
ATOM     18 CL   UNL     1       7.266 -21.100  25.324  0.00  0.00    -0.060 Cl
ATOM     19  C   UNL     1       7.919 -23.310  28.526  0.00  0.00    +0.012 A 
ENDROOT
BRANCH   4   5
ATOM      5  O   UNL     1      11.701 -27.259  28.304  0.00  0.00    -0.495 OA
ATOM      6  C   UNL     1      12.315 -27.646  27.063  0.00  0.00    +0.277 C 
ENDBRANCH   4   5
BRANCH   9  10
ATOM     10  C   UNL     1       9.228 -23.161  25.182  0.00  0.00    +0.241 C 
BRANCH  10  11
ATOM     11  C   UNL     1      10.470 -23.704  24.653  0.00  0.00    +0.084 C 
ATOM     12  N   UNL     1      11.481 -23.957  24.141  0.00  0.00    -0.195 NA
ENDBRANCH  10  11
ENDBRANCH   9  10
TORSDOF 3
