REMARK  Name = AXNH
REMARK  4 active torsions:
REMARK  status: ('A' for Active; 'I' for Inactive)
REMARK    1  A    between atoms: C1_1  and  O_19
REMARK    2  A    between atoms: C7_5  and  C8_6
REMARK    3  A    between atoms: C7_5  and  C6_11
REMARK    4  A    between atoms: C6_11  and  N4_12
REMARK                            x       y       z     vdW  Elec       q    Type
REMARK                         _______ _______ _______ _____ _____    ______ ____
ROOT
ATOM      1  N   UNL     1      62.304  50.708 142.589  0.00  0.00    +0.000 NA
ENDROOT
TORSDOF 0
