REMARK  Name = 6I5H
REMARK  4 active torsions:
REMARK  status: ('A' for Active; 'I' for Inactive)
REMARK    1  A    between atoms: C14_3  and  O1_23
REMARK    2  A    between atoms: C2_9  and  C4_11
REMARK    3  A    between atoms: C9_17  and  C10_20
REMARK    4  A    between atoms: O1_23  and  C15_24
REMARK                            x       y       z     vdW  Elec       q    Type
REMARK                         _______ _______ _______ _____ _____    ______ ____
ROOT
ATOM     13  C   UNL     1     -18.175  14.420  17.973  0.00  0.00    +0.050 A 
ATOM     14  C   UNL     1     -19.286  14.340  18.748  0.00  0.00    -0.150 A 
ATOM     15  O   UNL     1     -20.054  13.263  18.457  0.00  0.00    +0.000 OA
ATOM     16  C   UNL     1     -19.390  12.618  17.444  0.00  0.00    +0.000 A 
ATOM     17  C   UNL     1     -19.722  11.397  16.909  0.00  0.00    -0.130 A 
ATOM     18  C   UNL     1     -18.876  10.903  15.925  0.00  0.00    -0.130 A 
ATOM     19  C   UNL     1     -17.740  11.644  15.574  0.00  0.00    +0.100 A 
ATOM     20  N   UNL     1     -17.428  12.813  16.146  0.00  0.00    -0.450 NA
ATOM     27  C   UNL     1     -18.278  13.290  17.066  0.00  0.00    +0.350 A 
ENDROOT
BRANCH  13   2
ATOM      1  C   UNL     1     -16.729  16.065  19.162  0.00  0.00    -0.130 A 
ATOM      2  C   UNL     1     -17.069  15.401  17.986  0.00  0.00    +0.000 A 
ATOM      3  C   UNL     1     -16.253  15.558  16.868  0.00  0.00    -0.130 A 
ATOM      4  C   UNL     1     -15.161  16.398  16.927  0.00  0.00    +0.185 A 
ATOM     12  C   UNL     1     -14.824  17.070  18.094  0.00  0.00    -0.130 A 
ATOM     28  C   UNL     1     -15.626  16.892  19.211  0.00  0.00    -0.130 A 
BRANCH   4   5
ATOM      5  O   UNL     1     -14.401  16.639  15.778  0.00  0.00    -0.370 OA
BRANCH   5   6
ATOM      6  C   UNL     1     -13.493  15.680  15.355  0.00  0.00    +0.185 A 
ATOM      7  C   UNL     1     -12.785  15.948  14.199  0.00  0.00    -0.130 A 
ATOM      8  C   UNL     1     -11.807  15.058  13.784  0.00  0.00    -0.130 A 
ATOM      9  C   UNL     1     -11.560  13.906  14.504  0.00  0.00    -0.130 A 
ATOM     10  C   UNL     1     -12.293  13.634  15.638  0.00  0.00    -0.130 A 
ATOM     11  C   UNL     1     -13.255  14.520  16.082  0.00  0.00    -0.130 A 
ENDBRANCH   5   6
ENDBRANCH   4   5
ENDBRANCH  13   2
BRANCH  19  21
ATOM     21  C   UNL     1     -16.755  11.184  14.556  0.00  0.00    +0.100 A 
ATOM     22  C   UNL     1     -15.542  11.778  14.314  0.00  0.00    -0.050 A 
ATOM     23  N   UNL     1     -14.924  11.059  13.368  0.00  0.00    -0.150 N 
ATOM     24  N   UNL     1     -15.667  10.007  12.955  0.00  0.00    -0.100 NA
ATOM     25  C   UNL     1     -13.607  11.290  12.804  0.00  0.00    -0.100 C 
ATOM     26  C   UNL     1     -16.775  10.078  13.682  0.00  0.00    -0.050 A 
ENDBRANCH  19  21
TORSDOF 4
