REMARK  Name = 9EM
REMARK  5 active torsions:
REMARK  status: ('A' for Active; 'I' for Inactive)
REMARK    1  A    between atoms: C33_7  and  C36_19
REMARK    2  A    between atoms: N25_15  and  C26_16
REMARK    3  A    between atoms: C39_21  and  C50_29
REMARK    4  A    between atoms: N56_33  and  C57_34
REMARK    5  A    between atoms: C57_34  and  C60_35
REMARK                            x       y       z     vdW  Elec       q    Type
REMARK                         _______ _______ _______ _____ _____    ______ ____
ROOT
ATOM     10  C   UNL     1      37.209  13.760  34.002  0.00  0.00    +0.083 A 
ATOM     11  C   UNL     1      36.209  12.888  33.645  0.00  0.00    +0.022 A 
ATOM     12  C   UNL     1      35.144  13.622  33.056  0.00  0.00    +0.039 A 
ATOM     13  C   UNL     1      35.513  14.983  33.056  0.00  0.00    +0.119 A 
ATOM     14  C   UNL     1      34.970  16.244  32.647  0.00  0.00    +0.189 A 
ATOM     15  N   UNL     1      35.660  17.362  32.840  0.00  0.00    -0.203 NA
ATOM     16  C   UNL     1      36.862  17.279  33.414  0.00  0.00    +0.221 A 
ATOM     17  N   UNL     1      37.481  16.216  33.828  0.00  0.00    -0.142 NA
ATOM     18  N   UNL     1      33.761  16.335  32.058  0.00  0.00    -0.106 NA
ATOM     29  N   UNL     1      36.762  15.044  33.632  0.00  0.00    -0.225 N 
ENDROOT
BRANCH  10   9
ATOM      5  C   UNL     1      40.920  13.714  34.634  0.00  0.00    +0.054 A 
ATOM      6  C   UNL     1      40.996  13.021  35.844  0.00  0.00    +0.015 A 
ATOM      7  C   UNL     1      39.832  12.560  36.448  0.00  0.00    +0.001 A 
ATOM      8  C   UNL     1      38.596  12.788  35.854  0.00  0.00    +0.002 A 
ATOM      9  C   UNL     1      38.510  13.481  34.649  0.00  0.00    +0.019 A 
ATOM     30  C   UNL     1      39.675  13.941  34.040  0.00  0.00    +0.016 A 
BRANCH   5   4
ATOM      1  C   UNL     1      44.221  13.603  31.319  0.00  0.00    +0.029 C 
ATOM      2  C   UNL     1      44.308  14.010  32.790  0.00  0.00    +0.129 C 
ATOM      3  C   UNL     1      43.072  13.385  33.474  0.00  0.00    +0.245 C 
ATOM      4  N   UNL     1      42.096  14.203  33.992  0.00  0.00    -0.256 N 
ATOM     31  C   UNL     1      42.161  15.669  33.930  0.00  0.00    +0.120 C 
ATOM     32  C   UNL     1      43.598  16.091  34.005  0.00  0.00    +0.116 C 
ATOM     33  O   UNL     1      42.971  12.166  33.544  0.00  0.00    -0.273 OA
ATOM     34  C   UNL     1      45.548  13.347  33.389  0.00  0.00    +0.029 C 
ATOM     35  N   UNL     1      44.406  15.501  32.927  0.00  0.00    -0.273 N 
ATOM     36  C   UNL     1      45.195  16.318  32.116  0.00  0.00    +0.226 C 
ATOM     37  C   UNL     1      45.173  17.796  32.373  0.00  0.00    +0.095 C 
ATOM     38  O   UNL     1      45.895  15.864  31.227  0.00  0.00    -0.275 OA
ENDBRANCH   5   4
ENDBRANCH  10   9
BRANCH  12  19
ATOM     19  C   UNL     1      33.894  13.054  32.559  0.00  0.00    +0.081 A 
ATOM     20  C   UNL     1      32.621  13.589  32.763  0.00  0.00    +0.041 A 
ATOM     21  C   UNL     1      31.759  12.706  32.120  0.00  0.00    +0.122 A 
ATOM     22  N   UNL     1      32.398  11.692  31.550  0.00  0.00    -0.167 NA
ATOM     23  N   UNL     1      33.721  11.920  31.828  0.00  0.00    -0.242 N 
BRANCH  23  24
ATOM     24  C   UNL     1      34.725  10.996  31.326  0.00  0.00    +0.230 C 
BRANCH  24  25
ATOM     25  C   UNL     1      34.807  11.054  29.828  0.00  0.00    +0.420 C 
ATOM     26  F   UNL     1      35.053  12.291  29.409  0.00  0.00    -0.168 F 
ATOM     27  F   UNL     1      35.751  10.263  29.321  0.00  0.00    -0.168 F 
ATOM     28  F   UNL     1      33.662  10.687  29.258  0.00  0.00    -0.168 F 
ENDBRANCH  24  25
ENDBRANCH  23  24
ENDBRANCH  12  19
TORSDOF 5
