REMARK  Name = 4FV6
REMARK  12 active torsions:
REMARK  status: ('A' for Active; 'I' for Inactive)
REMARK    1  A    between atoms: C_2  and  CA_14
REMARK    2  A    between atoms: N_3  and  CA_4
REMARK    3  A    between atoms: CA_4  and  C_5
REMARK    4  A    between atoms: CA_4  and  C_7
REMARK    5  A    between atoms: C_5  and  O_6
REMARK    6  A    between atoms: C_16  and  C_19
REMARK    7  A    between atoms: C_20  and  C_21
REMARK    8  A    between atoms: N_26  and  CA_27
REMARK    9  A    between atoms: CA_27  and  C_28
REMARK   10  A    between atoms: CA_27  and  C_30
REMARK   11  A    between atoms: C_28  and  O_29
REMARK   12  A    between atoms: C_30  and  C_31
REMARK                            x       y       z     vdW  Elec       q    Type
REMARK                         _______ _______ _______ _____ _____    ______ ____
ROOT
ATOM      3  CA  UNL     1       9.610  -3.097 -15.129  0.00  0.00    +0.102 A 
ATOM      4  N   UNL     1       9.019  -3.142 -16.371  0.00  0.00    -0.356 N 
ATOM      5  H   UNL     1       9.454  -3.446 -17.232  0.00  0.00    +0.166 HD
ATOM      6  C   UNL     1       7.765  -2.647 -16.302  0.00  0.00    +0.093 A 
ATOM      7  C   UNL     1       7.509  -2.270 -15.001  0.00  0.00    +0.019 A 
ATOM     23  C   UNL     1       8.687  -2.530 -14.281  0.00  0.00    +0.042 A 
ENDROOT
BRANCH   7   8
ATOM      8  C   UNL     1       6.202  -1.796 -14.559  0.00  0.00    +0.080 A 
ATOM      9  N   UNL     1       5.177  -2.236 -15.314  0.00  0.00    -0.214 NA
ATOM     10  C   UNL     1       3.956  -1.731 -15.057  0.00  0.00    +0.216 A 
ATOM     11  N   UNL     1       2.924  -2.105 -15.833  0.00  0.00    -0.308 N 
ATOM     12  H   UNL     1       2.039  -1.666 -15.594  0.00  0.00    +0.149 HD
ATOM     19  N   UNL     1       3.653  -0.847 -14.104  0.00  0.00    -0.223 NA
ATOM     20  C   UNL     1       4.674  -0.443 -13.347  0.00  0.00    +0.120 A 
ATOM     21  C   UNL     1       5.983  -0.874 -13.496  0.00  0.00    -0.006 A 
ATOM     22  C   UNL     1       7.049  -0.379 -12.556  0.00  0.00    +0.048 C 
BRANCH  11  13
ATOM     13  CA  UNL     1       2.879  -3.038 -16.959  0.00  0.00    +0.098 C 
BRANCH  13  14
ATOM     14  C   UNL     1       1.411  -3.210 -17.369  0.00  0.00    +0.021 C 
ATOM     15  C   UNL     1       0.625  -4.026 -16.401  0.00  0.00    +0.005 C 
ENDBRANCH  13  14
BRANCH  13  16
ATOM     16  C   UNL     1       3.726  -2.491 -18.096  0.00  0.00    +0.178 C 
BRANCH  16  17
ATOM     17  O   UNL     1       3.379  -3.059 -19.354  0.00  0.00    -0.393 OA
ATOM     18  H   UNL     1       3.475  -4.044 -19.278  0.00  0.00    +0.209 HD
ENDBRANCH  16  17
ENDBRANCH  13  16
ENDBRANCH  11  13
ENDBRANCH   7   8
BRANCH   3   2
ATOM      1  O   UNL     1      11.713  -3.030 -14.030  0.00  0.00    -0.269 OA
ATOM      2  C   UNL     1      11.060  -3.451 -14.976  0.00  0.00    +0.261 C 
ATOM     24  N   UNL     1      11.618  -4.184 -15.950  0.00  0.00    -0.301 N 
ATOM     25  H   UNL     1      11.077  -4.565 -16.719  0.00  0.00    +0.150 HD
BRANCH  24  26
ATOM     26  CA  UNL     1      13.006  -4.642 -15.972  0.00  0.00    +0.129 C 
BRANCH  26  27
ATOM     27  C   UNL     1      13.314  -5.719 -14.951  0.00  0.00    -0.024 A 
ATOM     28  C   UNL     1      12.300  -6.458 -14.365  0.00  0.00    +0.006 A 
ATOM     29  C   UNL     1      12.584  -7.395 -13.386  0.00  0.00    +0.002 A 
ATOM     30  C   UNL     1      13.894  -7.647 -13.023  0.00  0.00    +0.020 A 
ATOM     31  C   UNL     1      14.902  -6.951 -13.649  0.00  0.00    +0.041 A 
ATOM     32 CL   UNL     1      16.558  -7.381 -13.333  0.00  0.00    -0.084 Cl
ATOM     33  C   UNL     1      14.633  -5.972 -14.587  0.00  0.00    +0.025 A 
ENDBRANCH  26  27
BRANCH  26  34
ATOM     34  C   UNL     1      13.328  -5.181 -17.359  0.00  0.00    +0.183 C 
BRANCH  34  35
ATOM     35  O   UNL     1      13.033  -4.223 -18.357  0.00  0.00    -0.393 OA
ATOM     36  H   UNL     1      13.734  -3.524 -18.309  0.00  0.00    +0.209 HD
ENDBRANCH  34  35
ENDBRANCH  26  34
ENDBRANCH  24  26
ENDBRANCH   3   2
TORSDOF 10
