REMARK  Name = 4USE
REMARK  9 active torsions:
REMARK  status: ('A' for Active; 'I' for Inactive)
REMARK    1  A    between atoms: C_1  and  C_2
REMARK    2  A    between atoms: C_4  and  S_5
REMARK    3  A    between atoms: S_5  and  C_8
REMARK    4  A    between atoms: C_11  and  C_12
REMARK    5  A    between atoms: N_13  and  C_14
REMARK    6  A    between atoms: C_16  and  C_17
REMARK    7  A    between atoms: C_23  and  C_24
REMARK    8  A    between atoms: C_29  and  O_30
REMARK    9  A    between atoms: O_30  and  C_31
REMARK                            x       y       z     vdW  Elec       q    Type
REMARK                         _______ _______ _______ _____ _____    ______ ____
ROOT
ATOM      4  C   UNL     1       2.442  -6.353 -51.952  0.00  0.00    +0.142 A 
ATOM      5  N   UNL     1       2.460  -6.401 -53.269  0.00  0.00    -0.227 NA
ATOM      6  C   UNL     1       1.864  -5.293 -53.704  0.00  0.00    +0.097 A 
ATOM      7  C   UNL     1       1.456  -4.588 -52.629  0.00  0.00    +0.077 A 
ATOM     26  N   UNL     1       1.828  -5.244 -51.537  0.00  0.00    -0.326 N 
ATOM     27  C   UNL     1       1.634  -4.876 -50.102  0.00  0.00    +0.151 C 
ENDROOT
BRANCH   7   8
ATOM      8  C   UNL     1       0.836  -3.411 -52.588  0.00  0.00    +0.001 A 
ATOM      9  C   UNL     1       1.507  -2.284 -52.109  0.00  0.00    +0.010 A 
ATOM     10  C   UNL     1       0.890  -1.031 -52.049  0.00  0.00    +0.009 A 
ATOM     11  C   UNL     1      -0.421  -0.902 -52.481  0.00  0.00    -0.014 A 
ATOM     12  C   UNL     1      -1.071   0.336 -52.446  0.00  0.00    +0.054 A 
ATOM     13  C   UNL     1      -2.400   0.441 -52.885  0.00  0.00    +0.121 A 
ATOM     16  C   UNL     1      -3.056  -0.683 -53.370  0.00  0.00    +0.046 A 
ATOM     17  C   UNL     1      -2.403  -1.907 -53.405  0.00  0.00    +0.012 A 
ATOM     18  C   UNL     1      -1.091  -2.025 -52.962  0.00  0.00    -0.017 A 
ATOM     19  C   UNL     1      -0.472  -3.269 -53.012  0.00  0.00    +0.018 A 
BRANCH  13  14
ATOM     14  O   UNL     1      -3.068   1.632 -52.883  0.00  0.00    -0.495 OA
ATOM     15  C   UNL     1      -3.560   2.044 -51.602  0.00  0.00    +0.277 C 
ENDBRANCH  13  14
ENDBRANCH   7   8
BRANCH   4   3
ATOM      1  C   UNL     1       5.178  -6.332 -51.140  0.00  0.00    +0.044 C 
ATOM      2  C   UNL     1       4.283  -7.326 -50.739  0.00  0.00    -0.038 A 
ATOM      3  C   UNL     1       2.943  -7.303 -51.162  0.00  0.00    +0.021 A 
ATOM     28  C   UNL     1       2.066  -8.302 -50.745  0.00  0.00    +0.013 A 
ATOM     29  C   UNL     1       2.510  -9.321 -49.911  0.00  0.00    +0.028 A 
ATOM     30  C   UNL     1       3.838  -9.357 -49.486  0.00  0.00    +0.088 A 
ATOM     35  C   UNL     1       4.725  -8.357 -49.900  0.00  0.00    +0.031 A 
BRANCH  30  31
ATOM     31  S   UNL     1       4.374 -10.685 -48.408  0.00  0.00    -0.006 S 
ATOM     32  C   UNL     1       6.037 -11.166 -48.844  0.00  0.00    +0.200 C 
ATOM     33  O   UNL     1       3.437 -11.889 -48.546  0.00  0.00    -0.170 OA
ATOM     34  O   UNL     1       4.346 -10.205 -46.952  0.00  0.00    -0.170 OA
ENDBRANCH  30  31
ENDBRANCH   4   3
BRANCH   6  20
ATOM     20  C   UNL     1       1.714  -5.077 -55.028  0.00  0.00    +0.005 A 
ATOM     21  C   UNL     1       1.811  -6.185 -55.880  0.00  0.00    +0.030 A 
ATOM     22  C   UNL     1       1.645  -6.055 -57.250  0.00  0.00    +0.111 A 
ATOM     23  N   UNL     1       1.383  -4.807 -57.803  0.00  0.00    -0.263 NA
ATOM     24  C   UNL     1       1.299  -3.690 -56.969  0.00  0.00    +0.111 A 
ATOM     25  C   UNL     1       1.457  -3.824 -55.597  0.00  0.00    +0.030 A 
ENDBRANCH   6  20
TORSDOF 5
