REMARK  Name = 25K
REMARK  3 active torsions:
REMARK  status: ('A' for Active; 'I' for Inactive)
REMARK    1  A    between atoms: C7_10  and  N_11
REMARK    2  A    between atoms: N_11  and  C5_13
REMARK    3  A    between atoms: C5_13  and  C4_14
REMARK                            x       y       z     vdW  Elec       q    Type
REMARK                         _______ _______ _______ _____ _____    ______ ____
ROOT
ATOM      1  C   UNL     1      31.082  19.343   1.898  0.00  0.00    +0.052 C 
ATOM      2  C   UNL     1      31.297  18.132   1.003  0.00  0.00    +0.061 C 
ATOM      3  C   UNL     1      30.178  17.288   0.756  0.00  0.00    +0.029 C 
ATOM      4  C   UNL     1      30.341  16.125  -0.054  0.00  0.00    +0.192 C 
ATOM     15  N   UNL     1      31.612  15.908  -0.616  0.00  0.00    -0.199 N 
ATOM     16  C   UNL     1      32.702  16.872  -0.326  0.00  0.00    +0.252 C 
ATOM     17  N   UNL     1      33.788  16.521  -1.046  0.00  0.00    -0.186 NA
ATOM     18  C   UNL     1      33.368  15.352  -1.755  0.00  0.00    +0.222 C 
ATOM     19  N   UNL     1      32.070  14.924  -1.537  0.00  0.00    -0.142 NA
ATOM     20  N   UNL     1      32.556  17.944   0.469  0.00  0.00    -0.215 NA
ENDROOT
BRANCH   4   5
ATOM      5  N   UNL     1      29.279  15.255  -0.205  0.00  0.00    -0.246 NA
ATOM      6  C   UNL     1      28.077  15.415   0.679  0.00  0.00    +0.092 C 
BRANCH   5   7
ATOM      7  C   UNL     1      29.133  14.513  -1.493  0.00  0.00    +0.101 C 
BRANCH   7   8
ATOM      8  C   UNL     1      28.774  15.421  -2.640  0.00  0.00    -0.006 A 
ATOM      9  C   UNL     1      27.510  16.046  -2.622  0.00  0.00    -0.003 A 
ATOM     10  C   UNL     1      27.123  16.867  -3.677  0.00  0.00    -0.004 A 
ATOM     11  C   UNL     1      27.914  17.076  -4.734  0.00  0.00    -0.022 A 
ATOM     12  C   UNL     1      29.194  16.452  -4.773  0.00  0.00    -0.004 A 
ATOM     13  C   UNL     1      27.428  17.941  -5.870  0.00  0.00    +0.031 C 
ATOM     14  C   UNL     1      29.621  15.628  -3.706  0.00  0.00    -0.003 A 
ENDBRANCH   7   8
ENDBRANCH   5   7
ENDBRANCH   4   5
TORSDOF 3
