REMARK  Name = 8Q9
REMARK  10 active torsions:
REMARK  status: ('A' for Active; 'I' for Inactive)
REMARK    1  A    between atoms: NAW_6  and  CAV_7
REMARK    2  A    between atoms: CAV_7  and  CAU_8
REMARK    3  A    between atoms: CAU_8  and  NAT_9
REMARK    4  A    between atoms: CAR_10  and  CAQ_12
REMARK    5  A    between atoms: CAQ_12  and  OAL_13
REMARK    6  A    between atoms: OAL_13  and  CAB_14
REMARK    7  A    between atoms: CAA_23  and  NAK_24
REMARK    8  A    between atoms: NAK_24  and  SAM_25
REMARK    9  A    between atoms: SAM_25  and  CAP_28
REMARK   10  A    between atoms: CBC_34  and  OBH_35
REMARK                            x       y       z     vdW  Elec       q    Type
REMARK                         _______ _______ _______ _____ _____    ______ ____
ROOT
ATOM      1  B   UNL     1      -8.450   2.000   9.000  0.00  0.00    +0.000 B 
ENDROOT
TORSDOF 0
