REMARK  Name = 3c5u_ligand
REMARK  5 active torsions:
REMARK  status: ('A' for Active; 'I' for Inactive)
REMARK    1  A    between atoms: C18_2  and  C19_6
REMARK    2  A    between atoms: C17_3  and  C19_6
REMARK    3  A    between atoms: C15_5  and  C9_17
REMARK    4  A    between atoms: C19_6  and  N22_22
REMARK    5  A    between atoms: C10_18  and  C14_19
REMARK                            x       y       z     vdW  Elec       q    Type
REMARK                         _______ _______ _______ _____ _____    ______ ____
ROOT
ATOM      1  C   UNL     1      -7.549  36.213  41.511  0.00  0.00    +0.049 A 
ATOM      2  S   UNL     1      -7.074  34.804  42.381  0.00  0.00    +0.028 S 
ATOM      3  C   UNL     1      -7.117  33.846  40.923  0.00  0.00    +0.186 A 
ATOM      4  N   UNL     1      -6.840  32.529  40.932  0.00  0.00    -0.277 N 
ATOM      5  H   UNL     1      -6.650  32.122  41.859  0.00  0.00    +0.194 HD
ATOM      9  N   UNL     1      -7.469  34.504  39.847  0.00  0.00    -0.306 NA
ATOM     10  C   UNL     1      -7.738  37.517  41.988  0.00  0.00    +0.012 A 
ATOM     11  C   UNL     1      -8.174  38.502  41.080  0.00  0.00    +0.005 A 
ATOM     12  C   UNL     1      -8.325  38.171  39.730  0.00  0.00    -0.010 A 
ATOM     13  C   UNL     1      -8.099  36.853  39.240  0.00  0.00    -0.009 A 
ATOM     26  C   UNL     1      -7.721  35.846  40.160  0.00  0.00    +0.011 A 
ENDROOT
BRANCH  11  14
ATOM     14  C   UNL     1      -8.342  39.880  41.502  0.00  0.00    +0.148 A 
ATOM     15  O   UNL     1      -7.515  40.253  42.544  0.00  0.00    -0.226 OA
ATOM     16  C   UNL     1      -7.764  41.564  42.816  0.00  0.00    +0.307 A 
ATOM     17  N   UNL     1      -8.661  42.090  42.051  0.00  0.00    -0.296 NA
ATOM     18  C   UNL     1      -9.023  41.037  41.205  0.00  0.00    +0.053 A 
BRANCH  18  19
ATOM     19  C   UNL     1     -10.027  41.298  40.241  0.00  0.00    +0.012 A 
ATOM     20  C   UNL     1      -9.692  42.149  39.204  0.00  0.00    -0.004 A 
ATOM     21  C   UNL     1     -10.674  42.464  38.292  0.00  0.00    -0.012 A 
ATOM     22  C   UNL     1     -11.963  41.951  38.426  0.00  0.00    -0.010 A 
ATOM     23  C   UNL     1     -12.299  41.127  39.462  0.00  0.00    +0.028 A 
ATOM     24  C   UNL     1     -11.331  40.813  40.385  0.00  0.00    +0.135 A 
ATOM     25  F   UNL     1     -11.678  39.997  41.406  0.00  0.00    -0.185 F 
ENDBRANCH  18  19
ENDBRANCH  11  14
BRANCH   4   6
ATOM      6  C   UNL     1      -6.771  31.592  39.805  0.00  0.00    +0.097 C 
ATOM      7  C   UNL     1      -5.763  31.933  38.691  0.00  0.00    +0.035 C 
ATOM      8  C   UNL     1      -8.058  30.880  39.446  0.00  0.00    +0.035 C 
ENDBRANCH   4   6
TORSDOF 3
