REMARK  Name = 2oji_ligand
REMARK  5 active torsions:
REMARK  status: ('A' for Active; 'I' for Inactive)
REMARK    1  A    between atoms: C6_5  and  C8_7
REMARK    2  A    between atoms: C13_12  and  C14_13
REMARK    3  A    between atoms: C18_16  and  C20_18
REMARK    4  A    between atoms: N22_20  and  C23_21
REMARK    5  A    between atoms: C23_21  and  C24_22
REMARK                            x       y       z     vdW  Elec       q    Type
REMARK                         _______ _______ _______ _____ _____    ______ ____
ROOT
ATOM      7  C   UNL     1     -15.324  11.953  40.268  0.00  0.00    -0.020 A 
ATOM      8  C   UNL     1     -14.046  12.425  40.638  0.00  0.00    -0.012 A 
ATOM      9  C   UNL     1     -13.140  11.977  39.723  0.00  0.00    +0.126 A 
ATOM     21  N   UNL     1     -13.834  11.227  38.786  0.00  0.00    -0.275 N 
ATOM     22  H   UNL     1     -13.418  10.754  37.971  0.00  0.00    +0.237 HD
ATOM     23  C   UNL     1     -15.146  11.217  39.116  0.00  0.00    +0.127 A 
ENDROOT
BRANCH   7   6
ATOM      5  C   UNL     1     -17.104  13.300  41.797  0.00  0.00    +0.003 A 
ATOM      6  C   UNL     1     -16.653  12.180  40.980  0.00  0.00    +0.027 A 
ATOM     24  N   UNL     1     -17.656  11.313  40.953  0.00  0.00    -0.223 NA
ATOM     25  N   UNL     1     -18.723  11.816  41.700  0.00  0.00    -0.222 N 
ATOM     26  H   UNL     1     -19.628  11.345  41.844  0.00  0.00    +0.258 HD
ATOM     27  C   UNL     1     -18.378  13.010  42.199  0.00  0.00    +0.164 A 
BRANCH   5   4
ATOM      1  C   UNL     1     -15.019  16.528  41.721  0.00  0.00    +0.035 A 
ATOM      2 CL   UNL     1     -14.095  17.480  40.619  0.00  0.00    -0.072 Cl
ATOM      3  C   UNL     1     -15.646  15.351  41.278  0.00  0.00    +0.009 A 
ATOM      4  C   UNL     1     -16.399  14.567  42.192  0.00  0.00    -0.035 A 
ATOM     28  C   UNL     1     -16.506  14.991  43.545  0.00  0.00    -0.006 A 
ATOM     29  C   UNL     1     -15.881  16.168  43.979  0.00  0.00    -0.006 A 
ATOM     30  C   UNL     1     -15.133  16.942  43.066  0.00  0.00    +0.005 A 
ENDBRANCH   5   4
ENDBRANCH   7   6
BRANCH   9  10
ATOM     10  C   UNL     1     -11.687  12.244  39.741  0.00  0.00    +0.219 C 
ATOM     11  N   UNL     1     -11.161  13.189  40.601  0.00  0.00    -0.276 N 
ATOM     12  H   UNL     1     -11.779  13.680  41.215  0.00  0.00    +0.186 HD
ATOM     20  O   UNL     1     -10.967  11.628  38.974  0.00  0.00    -0.391 OA
BRANCH  11  13
ATOM     13  C   UNL     1      -9.702  13.503  40.646  0.00  0.00    +0.200 C 
BRANCH  13  14
ATOM     14  C   UNL     1      -9.367  14.684  39.739  0.00  0.00    -0.021 A 
ATOM     15  C   UNL     1     -10.369  15.631  39.384  0.00  0.00    -0.003 A 
ATOM     16  C   UNL     1     -10.060  16.730  38.532  0.00  0.00    -0.009 A 
ATOM     17  C   UNL     1      -8.753  16.881  38.040  0.00  0.00    -0.013 A 
ATOM     18  C   UNL     1      -7.749  15.947  38.390  0.00  0.00    -0.009 A 
ATOM     19  C   UNL     1      -8.052  14.851  39.236  0.00  0.00    -0.003 A 
ENDBRANCH  13  14
ENDBRANCH  11  13
ENDBRANCH   9  10
TORSDOF 5
