REMARK  Name = 4MXC
REMARK  10 active torsions:
REMARK  status: ('A' for Active; 'I' for Inactive)
REMARK    1  A    between atoms: C_1  and  O_19
REMARK    2  A    between atoms: C_6  and  S_7
REMARK    3  A    between atoms: S_7  and  C_10
REMARK    4  A    between atoms: C_10  and  C_11
REMARK    5  A    between atoms: C_16  and  N_17
REMARK    6  A    between atoms: O_19  and  C_20
REMARK    7  A    between atoms: C_26  and  N_27
REMARK    8  A    between atoms: C_28  and  C_30
REMARK    9  A    between atoms: C_30  and  C_33
REMARK   10  A    between atoms: N_35  and  C_36
REMARK                            x       y       z     vdW  Elec       q    Type
REMARK                         _______ _______ _______ _____ _____    ______ ____
ROOT
ATOM      3  C   UNL     1      -9.236  17.744 -30.686  0.00  0.00    +0.166 A 
ATOM      4  C   UNL     1      -9.270  17.560 -29.313  0.00  0.00    +0.051 A 
ATOM      5  C   UNL     1      -9.425  16.265 -28.832  0.00  0.00    +0.027 A 
ATOM      6  C   UNL     1      -9.509  15.192 -29.694  0.00  0.00    +0.036 A 
ATOM     25  C   UNL     1      -9.490  15.379 -31.075  0.00  0.00    +0.065 A 
ATOM     26  C   UNL     1      -9.332  16.675 -31.550  0.00  0.00    +0.167 A 
ATOM     27  F   UNL     1      -9.290  16.917 -32.856  0.00  0.00    -0.202 F 
ENDROOT
BRANCH   6   7
ATOM      7  N   UNL     1      -9.713  13.893 -29.111  0.00  0.00    -0.285 N 
ATOM      8  H   UNL     1      -9.985  13.875 -28.076  0.00  0.00    +0.155 HD
ATOM      9  C   UNL     1      -9.595  12.631 -29.752  0.00  0.00    +0.232 C 
ATOM     24  O   UNL     1      -9.234  12.471 -30.900  0.00  0.00    -0.274 OA
BRANCH   9  10
ATOM     10  C   UNL     1      -9.944  11.499 -28.846  0.00  0.00    +0.123 C 
ATOM     22  C   UNL     1      -9.103  10.298 -29.156  0.00  0.00    +0.027 C 
ATOM     23  C   UNL     1     -10.532  10.329 -29.569  0.00  0.00    +0.027 C 
BRANCH  10  11
ATOM     11  C   UNL     1     -10.304  11.657 -27.406  0.00  0.00    +0.232 C 
ATOM     12  N   UNL     1     -10.596  10.523 -26.617  0.00  0.00    -0.285 N 
ATOM     13  H   UNL     1     -10.571   9.547 -27.054  0.00  0.00    +0.155 HD
ATOM     21  O   UNL     1     -10.340  12.792 -26.920  0.00  0.00    -0.274 OA
BRANCH  12  14
ATOM     14  C   UNL     1     -10.928  10.681 -25.224  0.00  0.00    +0.034 A 
ATOM     15  C   UNL     1     -10.189   9.958 -24.309  0.00  0.00    +0.026 A 
ATOM     16  C   UNL     1     -10.465  10.083 -22.952  0.00  0.00    +0.040 A 
ATOM     17  C   UNL     1     -11.482  10.933 -22.546  0.00  0.00    +0.124 A 
ATOM     18  F   UNL     1     -11.758  11.062 -21.249  0.00  0.00    -0.205 F 
ATOM     19  C   UNL     1     -12.221  11.656 -23.463  0.00  0.00    +0.040 A 
ATOM     20  C   UNL     1     -11.954  11.541 -24.825  0.00  0.00    +0.026 A 
ENDBRANCH  12  14
ENDBRANCH  10  11
ENDBRANCH   9  10
ENDBRANCH   6   7
BRANCH   3   2
ATOM      2  O   UNL     1      -9.078  18.999 -31.223  0.00  0.00    -0.435 OA
BRANCH   2   1
ATOM      1  C   UNL     1     -10.131  19.859 -30.989  0.00  0.00    +0.225 A 
ATOM     28  N   UNL     1      -9.851  21.167 -31.022  0.00  0.00    -0.179 NA
ATOM     29  C   UNL     1     -10.809  22.066 -30.799  0.00  0.00    +0.223 A 
ATOM     30  N   UNL     1     -10.529  23.467 -30.830  0.00  0.00    -0.283 N 
ATOM     31  H   UNL     1     -11.389  24.102 -30.889  0.00  0.00    +0.155 HD
ATOM     43  N   UNL     1     -12.079  21.725 -30.552  0.00  0.00    -0.223 NA
ATOM     44  C   UNL     1     -12.423  20.424 -30.496  0.00  0.00    +0.119 A 
ATOM     45  C   UNL     1     -11.448  19.451 -30.728  0.00  0.00    +0.087 A 
BRANCH  30  32
ATOM     32  C   UNL     1      -9.268  24.150 -30.794  0.00  0.00    +0.034 A 
ATOM     33  C   UNL     1      -9.363  25.536 -30.820  0.00  0.00    +0.023 A 
ATOM     34  C   UNL     1      -8.230  26.339 -30.789  0.00  0.00    +0.002 A 
ATOM     35  C   UNL     1      -6.986  25.733 -30.738  0.00  0.00    +0.005 A 
ATOM     36  C   UNL     1      -6.879  24.352 -30.711  0.00  0.00    -0.025 A 
ATOM     42  C   UNL     1      -8.018  23.538 -30.733  0.00  0.00    +0.028 A 
BRANCH  36  37
ATOM     37  C   UNL     1      -5.502  23.762 -30.664  0.00  0.00    +0.200 C 
BRANCH  37  38
ATOM     38  S   UNL     1      -5.010  23.479 -28.991  0.00  0.00    -0.030 S 
ATOM     39  O   UNL     1      -5.146  24.654 -28.153  0.00  0.00    -0.174 OA
ATOM     40  O   UNL     1      -3.583  23.249 -28.918  0.00  0.00    -0.174 OA
ATOM     41  C   UNL     1      -5.898  22.078 -28.408  0.00  0.00    +0.194 C 
ENDBRANCH  37  38
ENDBRANCH  36  37
ENDBRANCH  30  32
ENDBRANCH   2   1
ENDBRANCH   3   2
TORSDOF 9
