REMARK  Name = 4RX5
REMARK  6 active torsions:
REMARK  status: ('A' for Active; 'I' for Inactive)
REMARK    1  A    between atoms: C_1  and  C_2
REMARK    2  A    between atoms: C_3  and  C_21
REMARK    3  A    between atoms: C_7  and  N_8
REMARK    4  A    between atoms: C_9  and  C_11
REMARK    5  A    between atoms: C_23  and  N_28
REMARK    6  A    between atoms: N_36  and  C_38
REMARK                            x       y       z     vdW  Elec       q    Type
REMARK                         _______ _______ _______ _____ _____    ______ ____
ROOT
ATOM      1  C   UNL     1     -37.601  27.511  -6.945  0.00  0.00    +0.046 C 
ATOM      2  C   UNL     1     -38.655  27.691  -7.999  0.00  0.00    -0.017 A 
ATOM      3  C   UNL     1     -39.981  27.475  -7.650  0.00  0.00    +0.073 A 
ATOM     17  C   UNL     1     -40.968  27.619  -8.606  0.00  0.00    +0.145 A 
ATOM     18  F   UNL     1     -42.263  27.420  -8.261  0.00  0.00    -0.203 F 
ATOM     19  C   UNL     1     -40.663  27.963  -9.900  0.00  0.00    +0.041 A 
ATOM     20  C   UNL     1     -39.343  28.166 -10.264  0.00  0.00    +0.013 A 
ATOM     21  C   UNL     1     -38.336  28.038  -9.319  0.00  0.00    +0.007 A 
ENDROOT
BRANCH  21  22
ATOM     22  C   UNL     1     -36.931  28.249  -9.751  0.00  0.00    +0.093 C 
ATOM     23  N   UNL     1     -36.147  28.999  -9.018  0.00  0.00    -0.171 NA
ATOM     24  N   UNL     1     -34.814  29.197  -9.373  0.00  0.00    -0.241 N 
ATOM     25  H   UNL     1     -34.242  29.736  -8.804  0.00  0.00    +0.192 HD
ATOM     26  C   UNL     1     -34.315  28.661 -10.483  0.00  0.00    +0.286 C 
ATOM     27  O   UNL     1     -33.134  28.851 -10.764  0.00  0.00    -0.264 OA
ATOM     28  C   UNL     1     -35.144  27.873 -11.313  0.00  0.00    +0.101 C 
ATOM     41  C   UNL     1     -36.448  27.666 -10.945  0.00  0.00    +0.059 C 
BRANCH  28  29
ATOM     29  N   UNL     1     -34.516  27.362 -12.451  0.00  0.00    -0.294 N 
ATOM     30  H   UNL     1     -33.446  27.380 -12.461  0.00  0.00    +0.154 HD
ATOM     31  C   UNL     1     -35.145  26.834 -13.569  0.00  0.00    +0.145 A 
ATOM     32  N   UNL     1     -36.391  26.441 -13.628  0.00  0.00    -0.156 NA
ATOM     33  N   UNL     1     -36.624  25.981 -14.908  0.00  0.00    -0.264 N 
ATOM     34  C   UNL     1     -37.884  25.456 -15.425  0.00  0.00    +0.159 C 
ATOM     35  C   UNL     1     -37.834  25.623 -16.948  0.00  0.00    +0.108 C 
ATOM     36  N   UNL     1     -36.612  25.003 -17.482  0.00  0.00    -0.298 NA
ATOM     37  C   UNL     1     -36.684  24.912 -18.948  0.00  0.00    +0.105 C 
ATOM     38  C   UNL     1     -35.363  25.683 -17.073  0.00  0.00    +0.139 C 
ATOM     39  C   UNL     1     -35.482  26.092 -15.625  0.00  0.00    +0.055 A 
ATOM     40  C   UNL     1     -34.538  26.618 -14.824  0.00  0.00    +0.069 A 
ENDBRANCH  28  29
ENDBRANCH  21  22
BRANCH   3   4
ATOM      4  N   UNL     1     -40.291  27.125  -6.322  0.00  0.00    -0.279 N 
ATOM      5  H   UNL     1     -40.063  26.142  -5.966  0.00  0.00    +0.155 HD
ATOM      6  C   UNL     1     -40.868  28.010  -5.501  0.00  0.00    +0.255 C 
ATOM     16  O   UNL     1     -41.091  29.144  -5.880  0.00  0.00    -0.269 OA
BRANCH   6   7
ATOM      7  C   UNL     1     -41.154  27.672  -4.102  0.00  0.00    +0.075 A 
ATOM      8  S   UNL     1     -42.005  28.805  -3.076  0.00  0.00    -0.084 S 
ATOM      9  C   UNL     1     -41.876  27.734  -1.694  0.00  0.00    +0.020 A 
ATOM     10  C   UNL     1     -42.353  27.908  -0.394  0.00  0.00    +0.016 A 
ATOM     11  C   UNL     1     -42.134  26.944   0.551  0.00  0.00    +0.001 A 
ATOM     12  C   UNL     1     -41.448  25.781   0.211  0.00  0.00    +0.001 A 
ATOM     13  C   UNL     1     -40.971  25.597  -1.053  0.00  0.00    +0.009 A 
ATOM     14  C   UNL     1     -41.179  26.577  -2.057  0.00  0.00    -0.010 A 
ATOM     15  C   UNL     1     -40.779  26.584  -3.411  0.00  0.00    +0.029 A 
ENDBRANCH   6   7
ENDBRANCH   3   4
TORSDOF 4
