REMARK  Name = 6GVX
REMARK  6 active torsions:
REMARK  status: ('A' for Active; 'I' for Inactive)
REMARK    1  A    between atoms: N1_6  and  C6_7
REMARK    2  A    between atoms: C6_7  and  C7_8
REMARK    3  A    between atoms: C7_8  and  O1_9
REMARK    4  A    between atoms: O1_9  and  C8_10
REMARK    5  A    between atoms: C13_15  and  C14_16
REMARK    6  A    between atoms: C19_24  and  C20_25
REMARK                            x       y       z     vdW  Elec       q    Type
REMARK                         _______ _______ _______ _____ _____    ______ ____
ROOT
ATOM      6  C   UNL     1       5.016  -4.794  -8.628  0.00  0.00    +0.185 A 
ATOM      7  C   UNL     1       6.356  -4.499  -8.837  0.00  0.00    -0.130 A 
ATOM      8  C   UNL     1       7.158  -5.383  -9.542  0.00  0.00    -0.130 A 
ATOM      9  C   UNL     1       6.629  -6.567 -10.036  0.00  0.00    +0.000 A 
ATOM     25  C   UNL     1       5.285  -6.867  -9.832  0.00  0.00    -0.130 A 
ATOM     26  C   UNL     1       4.478  -5.979  -9.124  0.00  0.00    -0.130 A 
ENDROOT
BRANCH   9  10
ATOM     10  C   UNL     1       7.525  -7.482 -10.789  0.00  0.00    +0.000 C 
ATOM     11  C   UNL     1       7.338  -8.865 -10.783  0.00  0.00    +0.000 C 
ATOM     12  N   UNL     1       8.177  -9.650 -11.478  0.00  0.00    -0.150 NA
ATOM     13  C   UNL     1       9.183  -9.051 -12.159  0.00  0.00    +0.100 A 
ATOM     14  C   UNL     1      10.185  -9.603 -12.953  0.00  0.00    +0.000 A 
ATOM     21  C   UNL     1      10.960  -8.533 -13.423  0.00  0.00    +0.000 A 
ATOM     22  N   UNL     1      10.471  -7.357 -12.949  0.00  0.00    -0.350 NA
ATOM     23  N   UNL     1       9.380  -7.750 -12.181  0.00  0.00    -0.150 N 
ATOM     24  C   UNL     1       8.580  -6.927 -11.506  0.00  0.00    +0.000 C 
BRANCH  14  15
ATOM     15  C   UNL     1      10.421 -11.040 -13.275  0.00  0.00    +0.000 A 
ATOM     16  C   UNL     1      11.207 -11.370 -14.372  0.00  0.00    -0.130 A 
ATOM     17  C   UNL     1      11.427 -12.707 -14.679  0.00  0.00    +0.250 A 
ATOM     18  N   UNL     1      10.888 -13.672 -13.923  0.00  0.00    -0.760 NA
ATOM     19  C   UNL     1      10.125 -13.381 -12.860  0.00  0.00    +0.250 A 
ATOM     20  C   UNL     1       9.872 -12.060 -12.510  0.00  0.00    -0.130 A 
ENDBRANCH  14  15
ENDBRANCH   9  10
BRANCH   6   5
ATOM      5  O   UNL     1       4.225  -3.917  -7.935  0.00  0.00    -0.365 OA
BRANCH   5   4
ATOM      4  C   UNL     1       2.814  -3.948  -8.132  0.00  0.00    +0.080 C 
BRANCH   4   3
ATOM      3  C   UNL     1       2.238  -2.551  -7.931  0.00  0.00    +0.100 C 
BRANCH   3   2
ATOM      1  C   UNL     1       1.443  -2.564 -10.192  0.00  0.00    +0.100 C 
ATOM      2  N   UNL     1       1.052  -2.385  -8.783  0.00  0.00    -0.600 NA
ATOM     27  C   UNL     1       0.487  -1.043  -8.576  0.00  0.00    +0.100 C 
ATOM     28  C   UNL     1      -0.878  -0.961  -9.251  0.00  0.00    -0.100 C 
ATOM     29  C   UNL     1      -0.978  -1.951 -10.405  0.00  0.00    -0.100 C 
ATOM     30  C   UNL     1       0.354  -2.060 -11.134  0.00  0.00    -0.100 C 
ENDBRANCH   3   2
ENDBRANCH   4   3
ENDBRANCH   5   4
ENDBRANCH   6   5
TORSDOF 6
