REMARK  Name = FQD
REMARK  1 active torsions:
REMARK  status: ('A' for Active; 'I' for Inactive)
REMARK    1  A    between atoms: C1_1  and  C5_10
REMARK                            x       y       z     vdW  Elec       q    Type
REMARK                         _______ _______ _______ _____ _____    ______ ____
ROOT
ATOM      1  C   UNL     1     -30.094   6.038 -36.841  0.00  0.00    +0.013 A 
ATOM      9  C   UNL     1     -29.477   4.700 -36.905  0.00  0.00    +0.082 A 
ATOM     10  C   UNL     1     -28.702   3.917 -35.985  0.00  0.00    +0.283 A 
ATOM     11  O   UNL     1     -28.341   4.453 -34.813  0.00  0.00    -0.265 OA
ATOM     12  N   UNL     1     -28.250   2.625 -36.296  0.00  0.00    -0.186 NA
ATOM     13  C   UNL     1     -28.571   2.218 -37.531  0.00  0.00    +0.202 A 
ATOM     14  N   UNL     1     -29.256   2.873 -38.477  0.00  0.00    -0.217 NA
ATOM     15  C   UNL     1     -29.697   4.089 -38.143  0.00  0.00    +0.117 A 
ATOM     16  S   UNL     1     -30.585   5.107 -39.176  0.00  0.00    -0.067 S 
ATOM     17  C   UNL     1     -30.683   6.359 -38.000  0.00  0.00    +0.037 A 
ENDROOT
BRANCH   1   2
ATOM      2  C   UNL     1     -30.219   6.902 -35.634  0.00  0.00    +0.001 A 
ATOM      3  C   UNL     1     -30.542   6.348 -34.395  0.00  0.00    +0.002 A 
ATOM      4  C   UNL     1     -30.755   7.155 -33.292  0.00  0.00    +0.030 A 
ATOM      5  C   UNL     1     -30.638   8.514 -33.450  0.00  0.00    +0.140 A 
ATOM      6  F   UNL     1     -30.842   9.313 -32.371  0.00  0.00    -0.204 F 
ATOM      7  C   UNL     1     -30.321   9.103 -34.642  0.00  0.00    +0.030 A 
ATOM      8  C   UNL     1     -30.102   8.288 -35.737  0.00  0.00    +0.002 A 
ENDBRANCH   1   2
TORSDOF 1
