REMARK  Name = DYZ
REMARK  3 active torsions:
REMARK  status: ('A' for Active; 'I' for Inactive)
REMARK    1  A    between atoms: N3_6  and  CAK_14
REMARK    2  A    between atoms: CAM_8  and  N7_9
REMARK    3  A    between atoms: CAK_14  and  CAL_15
REMARK                            x       y       z     vdW  Elec       q    Type
REMARK                         _______ _______ _______ _____ _____    ______ ____
ROOT
ATOM      1  C   UNL     1     -12.362  -6.190   0.599  0.00  0.00    +0.170 C 
ATOM      2  N   UNL     1     -12.652  -6.948   1.815  0.00  0.00    -0.259 N 
ATOM     10  C   UNL     1     -13.858  -6.795   2.354  0.00  0.00    +0.354 C 
ATOM     11  O   UNL     1     -14.155  -7.379   3.391  0.00  0.00    -0.244 OA
ATOM     12  N   UNL     1     -14.805  -5.961   1.749  0.00  0.00    -0.152 NA
ATOM     13  C   UNL     1     -14.542  -5.237   0.526  0.00  0.00    +0.302 C 
ATOM     14  O   UNL     1     -15.487  -4.528   0.169  0.00  0.00    -0.263 OA
ATOM     15  C   UNL     1     -13.277  -5.422   0.067  0.00  0.00    +0.154 C 
ATOM     16  N   UNL     1     -12.610  -4.929  -1.072  0.00  0.00    -0.304 N 
ATOM     17  C   UNL     1     -11.406  -5.448  -1.072  0.00  0.00    +0.180 C 
ATOM     20  N   UNL     1     -11.192  -6.228  -0.017  0.00  0.00    -0.206 NA
ENDROOT
BRANCH  16  18
ATOM     18  C   UNL     1     -13.103  -3.903  -1.969  0.00  0.00    +0.108 C 
ATOM     19  C   UNL     1     -13.027  -2.545  -1.336  0.00  0.00    +0.026 C 
ENDBRANCH  16  18
BRANCH   2   3
ATOM      3  C   UNL     1     -11.528  -7.697   2.482  0.00  0.00    +0.139 C 
BRANCH   3   4
ATOM      4  C   UNL     1     -10.703  -6.773   3.273  0.00  0.00    +0.001 A 
ATOM      5  C   UNL     1     -11.121  -6.266   4.524  0.00  0.00    -0.002 A 
ATOM      6  C   UNL     1     -10.334  -5.404   5.290  0.00  0.00    -0.000 A 
ATOM      7  C   UNL     1      -9.154  -4.937   4.897  0.00  0.00    -0.000 A 
ATOM      8  C   UNL     1      -8.691  -5.468   3.723  0.00  0.00    -0.000 A 
ATOM      9  C   UNL     1      -9.394  -6.356   2.857  0.00  0.00    -0.002 A 
ENDBRANCH   3   4
ENDBRANCH   2   3
TORSDOF 3
