REMARK  Name = 4D1X
REMARK  3 active torsions:
REMARK  status: ('A' for Active; 'I' for Inactive)
REMARK    1  A    between atoms: C_2  and  C_4
REMARK    2  A    between atoms: C_8  and  C_9
REMARK    3  A    between atoms: C_14  and  O_15
REMARK                            x       y       z     vdW  Elec       q    Type
REMARK                         _______ _______ _______ _____ _____    ______ ____
ROOT
ATOM      7  C   UNK     1      -0.528  -6.959 -24.716  0.00  0.00    +0.134 A 
ATOM      8  S   UNK     1       0.570  -7.023 -25.895  0.00  0.00    -0.065 S 
ATOM      9  C   UNK     1       0.339  -5.459 -26.428  0.00  0.00    +0.043 A 
ATOM     10  C   UNK     1       0.921  -4.777 -27.417  0.00  0.00    +0.062 A 
ATOM     11  C   UNK     1       0.551  -3.464 -27.670  0.00  0.00    +0.118 A 
ATOM     14  C   UNK     1      -0.428  -2.876 -26.885  0.00  0.00    +0.047 A 
ATOM     15  C   UNK     1      -0.990  -3.642 -25.873  0.00  0.00    +0.032 A 
ATOM     16  C   UNK     1      -0.613  -4.902 -25.654  0.00  0.00    +0.079 A 
ATOM     17  N   UNK     1      -1.077  -5.744 -24.709  0.00  0.00    -0.237 NA
ENDROOT
BRANCH   7   6
ATOM      3  C   UNK     1      -1.466  -8.942 -21.785  0.00  0.00    +0.162 C 
ATOM      4  C   UNK     1      -0.876 -10.130 -22.554  0.00  0.00    +0.108 C 
ATOM      5  S   UNK     1      -1.130  -9.577 -24.215  0.00  0.00    -0.101 S 
ATOM      6  C   UNK     1      -0.852  -7.925 -23.856  0.00  0.00    +0.125 C 
ATOM     18  N   UNK     1      -1.074  -7.692 -22.557  0.00  0.00    -0.265 NA
BRANCH   3   2
ATOM      1  O   UNK     1      -3.274  -9.611 -20.620  0.00  0.00    -0.548 OA
ATOM      2  C   UNK     1      -2.855  -9.044 -21.654  0.00  0.00    +0.067 C 
ATOM     19  O   UNK     1      -3.566  -8.533 -22.546  0.00  0.00    -0.548 OA
ENDBRANCH   3   2
ENDBRANCH   7   6
BRANCH  11  12
ATOM     12  O   UNK     1       1.139  -2.763 -28.672  0.00  0.00    -0.507 OA
ATOM     13  H   UNK     1       0.409  -2.463 -29.365  0.00  0.00    +0.292 HD
ENDBRANCH  11  12
TORSDOF 3
