REMARK  Name = 4v05_ligand
REMARK  12 active torsions:
REMARK  status: ('A' for Active; 'I' for Inactive)
REMARK    1  A    between atoms: C_1  and  C1_4
REMARK    2  A    between atoms: N_2  and  C6_15
REMARK    3  A    between atoms: O1_6  and  C22_31
REMARK    4  A    between atoms: O1_6  and  C24_33
REMARK    5  A    between atoms: N2_8  and  C13_22
REMARK    6  A    between atoms: O2_9  and  C20_29
REMARK    7  A    between atoms: O2_9  and  C25_34
REMARK    8  A    between atoms: C4_12  and  C5_14
REMARK    9  A    between atoms: C9_18  and  C12_21
REMARK   10  A    between atoms: C15_24  and  C16_25
REMARK   11  A    between atoms: C16_25  and  C17_26
REMARK   12  A    between atoms: C17_26  and  C18_27
REMARK                            x       y       z     vdW  Elec       q    Type
REMARK                         _______ _______ _______ _____ _____    ______ ____
ROOT
ATOM      9  C   UNL     1      85.727   1.583   8.130  0.00  0.00    +0.228 C 
ATOM     10  N   UNL     1      86.608   0.558   8.370  0.00  0.00    -0.208 N 
ATOM     11  H   UNL     1      86.611  -0.198   7.715  0.00  0.00    +0.232 HD
ATOM     30  O   UNL     1      85.728   2.621   8.786  0.00  0.00    -0.378 OA
ENDROOT
BRANCH   9   8
ATOM      5  C   UNL     1      82.910   1.003   4.922  0.00  0.00    +0.046 A 
ATOM      6  C   UNL     1      82.550   1.697   6.084  0.00  0.00    +0.015 A 
ATOM      7  C   UNL     1      83.464   1.894   7.103  0.00  0.00    +0.011 A 
ATOM      8  C   UNL     1      84.749   1.368   7.019  0.00  0.00    +0.043 A 
ATOM     31  C   UNL     1      85.096   0.640   5.884  0.00  0.00    +0.011 A 
ATOM     32  C   UNL     1      84.189   0.441   4.862  0.00  0.00    +0.015 A 
BRANCH   5   4
ATOM      1  C   UNL     1      79.117   2.508   2.184  0.00  0.00    +0.066 C 
ATOM      2  C   UNL     1      79.948   1.396   2.806  0.00  0.00    +0.082 C 
ATOM      3  C   UNL     1      81.220   1.852   3.396  0.00  0.00    +0.185 C 
ATOM      4  N   UNL     1      81.955   0.714   3.942  0.00  0.00    -0.295 N 
ATOM     33  C   UNL     1      82.249  -0.368   3.007  0.00  0.00    +0.185 C 
ATOM     34  C   UNL     1      80.966  -0.798   2.294  0.00  0.00    +0.082 C 
ATOM     35  C   UNL     1      81.206  -1.774   1.155  0.00  0.00    +0.066 C 
ATOM     36  N   UNL     1      80.202   0.358   1.790  0.00  0.00    +0.234 N 
ATOM     37  H   UNL     1      79.314   0.026   1.447  0.00  0.00    +0.202 HD
ATOM     38  H   UNL     1      80.721   0.775   1.033  0.00  0.00    +0.202 HD
ENDBRANCH   5   4
ENDBRANCH   9   8
BRANCH  10  12
ATOM     12  C   UNL     1      87.490   0.469   9.427  0.00  0.00    +0.174 A 
ATOM     13  C   UNL     1      87.691   1.288  10.506  0.00  0.00    -0.019 A 
ATOM     14  C   UNL     1      88.695   0.662  11.264  0.00  0.00    -0.017 A 
ATOM     27  N   UNL     1      89.097  -0.462  10.694  0.00  0.00    -0.260 NA
ATOM     28  N   UNL     1      88.371  -0.560   9.544  0.00  0.00    -0.215 N 
ATOM     29  H   UNL     1      88.476  -1.316   8.853  0.00  0.00    +0.243 HD
BRANCH  14  15
ATOM     15  C   UNL     1      89.315   1.132  12.552  0.00  0.00    +0.073 C 
BRANCH  15  16
ATOM     16  C   UNL     1      88.370   1.962  13.440  0.00  0.00    +0.073 C 
BRANCH  16  17
ATOM     17  C   UNL     1      88.959   2.057  14.829  0.00  0.00    -0.059 A 
ATOM     18  C   UNL     1      90.078   2.851  15.057  0.00  0.00    -0.004 A 
ATOM     19  C   UNL     1      90.666   2.878  16.311  0.00  0.00    +0.076 A 
ATOM     20  C   UNL     1      90.161   2.113  17.352  0.00  0.00    +0.028 A 
ATOM     21  C   UNL     1      89.056   1.310  17.119  0.00  0.00    +0.076 A 
ATOM     26  C   UNL     1      88.469   1.260  15.861  0.00  0.00    -0.004 A 
BRANCH  21  22
ATOM     22  O   UNL     1      88.791   0.291  18.005  0.00  0.00    -0.326 OA
ATOM     23  C   UNL     1      89.022   0.518  19.407  0.00  0.00    +0.232 C 
ENDBRANCH  21  22
BRANCH  19  24
ATOM     24  O   UNL     1      91.805   3.639  16.371  0.00  0.00    -0.326 OA
ATOM     25  C   UNL     1      92.616   3.568  17.552  0.00  0.00    +0.232 C 
ENDBRANCH  19  24
ENDBRANCH  16  17
ENDBRANCH  15  16
ENDBRANCH  14  15
ENDBRANCH  10  12
TORSDOF 8
