REMARK  Name = 1h1r_ligand
REMARK  4 active torsions:
REMARK  status: ('A' for Active; 'I' for Inactive)
REMARK    1  A    between atoms: C6_3  and  O6_4
REMARK    2  A    between atoms: O6_4  and  C10_5
REMARK    3  A    between atoms: C10_5  and  C11_6
REMARK    4  A    between atoms: N2_18  and  C17_19
REMARK                            x       y       z     vdW  Elec       q    Type
REMARK                         _______ _______ _______ _____ _____    ______ ____
ROOT
ATOM      1  C   UNL     1       8.273  43.854  49.720  0.00  0.00    +0.179 A 
ATOM      2  N   UNL     1       7.869  42.966  48.868  0.00  0.00    -0.249 N 
ATOM      3  H   UNL     1       8.514  42.818  48.079  0.00  0.00    +0.216 HD
ATOM     11  N   UNL     1       9.550  44.097  49.912  0.00  0.00    -0.257 NA
ATOM     12  C   UNL     1      10.007  45.095  50.836  0.00  0.00    +0.145 A 
ATOM     13  N   UNL     1      11.231  45.500  51.173  0.00  0.00    -0.240 N 
ATOM     14  H   UNL     1      12.111  45.144  50.773  0.00  0.00    +0.238 HD
ATOM     15  C   UNL     1      11.131  46.438  52.110  0.00  0.00    +0.235 A 
ATOM     16  N   UNL     1       9.890  46.656  52.364  0.00  0.00    -0.302 NA
ATOM     17  C   UNL     1       9.093  45.784  51.547  0.00  0.00    +0.104 A 
ATOM     18  C   UNL     1       7.688  45.505  51.351  0.00  0.00    +0.176 A 
ATOM     27  N   UNL     1       7.296  44.598  50.504  0.00  0.00    -0.240 NA
ENDROOT
BRANCH   2   4
ATOM      4  C   UNL     1       6.760  42.199  48.823  0.00  0.00    +0.065 A 
ATOM      5  C   UNL     1       6.447  41.653  47.555  0.00  0.00    +0.015 A 
ATOM      6  C   UNL     1       5.192  41.044  47.386  0.00  0.00    -0.012 A 
ATOM      7  C   UNL     1       4.283  40.941  48.433  0.00  0.00    -0.007 A 
ATOM      8  C   UNL     1       4.595  41.463  49.693  0.00  0.00    +0.031 A 
ATOM      9 CL   UNL     1       3.361  41.306  50.919  0.00  0.00    -0.074 Cl
ATOM     10  C   UNL     1       5.824  42.080  49.846  0.00  0.00    +0.029 A 
ENDBRANCH   2   4
BRANCH  18  19
ATOM     19  O   UNL     1       6.804  46.201  52.064  0.00  0.00    -0.293 OA
BRANCH  19  20
ATOM     20  C   UNL     1       5.545  45.529  51.861  0.00  0.00    +0.206 C 
BRANCH  20  21
ATOM     21  C   UNL     1       4.498  45.917  52.894  0.00  0.00    +0.021 C 
ATOM     22  C   UNL     1       3.080  45.637  52.358  0.00  0.00    +0.006 C 
ATOM     23  C   UNL     1       1.987  45.943  53.445  0.00  0.00    +0.000 C 
ATOM     24  C   UNL     1       2.149  45.240  54.790  0.00  0.00    +0.000 C 
ATOM     25  C   UNL     1       3.619  45.592  55.338  0.00  0.00    +0.000 C 
ATOM     26  C   UNL     1       4.681  45.264  54.293  0.00  0.00    +0.006 C 
ENDBRANCH  20  21
ENDBRANCH  19  20
ENDBRANCH  18  19
TORSDOF 4
