REMARK  Name = 3zm9_ligand
REMARK  12 active torsions:
REMARK  status: ('A' for Active; 'I' for Inactive)
REMARK    1  A    between atoms: CAA_1  and  NBI_2
REMARK    2  A    between atoms: NBI_2  and  CAB_3
REMARK    3  A    between atoms: NBI_2  and  CBE_4
REMARK    4  A    between atoms: NBK_9  and  CAW_10
REMARK    5  A    between atoms: CAW_10  and  CBD_11
REMARK    6  A    between atoms: CBB_16  and  CAU_17
REMARK    7  A    between atoms: CAU_17  and  CAS_18
REMARK    8  A    between atoms: CAS_18  and  CAR_19
REMARK    9  A    between atoms: CAR_19  and  CAT_20
REMARK   10  A    between atoms: CAT_20  and  CBA_21
REMARK   11  A    between atoms: CBC_26  and  CAV_27
REMARK   12  A    between atoms: CAV_27  and  N9_28
REMARK                            x       y       z     vdW  Elec       q    Type
REMARK                         _______ _______ _______ _____ _____    ______ ____
ROOT
ATOM     15  C   UNL     1     -15.249  10.972 -12.424  0.00  0.00    +0.060 C 
ENDROOT
BRANCH  15  16
ATOM     16  C   UNL     1     -16.268  10.187 -13.023  0.00  0.00    -0.050 A 
ATOM     17  C   UNL     1     -16.891   9.181 -12.276  0.00  0.00    -0.013 A 
ATOM     18  C   UNL     1     -17.900   8.391 -12.857  0.00  0.00    -0.010 A 
ATOM     19  C   UNL     1     -18.294   8.575 -14.187  0.00  0.00    -0.020 A 
ATOM     33  C   UNL     1     -17.674   9.583 -14.939  0.00  0.00    -0.010 A 
ATOM     34  C   UNL     1     -16.662  10.375 -14.362  0.00  0.00    -0.013 A 
BRANCH  19  20
ATOM     20  C   UNL     1     -19.316   7.775 -14.749  0.00  0.00    +0.244 C 
BRANCH  20  21
ATOM     21  N   UNL     1     -18.847   6.363 -15.167  0.00  0.00    -0.211 N 
ATOM     22  C   UNL     1     -19.587   5.469 -15.819  0.00  0.00    +0.161 A 
ATOM     23  N   UNL     1     -20.841   5.548 -16.286  0.00  0.00    -0.271 NA
ATOM     24  C   UNL     1     -21.388   4.457 -16.965  0.00  0.00    +0.153 A 
ATOM     25  N   UNL     1     -20.590   3.323 -17.132  0.00  0.00    -0.270 NA
ATOM     26  C   UNL     1     -19.332   3.302 -16.654  0.00  0.00    +0.130 A 
ATOM     27  N   UNL     1     -18.512   2.233 -16.795  0.00  0.00    -0.315 N 
ATOM     28  H   UNL     1     -17.557   2.262 -16.410  0.00  0.00    +0.182 HD
ATOM     29  H   UNL     1     -18.843   1.391 -17.288  0.00  0.00    +0.182 HD
ATOM     30  C   UNL     1     -18.845   4.361 -16.007  0.00  0.00    +0.105 A 
ATOM     31  N   UNL     1     -17.652   4.567 -15.455  0.00  0.00    -0.296 NA
ATOM     32  C   UNL     1     -17.658   5.795 -14.948  0.00  0.00    +0.247 A 
ENDBRANCH  20  21
ENDBRANCH  19  20
ENDBRANCH  15  16
BRANCH  15  14
ATOM     14  C   UNL     1     -15.676  12.443 -12.172  0.00  0.00    +0.015 C 
BRANCH  14  13
ATOM     13  C   UNL     1     -15.050  12.951 -10.856  0.00  0.00    +0.015 C 
BRANCH  13  12
ATOM     12  C   UNL     1     -15.537  14.372 -10.448  0.00  0.00    +0.060 C 
BRANCH  12  11
ATOM      8  C   UNL     1     -12.508  16.158  -8.085  0.00  0.00    -0.027 A 
ATOM      9  C   UNL     1     -13.305  15.116  -7.584  0.00  0.00    -0.011 A 
ATOM     10  C   UNL     1     -14.307  14.526  -8.357  0.00  0.00    -0.013 A 
ATOM     11  C   UNL     1     -14.537  14.980  -9.662  0.00  0.00    -0.050 A 
ATOM     35  C   UNL     1     -13.746  16.021 -10.174  0.00  0.00    -0.013 A 
ATOM     36  C   UNL     1     -12.738  16.606  -9.395  0.00  0.00    -0.011 A 
BRANCH   8   7
ATOM      7  C   UNL     1     -11.486  16.732  -7.285  0.00  0.00    +0.199 C 
BRANCH   7   6
ATOM      3  C   UNL     1      -9.650  13.772  -4.643  0.00  0.00    -0.008 C 
ATOM      4  C   UNL     1     -10.410  14.834  -4.127  0.00  0.00    -0.022 C 
ATOM      5  C   UNL     1     -10.994  15.778  -4.986  0.00  0.00    +0.110 C 
ATOM      6  N   UNL     1     -10.835  15.704  -6.387  0.00  0.00    -0.294 N 
ATOM     37  C   UNL     1     -10.059  14.628  -6.916  0.00  0.00    +0.155 C 
ATOM     38  C   UNL     1      -9.485  13.689  -6.043  0.00  0.00    -0.063 C 
BRANCH   3   2
ATOM      1  C   UNL     1      -9.475  12.827  -2.382  0.00  0.00    +0.152 C 
ATOM      2  N   UNL     1      -9.091  12.847  -3.811  0.00  0.00    -0.332 N 
ATOM     39  C   UNL     1      -8.151  11.842  -4.364  0.00  0.00    +0.152 C 
ENDBRANCH   3   2
ENDBRANCH   7   6
ENDBRANCH   8   7
ENDBRANCH  12  11
ENDBRANCH  13  12
ENDBRANCH  14  13
ENDBRANCH  15  14
TORSDOF 10
