REMARK  Name = 5J7H
REMARK  11 active torsions:
REMARK  status: ('A' for Active; 'I' for Inactive)
REMARK    1  A    between atoms: C_2  and  N_30
REMARK    2  A    between atoms: C_3  and  P_37
REMARK    3  A    between atoms: C_8  and  N_19
REMARK    4  A    between atoms: C_10  and  O_11
REMARK    5  A    between atoms: O_11  and  C_12
REMARK    6  A    between atoms: N_17  and  C_18
REMARK    7  A    between atoms: C_21  and  N_24
REMARK    8  A    between atoms: N_27  and  C_29
REMARK    9  A    between atoms: N_30  and  C_31
REMARK   10  A    between atoms: C_32  and  P_37
REMARK   11  A    between atoms: P_37  and  C_38
REMARK                            x       y       z     vdW  Elec       q    Type
REMARK                         _______ _______ _______ _____ _____    ______ ____
ROOT
ATOM      1  C   UNL     1       4.228  15.579   9.907  0.00  0.00    +0.099 A 
ATOM      2 CL   UNL     1       5.176  14.244  10.492  0.00  0.00    -0.078 Cl
ATOM      3  C   UNL     1       2.934  15.794  10.415  0.00  0.00    +0.138 A 
ATOM      4  N   UNL     1       2.152  16.830   9.989  0.00  0.00    -0.221 NA
ATOM      5  C   UNL     1       2.671  17.645   9.053  0.00  0.00    +0.221 A 
ATOM      6  N   UNL     1       1.856  18.673   8.662  0.00  0.00    -0.281 N 
ATOM      7  H   UNL     1       0.829  18.601   8.955  0.00  0.00    +0.155 HD
ATOM     29  N   UNL     1       3.895  17.506   8.518  0.00  0.00    -0.198 NA
ATOM     30  C   UNL     1       4.698  16.487   8.924  0.00  0.00    +0.146 A 
ENDROOT
BRANCH   6   8
ATOM      8  C   UNL     1       2.209  19.802   7.927  0.00  0.00    +0.076 A 
ATOM      9  C   UNL     1       1.148  20.471   7.245  0.00  0.00    +0.143 A 
ATOM     12  C   UNL     1       1.444  21.640   6.470  0.00  0.00    +0.070 A 
ATOM     13  C   UNL     1       2.775  22.132   6.375  0.00  0.00    +0.033 A 
ATOM     27  C   UNL     1       3.827  21.462   7.057  0.00  0.00    +0.025 A 
ATOM     28  C   UNL     1       3.543  20.308   7.824  0.00  0.00    +0.029 A 
BRANCH  13  14
ATOM     14  N   UNL     1       3.034  23.263   5.631  0.00  0.00    -0.330 N 
ATOM     15  C   UNL     1       3.737  23.127   4.316  0.00  0.00    +0.106 C 
ATOM     16  C   UNL     1       3.356  24.303   3.374  0.00  0.00    +0.037 C 
ATOM     17  C   UNL     1       3.572  25.652   4.110  0.00  0.00    +0.060 C 
ATOM     25  C   UNL     1       2.656  25.735   5.351  0.00  0.00    +0.037 C 
ATOM     26  C   UNL     1       2.978  24.585   6.328  0.00  0.00    +0.106 C 
BRANCH  17  18
ATOM     18  N   UNL     1       3.580  26.896   3.273  0.00  0.00    -0.297 NA
ATOM     19  C   UNL     1       4.463  26.866   2.058  0.00  0.00    +0.100 C 
ATOM     20  C   UNL     1       4.636  28.275   1.438  0.00  0.00    +0.099 C 
ATOM     21  N   UNL     1       3.329  28.948   1.205  0.00  0.00    -0.303 NA
ATOM     22  C   UNL     1       3.461  30.255   0.530  0.00  0.00    +0.105 C 
ATOM     23  C   UNL     1       2.496  29.014   2.445  0.00  0.00    +0.099 C 
ATOM     24  C   UNL     1       2.275  27.603   3.038  0.00  0.00    +0.100 C 
ENDBRANCH  17  18
ENDBRANCH  13  14
BRANCH   9  10
ATOM     10  O   UNL     1      -0.132  19.906   7.400  0.00  0.00    -0.493 OA
ATOM     11  C   UNL     1      -1.267  20.775   7.429  0.00  0.00    +0.277 C 
ENDBRANCH   9  10
ENDBRANCH   6   8
BRANCH  30  31
ATOM     31  N   UNL     1       5.968  16.349   8.371  0.00  0.00    -0.298 N 
ATOM     32  H   UNL     1       6.467  15.418   8.543  0.00  0.00    +0.154 HD
BRANCH  31  33
ATOM     33  C   UNL     1       6.649  17.287   7.625  0.00  0.00    +0.043 A 
ATOM     34  C   UNL     1       6.055  17.974   6.507  0.00  0.00    +0.024 A 
ATOM     35  C   UNL     1       6.791  18.927   5.768  0.00  0.00    +0.002 A 
ATOM     36  C   UNL     1       8.124  19.212   6.132  0.00  0.00    +0.001 A 
ATOM     37  C   UNL     1       8.727  18.544   7.230  0.00  0.00    +0.013 A 
ATOM     38  C   UNL     1       8.003  17.582   7.984  0.00  0.00    +0.033 A 
BRANCH  38  39
ATOM     39  P   UNL     1       8.855  16.740   9.389  0.00  0.00    +0.112 P 
ATOM     40  O   UNL     1       8.392  15.340   9.536  0.00  0.00    -0.317 OA
ATOM     41  C   UNL     1       8.694  17.710  10.964  0.00  0.00    +0.085 C 
ATOM     42  C   UNL     1      10.703  16.756   9.130  0.00  0.00    +0.085 C 
ENDBRANCH  38  39
ENDBRANCH  31  33
ENDBRANCH  30  31
TORSDOF 7
