REMARK  Name = 3UVR
REMARK  9 active torsions:
REMARK  status: ('A' for Active; 'I' for Inactive)
REMARK    1  A    between atoms: C_1  and  C_29
REMARK    2  A    between atoms: C_2  and  C_39
REMARK    3  A    between atoms: C_3  and  C_39
REMARK    4  A    between atoms: C_4  and  C_39
REMARK    5  A    between atoms: N_24  and  C_30
REMARK    6  A    between atoms: N_25  and  C_35
REMARK    7  A    between atoms: N_26  and  C_31
REMARK    8  A    between atoms: C_33  and  N_38
REMARK    9  A    between atoms: C_36  and  C_39
REMARK                            x       y       z     vdW  Elec       q    Type
REMARK                         _______ _______ _______ _____ _____    ______ ____
ROOT
ATOM      8  N   UNL     1      18.345  -5.531 -17.404  0.00  0.00    -0.254 N 
ATOM      9  H   UNL     1      19.105  -5.692 -16.668  0.00  0.00    +0.158 HD
ATOM     10  C   UNL     1      18.587  -4.630 -18.380  0.00  0.00    +0.309 C 
ATOM     11  N   UNL     1      19.835  -4.078 -18.307  0.00  0.00    -0.269 N 
ATOM     12  H   UNL     1      20.456  -4.378 -17.489  0.00  0.00    +0.156 HD
ATOM     32  O   UNL     1      17.752  -4.313 -19.227  0.00  0.00    -0.252 OA
ENDROOT
BRANCH  11  13
ATOM     13  C   UNL     1      20.345  -3.196 -19.171  0.00  0.00    +0.037 A 
ATOM     14  C   UNL     1      19.736  -1.992 -19.508  0.00  0.00    +0.051 A 
ATOM     15  C   UNL     1      20.381  -1.142 -20.412  0.00  0.00    +0.066 A 
ATOM     29  C   UNL     1      21.641  -1.459 -20.925  0.00  0.00    +0.028 A 
ATOM     30  C   UNL     1      22.263  -2.659 -20.586  0.00  0.00    +0.004 A 
ATOM     31  C   UNL     1      21.607  -3.509 -19.695  0.00  0.00    +0.023 A 
BRANCH  15  16
ATOM     16  N   UNL     1      19.808   0.008 -20.707  0.00  0.00    -0.248 NA
ATOM     17  C   UNL     1      19.403   0.388 -21.920  0.00  0.00    +0.064 C 
ATOM     18  C   UNL     1      18.798   1.633 -21.926  0.00  0.00    +0.028 C 
ATOM     19  C   UNL     1      18.296   2.200 -23.088  0.00  0.00    -0.049 C 
ATOM     20  C   UNL     1      18.394   1.524 -24.311  0.00  0.00    +0.088 C 
ATOM     21  C   UNL     1      17.959   1.944 -25.592  0.00  0.00    +0.149 C 
ATOM     22  C   UNL     1      17.626   3.251 -25.953  0.00  0.00    +0.076 C 
ATOM     23  C   UNL     1      18.213   4.260 -24.968  0.00  0.00    +0.008 C 
ATOM     24  C   UNL     1      17.252   4.327 -23.800  0.00  0.00    +0.005 C 
ATOM     25  O   UNL     1      17.857   1.127 -26.508  0.00  0.00    -0.296 OA
ATOM     26  C   UNL     1      19.023   0.261 -24.309  0.00  0.00    -0.005 C 
ATOM     27  C   UNL     1      17.752   3.442 -22.694  0.00  0.00    +0.032 C 
ATOM     28  C   UNL     1      19.525  -0.319 -23.125  0.00  0.00    +0.025 C 
ENDBRANCH  15  16
ENDBRANCH  11  13
BRANCH   8   7
ATOM      6  N   UNL     1      16.772  -6.720 -16.145  0.00  0.00    -0.218 N 
ATOM      7  C   UNL     1      17.210  -6.235 -17.303  0.00  0.00    +0.130 A 
ATOM     33  C   UNL     1      16.399  -6.650 -18.284  0.00  0.00    +0.069 A 
ATOM     34  C   UNL     1      15.476  -7.367 -17.651  0.00  0.00    +0.071 A 
ATOM     39  N   UNL     1      15.763  -7.370 -16.358  0.00  0.00    -0.169 NA
BRANCH   6   5
ATOM      1  C   UNL     1      18.952  -6.091 -11.157  0.00  0.00    +0.044 C 
ATOM      2  C   UNL     1      18.407  -6.221 -12.426  0.00  0.00    -0.050 A 
ATOM      3  C   UNL     1      17.984  -7.467 -12.855  0.00  0.00    +0.005 A 
ATOM      4  C   UNL     1      17.439  -7.635 -14.114  0.00  0.00    +0.028 A 
ATOM      5  C   UNL     1      17.311  -6.542 -14.942  0.00  0.00    +0.067 A 
ATOM     40  C   UNL     1      17.727  -5.275 -14.519  0.00  0.00    +0.028 A 
ATOM     41  C   UNL     1      18.291  -5.106 -13.257  0.00  0.00    +0.005 A 
ENDBRANCH   6   5
BRANCH  34  35
ATOM     35  C   UNL     1      14.250  -8.067 -18.273  0.00  0.00    +0.006 C 
ATOM     36  C   UNL     1      13.268  -8.510 -17.170  0.00  0.00    +0.017 C 
ATOM     37  C   UNL     1      14.698  -9.275 -19.090  0.00  0.00    +0.017 C 
ATOM     38  C   UNL     1      13.502  -7.110 -19.205  0.00  0.00    +0.017 C 
ENDBRANCH  34  35
ENDBRANCH   8   7
TORSDOF 5
