REMARK  Name = 4obq_ligand
REMARK  4 active torsions:
REMARK  status: ('A' for Active; 'I' for Inactive)
REMARK    1  A    between atoms: C6_6  and  C7_7
REMARK    2  A    between atoms: C9_9  and  N14_13
REMARK    3  A    between atoms: C15_14  and  C17_16
REMARK    4  A    between atoms: C17_16  and  N18_17
REMARK                            x       y       z     vdW  Elec       q    Type
REMARK                         _______ _______ _______ _____ _____    ______ ____
ROOT
ATOM      3  C   UNL     1     -18.442  -7.632  28.336  0.00  0.00    -0.033 A 
ATOM      4  C   UNL     1     -18.884  -8.464  29.366  0.00  0.00    +0.012 A 
ATOM      5  C   UNL     1     -19.865  -9.386  29.104  0.00  0.00    +0.120 A 
ATOM      6  F   UNL     1     -20.360 -10.106  30.148  0.00  0.00    -0.188 F 
ATOM      7  C   UNL     1     -20.425  -9.564  27.865  0.00  0.00    +0.041 A 
ATOM      8  C   UNL     1     -20.012  -8.721  26.835  0.00  0.00    +0.065 A 
ATOM     20  C   UNL     1     -19.031  -7.759  27.071  0.00  0.00    +0.009 A 
ENDROOT
BRANCH   3   2
ATOM      1  C   UNL     1     -17.227  -5.505  27.759  0.00  0.00    +0.020 A 
ATOM      2  C   UNL     1     -17.430  -6.588  28.619  0.00  0.00    -0.015 A 
ATOM     21  C   UNL     1     -16.639  -6.682  29.740  0.00  0.00    +0.037 A 
ATOM     22  C   UNL     1     -15.674  -5.717  30.062  0.00  0.00    +0.056 A 
ATOM     23  C   UNL     1     -14.766  -5.770  31.188  0.00  0.00    +0.142 A 
ATOM     24  N   UNL     1     -14.644  -6.899  31.918  0.00  0.00    -0.306 N 
ATOM     25  H   UNL     1     -15.200  -7.732  31.675  0.00  0.00    +0.188 HD
ATOM     26  H   UNL     1     -13.995  -6.928  32.718  0.00  0.00    +0.188 HD
ATOM     27  N   UNL     1     -13.954  -4.751  31.455  0.00  0.00    -0.254 NA
ATOM     28  C   UNL     1     -13.957  -3.707  30.617  0.00  0.00    +0.166 A 
ATOM     29  N   UNL     1     -14.675  -3.554  29.503  0.00  0.00    -0.293 NA
ATOM     30  C   UNL     1     -15.546  -4.579  29.226  0.00  0.00    +0.045 A 
ATOM     31  C   UNL     1     -16.336  -4.511  28.057  0.00  0.00    +0.023 A 
ENDBRANCH   3   2
BRANCH   8   9
ATOM      9  N   UNL     1     -20.627  -8.823  25.563  0.00  0.00    -0.231 N 
ATOM     10  H   UNL     1     -20.012  -8.878  24.777  0.00  0.00    +0.226 HD
ATOM     11  C   UNL     1     -21.951  -8.854  25.291  0.00  0.00    +0.249 C 
ATOM     19  O   UNL     1     -22.834  -8.648  26.123  0.00  0.00    -0.379 OA
BRANCH  11  12
ATOM     12  C   UNL     1     -22.291  -9.197  23.853  0.00  0.00    +0.277 C 
BRANCH  12  13
ATOM     13  N   UNL     1     -23.540  -9.946  23.739  0.00  0.00    +0.252 N 
ATOM     14  H   UNL     1     -23.697 -10.332  24.657  0.00  0.00    +0.205 HD
ATOM     15  C   UNL     1     -24.705  -9.128  23.395  0.00  0.00    +0.133 C 
ATOM     16  C   UNL     1     -25.794 -10.147  23.127  0.00  0.00    +0.056 C 
ATOM     17  C   UNL     1     -25.074 -11.385  22.692  0.00  0.00    +0.056 C 
ATOM     18  C   UNL     1     -23.594 -11.063  22.793  0.00  0.00    +0.133 C 
ENDBRANCH  12  13
ENDBRANCH  11  12
ENDBRANCH   8   9
TORSDOF 4
