REMARK  Name = 9S3
REMARK  5 active torsions:
REMARK  status: ('A' for Active; 'I' for Inactive)
REMARK    1  A    between atoms: C4_9  and  N1_10
REMARK    2  A    between atoms: N1_10  and  C5_11
REMARK    3  A    between atoms: C13_20  and  C19_22
REMARK    4  A    between atoms: C22_25  and  C23_28
REMARK    5  A    between atoms: C23_28  and  N3_29
REMARK                            x       y       z     vdW  Elec       q    Type
REMARK                         _______ _______ _______ _____ _____    ______ ____
ROOT
ATOM      1  O   UNL     1      -3.722 -10.014  18.145  0.00  0.00    -0.275 OA
ATOM      2  C   UNL     1      -3.386  -8.983  18.727  0.00  0.00    +0.230 C 
ATOM      3  N   UNL     1      -2.290  -9.014  19.592  0.00  0.00    -0.261 N 
ATOM      4  C   UNL     1      -1.790  -7.898  20.330  0.00  0.00    +0.051 A 
ATOM      5  C   UNL     1      -1.443  -8.098  21.667  0.00  0.00    +0.011 A 
ATOM      6  C   UNL     1      -0.946  -7.038  22.417  0.00  0.00    -0.001 A 
ATOM      7  C   UNL     1      -0.789  -5.760  21.860  0.00  0.00    -0.000 A 
ATOM     21  C   UNL     1      -1.150  -5.580  20.521  0.00  0.00    +0.001 A 
ATOM     22  C   UNL     1      -1.644  -9.508  22.147  0.00  0.00    +0.117 C 
ATOM     30  C   UNL     1      -1.054 -10.509  21.157  0.00  0.00    +0.046 C 
ATOM     31  C   UNL     1      -1.635  -6.631  19.770  0.00  0.00    +0.015 A 
ATOM     32  C   UNL     1      -1.596 -10.325  19.730  0.00  0.00    +0.082 C 
ATOM     33  C   UNL     1      -0.522 -10.487  18.664  0.00  0.00    +0.022 C 
ATOM     34  C   UNL     1      -4.143  -7.696  18.538  0.00  0.00    +0.095 C 
ENDROOT
BRANCH   7   8
ATOM      8  C   UNL     1      -0.260  -4.599  22.689  0.00  0.00    -0.000 A 
ATOM      9  C   UNL     1       0.692  -4.804  23.677  0.00  0.00    -0.000 A 
ATOM     10  C   UNL     1       1.159  -3.750  24.441  0.00  0.00    -0.003 A 
ATOM     11  C   UNL     1       0.708  -2.450  24.225  0.00  0.00    -0.006 A 
ATOM     19  C   UNL     1      -0.251  -2.248  23.243  0.00  0.00    -0.003 A 
ATOM     20  C   UNL     1      -0.717  -3.302  22.479  0.00  0.00    -0.000 A 
BRANCH  11  12
ATOM     12  C   UNL     1       1.211  -1.302  25.074  0.00  0.00    +0.099 C 
BRANCH  12  13
ATOM     13  N   UNL     1       2.451  -0.667  24.600  0.00  0.00    -0.269 NA
ATOM     14  C   UNL     1       2.986   0.245  25.623  0.00  0.00    +0.072 C 
ATOM     15  C   UNL     1       4.260   0.941  25.187  0.00  0.00    +0.017 C 
ATOM     16  C   UNL     1       5.321  -0.064  24.785  0.00  0.00    +0.003 C 
ATOM     17  C   UNL     1       4.769  -1.040  23.769  0.00  0.00    +0.017 C 
ATOM     18  C   UNL     1       3.473  -1.664  24.256  0.00  0.00    +0.072 C 
ENDBRANCH  12  13
ENDBRANCH  11  12
ENDBRANCH   7   8
BRANCH  22  23
ATOM     23  N   UNL     1      -1.156  -9.727  23.496  0.00  0.00    -0.235 NA
BRANCH  23  24
ATOM     24  C   UNL     1      -1.832  -9.373  24.661  0.00  0.00    +0.066 A 
ATOM     25  C   UNL     1      -1.127  -9.267  25.854  0.00  0.00    +0.016 A 
ATOM     26  C   UNL     1      -1.789  -8.936  27.025  0.00  0.00    +0.001 A 
ATOM     27  C   UNL     1      -3.149  -8.707  27.016  0.00  0.00    +0.000 A 
ATOM     28  C   UNL     1      -3.852  -8.817  25.837  0.00  0.00    +0.001 A 
ATOM     29  C   UNL     1      -3.202  -9.142  24.661  0.00  0.00    +0.016 A 
ENDBRANCH  23  24
ENDBRANCH  22  23
TORSDOF 5
