REMARK  Name = 4YJV
REMARK  9 active torsions:
REMARK  status: ('A' for Active; 'I' for Inactive)
REMARK    1  A    between atoms: C_3  and  N_4
REMARK    2  A    between atoms: N_4  and  C_5
REMARK    3  A    between atoms: N_4  and  C_14
REMARK    4  A    between atoms: C_14  and  C_15
REMARK    5  A    between atoms: N_20  and  C_21
REMARK    6  A    between atoms: N_27  and  C_30
REMARK    7  A    between atoms: C_30  and  C_31
REMARK    8  A    between atoms: C_31  and  C_32
REMARK    9  A    between atoms: C_32  and  O_33
REMARK                            x       y       z     vdW  Elec       q    Type
REMARK                         _______ _______ _______ _____ _____    ______ ____
ROOT
ATOM      1  F   UNL     1      30.913  37.787  33.402  0.00  0.00    -0.200 F 
ATOM      2  C   UNL     1      32.091  38.373  33.656  0.00  0.00    +0.181 A 
ATOM      3  C   UNL     1      32.240  39.121  34.800  0.00  0.00    +0.156 A 
ATOM      4  N   UNL     1      33.411  39.679  35.108  0.00  0.00    -0.220 NA
ATOM      5  C   UNL     1      34.431  39.526  34.247  0.00  0.00    +0.221 A 
ATOM      6  N   UNL     1      35.614  40.072  34.674  0.00  0.00    -0.284 N 
ATOM      7  H   UNL     1      35.474  40.620  35.485  0.00  0.00    +0.155 HD
ATOM     23  N   UNL     1      34.358  38.858  33.098  0.00  0.00    -0.196 NA
ATOM     24  C   UNL     1      33.206  38.239  32.767  0.00  0.00    +0.166 A 
ENDROOT
BRANCH   6   8
ATOM      8  C   UNL     1      36.907  40.026  34.169  0.00  0.00    +0.032 C 
ATOM      9  C   UNL     1      37.805  41.001  34.686  0.00  0.00    +0.005 C 
ATOM     10  C   UNL     1      39.141  41.044  34.256  0.00  0.00    +0.058 C 
ATOM     11  C   UNL     1      39.580  40.131  33.278  0.00  0.00    +0.003 A 
ATOM     12  C   UNL     1      40.812  39.896  32.610  0.00  0.00    +0.107 A 
ATOM     13  N   UNL     1      40.678  38.861  31.773  0.00  0.00    -0.304 N 
ATOM     14  H   UNL     1      41.356  38.550  31.143  0.00  0.00    +0.186 HD
ATOM     15  N   UNL     1      39.380  38.423  31.826  0.00  0.00    -0.286 N 
ATOM     21  C   UNL     1      38.662  39.179  32.729  0.00  0.00    +0.065 A 
ATOM     22  C   UNL     1      37.369  39.109  33.190  0.00  0.00    +0.050 C 
BRANCH  15  16
ATOM     16  C   UNL     1      38.933  37.266  31.015  0.00  0.00    +0.144 C 
BRANCH  16  17
ATOM     17  C   UNL     1      38.541  37.683  29.590  0.00  0.00    +0.051 C 
BRANCH  17  18
ATOM     18  C   UNL     1      37.898  36.551  28.775  0.00  0.00    +0.158 C 
BRANCH  18  19
ATOM     19  O   UNL     1      38.873  35.705  28.183  0.00  0.00    -0.395 OA
ATOM     20  H   UNL     1      38.449  34.998  27.699  0.00  0.00    +0.209 HD
ENDBRANCH  18  19
ENDBRANCH  17  18
ENDBRANCH  16  17
ENDBRANCH  15  16
ENDBRANCH   6   8
BRANCH  24  25
ATOM     25  N   UNL     1      33.180  37.564  31.563  0.00  0.00    -0.282 N 
BRANCH  25  28
ATOM     28  C   UNL     1      31.976  37.271  30.872  0.00  0.00    +0.046 A 
ATOM     29  C   UNL     1      31.219  38.277  30.279  0.00  0.00    +0.024 A 
ATOM     30  C   UNL     1      30.073  37.950  29.543  0.00  0.00    +0.004 A 
ATOM     31  C   UNL     1      29.613  36.638  29.456  0.00  0.00    +0.028 A 
ATOM     32  C   UNL     1      30.343  35.666  30.074  0.00  0.00    +0.068 A 
ATOM     33  N   UNL     1      30.213  34.316  30.193  0.00  0.00    -0.277 N 
ATOM     34  H   UNL     1      29.543  33.824  29.718  0.00  0.00    +0.189 HD
ATOM     35  N   UNL     1      31.231  33.745  30.884  0.00  0.00    -0.181 NA
ATOM     36  C   UNL     1      32.027  34.727  31.257  0.00  0.00    +0.144 A 
ATOM     37  C   UNL     1      31.525  35.957  30.773  0.00  0.00    +0.041 A 
ENDBRANCH  25  28
BRANCH  25  26
ATOM     26  C   UNL     1      34.441  37.152  30.874  0.00  0.00    +0.109 C 
ATOM     27  C   UNL     1      35.270  36.137  31.681  0.00  0.00    +0.025 C 
ENDBRANCH  25  26
ENDBRANCH  24  25
TORSDOF 8
