REMARK  Name = 2w1e_ligand
REMARK  5 active torsions:
REMARK  status: ('A' for Active; 'I' for Inactive)
REMARK    1  A    between atoms: N3_3  and  C4_4
REMARK    2  A    between atoms: C9_8  and  C10_9
REMARK    3  A    between atoms: C14_13  and  C15_14
REMARK    4  A    between atoms: C15_14  and  N16_15
REMARK    5  A    between atoms: N28_25  and  C29_26
REMARK                            x       y       z     vdW  Elec       q    Type
REMARK                         _______ _______ _______ _____ _____    ______ ____
ROOT
ATOM     13  C   UNL     1       4.932  30.467   7.566  0.00  0.00    +0.095 A 
ATOM     14  C   UNL     1       4.082  31.558   7.516  0.00  0.00    +0.118 A 
ATOM     33  N   UNL     1       3.724  31.958   8.711  0.00  0.00    -0.203 NA
ATOM     34  N   UNL     1       4.359  31.117   9.547  0.00  0.00    -0.230 N 
ATOM     35  H   UNL     1       4.291  31.162  10.574  0.00  0.00    +0.254 HD
ATOM     36  C   UNL     1       5.093  30.211   8.880  0.00  0.00    +0.141 A 
ENDROOT
BRANCH  14  15
ATOM     15  C   UNL     1       3.551  32.253   6.379  0.00  0.00    +0.142 A 
ATOM     16  N   UNL     1       2.974  33.466   6.419  0.00  0.00    -0.254 N 
ATOM     17  H   UNL     1       2.855  34.043   7.264  0.00  0.00    +0.229 HD
ATOM     18  C   UNL     1       2.573  33.809   5.170  0.00  0.00    +0.075 A 
ATOM     19  C   UNL     1       1.943  34.900   4.596  0.00  0.00    +0.009 A 
ATOM     20  C   UNL     1       1.680  34.917   3.243  0.00  0.00    -0.018 A 
ATOM     21  C   UNL     1       2.041  33.830   2.436  0.00  0.00    -0.014 A 
ATOM     30  C   UNL     1       2.675  32.742   3.027  0.00  0.00    -0.009 A 
ATOM     31  C   UNL     1       2.939  32.727   4.384  0.00  0.00    +0.022 A 
ATOM     32  N   UNL     1       3.527  31.803   5.166  0.00  0.00    -0.313 NA
BRANCH  21  22
ATOM     22  C   UNL     1       1.762  33.839   0.955  0.00  0.00    +0.189 C 
BRANCH  22  23
ATOM     23  N   UNL     1       2.800  34.616   0.198  0.00  0.00    +0.249 N 
ATOM     24  H   UNL     1       2.490  34.707  -0.757  0.00  0.00    +0.205 HD
ATOM     25  C   UNL     1       2.980  35.978   0.769  0.00  0.00    +0.161 C 
ATOM     26  C   UNL     1       4.001  36.731  -0.060  0.00  0.00    +0.210 C 
ATOM     27  O   UNL     1       5.263  36.050  -0.054  0.00  0.00    -0.369 OA
ATOM     28  C   UNL     1       5.117  34.717  -0.585  0.00  0.00    +0.210 C 
ATOM     29  C   UNL     1       4.109  33.910   0.208  0.00  0.00    +0.161 C 
ENDBRANCH  22  23
ENDBRANCH  21  22
ENDBRANCH  14  15
BRANCH  13  11
ATOM      1  O   UNL     1       6.192  27.907   7.415  0.00  0.00    -0.384 OA
ATOM      2  C   UNL     1       6.080  28.613   6.441  0.00  0.00    +0.308 C 
ATOM      3  N   UNL     1       6.584  28.195   5.239  0.00  0.00    -0.216 N 
ATOM      4  H   UNL     1       7.041  27.306   5.240  0.00  0.00    +0.226 HD
ATOM     11  N   UNL     1       5.468  29.827   6.470  0.00  0.00    -0.229 N 
ATOM     12  H   UNL     1       5.399  30.310   5.597  0.00  0.00    +0.215 HD
BRANCH   3   5
ATOM      5  C   UNL     1       6.536  28.874   3.986  0.00  0.00    +0.067 A 
ATOM      6  C   UNL     1       6.989  30.180   3.872  0.00  0.00    +0.009 A 
ATOM      7  C   UNL     1       6.937  30.826   2.662  0.00  0.00    -0.018 A 
ATOM      8  C   UNL     1       6.440  30.186   1.560  0.00  0.00    -0.029 A 
ATOM      9  C   UNL     1       5.992  28.896   1.657  0.00  0.00    -0.018 A 
ATOM     10  C   UNL     1       6.038  28.237   2.862  0.00  0.00    +0.009 A 
ENDBRANCH   3   5
ENDBRANCH  13  11
TORSDOF 5
