REMARK  Name = 4ivd_ligand
REMARK  7 active torsions:
REMARK  status: ('A' for Active; 'I' for Inactive)
REMARK    1  A    between atoms: C1_1  and  C2_2
REMARK    2  A    between atoms: C2_2  and  O4_3
REMARK    3  A    between atoms: C2_2  and  C5_4
REMARK    4  A    between atoms: N6_5  and  C18_16
REMARK    5  A    between atoms: C22_19  and  C26_22
REMARK    6  A    between atoms: C26_22  and  C27_23
REMARK    7  A    between atoms: C27_23  and  C28_24
REMARK                            x       y       z     vdW  Elec       q    Type
REMARK                         _______ _______ _______ _____ _____    ______ ____
ROOT
ATOM      3  C   UNL     1       8.845  57.549  -0.542  0.00  0.00    +0.152 A 
ATOM      4  N   UNL     1       8.866  58.791  -0.872  0.00  0.00    -0.317 NA
ATOM      5  C   UNL     1       7.724  59.394  -0.485  0.00  0.00    +0.033 A 
ATOM      6  C   UNL     1       7.264  60.706  -0.608  0.00  0.00    +0.061 A 
ATOM      7  N   UNL     1       6.089  61.069  -0.147  0.00  0.00    -0.305 NA
ATOM      8  C   UNL     1       5.282  60.198   0.453  0.00  0.00    +0.120 A 
ATOM      9  N   UNL     1       4.040  60.341   0.986  0.00  0.00    -0.274 N 
ATOM     10  H   UNL     1       3.508  61.223   1.012  0.00  0.00    +0.228 HD
ATOM     11  C   UNL     1       3.595  59.141   1.486  0.00  0.00    +0.113 A 
ATOM     12  C   UNL     1       4.547  58.209   1.305  0.00  0.00    -0.032 A 
ATOM     13  C   UNL     1       5.668  58.847   0.628  0.00  0.00    +0.019 A 
ATOM     14  C   UNL     1       6.930  58.418   0.148  0.00  0.00    +0.089 A 
ATOM     15  N   UNL     1       7.675  57.244   0.090  0.00  0.00    -0.225 N 
ENDROOT
BRANCH  15  16
ATOM     16  C   UNL     1       7.353  55.894   0.597  0.00  0.00    +0.134 C 
ATOM     17  C   UNL     1       6.165  55.266  -0.152  0.00  0.00    +0.036 C 
ATOM     18  C   UNL     1       5.920  53.837   0.351  0.00  0.00    +0.006 C 
ATOM     19  C   UNL     1       5.648  53.837   1.867  0.00  0.00    -0.009 C 
ATOM     24  C   UNL     1       6.802  54.518   2.631  0.00  0.00    +0.006 C 
ATOM     25  C   UNL     1       7.090  55.939   2.110  0.00  0.00    +0.036 C 
BRANCH  19  20
ATOM     20  C   UNL     1       5.542  52.403   2.422  0.00  0.00    +0.031 C 
BRANCH  20  21
ATOM     21  C   UNL     1       4.119  51.824   2.381  0.00  0.00    +0.184 C 
BRANCH  21  22
ATOM     22  C   UNL     1       3.799  51.315   1.039  0.00  0.00    +0.090 C 
ATOM     23  N   UNL     1       3.601  51.002  -0.039  0.00  0.00    -0.304 NA
ENDBRANCH  21  22
ENDBRANCH  20  21
ENDBRANCH  19  20
ENDBRANCH  15  16
BRANCH   3   2
ATOM      1  C   UNL     1      10.936  57.174  -1.844  0.00  0.00    +0.065 C 
ATOM      2  C   UNL     1       9.970  56.584  -0.815  0.00  0.00    +0.219 C 
BRANCH   2  26
ATOM     26  O   UNL     1      10.613  56.293   0.445  0.00  0.00    -0.371 OA
ATOM     27  H   UNL     1       9.975  55.930   1.048  0.00  0.00    +0.214 HD
ENDBRANCH   2  26
ENDBRANCH   3   2
TORSDOF 6
