REMARK  Name = 2wu7_ligand
REMARK  8 active torsions:
REMARK  status: ('A' for Active; 'I' for Inactive)
REMARK    1  A    between atoms: CAA_1  and  CAL_2
REMARK    2  A    between atoms: CAL_2  and  OAM_3
REMARK    3  A    between atoms: OAM_3  and  CAN_4
REMARK    4  A    between atoms: CAN_4  and  CAS_6
REMARK    5  A    between atoms: NAV_7  and  CAB_8
REMARK    6  A    between atoms: CAR_17  and  CAO_18
REMARK    7  A    between atoms: CAO_18  and  CAH_19
REMARK    8  A    between atoms: CAI_21  and  NAD_22
REMARK                            x       y       z     vdW  Elec       q    Type
REMARK                         _______ _______ _______ _____ _____    ______ ____
ROOT
ATOM      5  C   UNL     1      35.458  15.325  17.380  0.00  0.00    +0.141 A 
ATOM      6  C   UNL     1      35.322  13.941  17.283  0.00  0.00    +0.008 A 
ATOM     14  C   UNL     1      35.465  13.546  15.946  0.00  0.00    -0.010 A 
ATOM     15  C   UNL     1      35.441  12.292  15.289  0.00  0.00    -0.012 A 
ATOM     16  C   UNL     1      35.650  12.250  13.879  0.00  0.00    -0.009 A 
ATOM     17  C   UNL     1      35.873  13.463  13.096  0.00  0.00    +0.043 A 
ATOM     18 CL   UNL     1      36.086  13.356  11.449  0.00  0.00    -0.076 Cl
ATOM     19  C   UNL     1      35.891  14.682  13.707  0.00  0.00    +0.075 A 
ATOM     20 CL   UNL     1      36.096  16.133  12.727  0.00  0.00    -0.077 Cl
ATOM     21  C   UNL     1      35.700  14.782  15.131  0.00  0.00    +0.083 A 
ATOM     22  N   UNL     1      35.687  15.796  15.955  0.00  0.00    -0.262 N 
ATOM     23  C   UNL     1      35.939  17.189  15.438  0.00  0.00    +0.206 C 
ENDROOT
BRANCH   5   4
ATOM      4  C   UNL     1      35.397  16.137  18.731  0.00  0.00    +0.273 C 
ATOM     24  O   UNL     1      35.775  17.231  18.489  0.00  0.00    -0.366 OA
BRANCH   4   3
ATOM      3  O   UNL     1      35.209  15.809  19.991  0.00  0.00    -0.280 OA
BRANCH   3   2
ATOM      1  C   UNL     1      33.654  17.426  20.973  0.00  0.00    +0.039 C 
ATOM      2  C   UNL     1      34.688  16.371  21.242  0.00  0.00    +0.194 C 
ENDBRANCH   3   2
ENDBRANCH   4   3
ENDBRANCH   5   4
BRANCH   6   7
ATOM      7  C   UNL     1      35.062  12.958  18.128  0.00  0.00    +0.092 C 
ATOM      8  C   UNL     1      33.805  13.035  18.627  0.00  0.00    +0.188 C 
BRANCH   8   9
ATOM      9  N   UNL     1      32.778  13.780  18.556  0.00  0.00    -0.312 N 
ATOM     10  H   UNL     1      32.791  14.620  17.960  0.00  0.00    +0.196 HD
ATOM     11  H   UNL     1      31.932  13.544  19.094  0.00  0.00    +0.196 HD
ENDBRANCH   8   9
BRANCH   7  12
ATOM     12  C   UNL     1      35.688  11.803  18.617  0.00  0.00    +0.050 C 
ATOM     13  N   UNL     1      35.822  10.939  19.132  0.00  0.00    -0.376 NA
ENDBRANCH   7  12
ENDBRANCH   6   7
TORSDOF 6
