REMARK  Name = 6HWT
REMARK  10 active torsions:
REMARK  status: ('A' for Active; 'I' for Inactive)
REMARK    1  A    between atoms: C10_1  and  C09_14
REMARK    2  A    between atoms: C10_1  and  C11_15
REMARK    3  A    between atoms: C15_2  and  N14_33
REMARK    4  A    between atoms: C17_3  and  C21_4
REMARK    5  A    between atoms: C22_5  and  C34_25
REMARK    6  A    between atoms: C28_7  and  N27_37
REMARK    7  A    between atoms: C03_9  and  O02_38
REMARK    8  A    between atoms: C06_12  and  O07_39
REMARK    9  A    between atoms: C11_15  and  C12_16
REMARK   10  A    between atoms: N26_36  and  N27_37
REMARK                            x       y       z     vdW  Elec       q    Type
REMARK                         _______ _______ _______ _____ _____    ______ ____
ROOT
ATOM      6  C   UNL     1     -22.178   2.940  23.869  0.00  0.00    +0.430 A 
ATOM      7  N   UNL     1     -22.208   1.895  24.704  0.00  0.00    -0.760 NA
ATOM      8  C   UNL     1     -22.308   0.594  24.228  0.00  0.00    +0.250 A 
ATOM      9  C   UNL     1     -22.369   0.368  22.864  0.00  0.00    -0.130 A 
ATOM     10  C   UNL     1     -22.367   1.436  21.972  0.00  0.00    +0.000 A 
ATOM     31  C   UNL     1     -22.245   2.725  22.489  0.00  0.00    -0.130 A 
ENDROOT
BRANCH  10  11
ATOM     11  C   UNL     1     -22.399   1.256  20.644  0.00  0.00    +0.000 A 
ATOM     12  S   UNL     1     -21.758   2.427  19.579  0.00  0.00    -0.060 S 
ATOM     13  C   UNL     1     -22.095   1.515  18.227  0.00  0.00    +0.160 A 
ATOM     14  N   UNL     1     -21.855   1.825  16.957  0.00  0.00    -0.050 NA
ATOM     22  N   UNL     1     -22.659   0.372  18.585  0.00  0.00    -0.400 NA
ATOM     23  C   UNL     1     -22.834   0.204  19.902  0.00  0.00    +0.100 A 
BRANCH  23  24
ATOM     24  C   UNL     1     -23.421  -0.945  20.273  0.00  0.00    +0.000 A 
ATOM     25  C   UNL     1     -22.891  -2.152  19.821  0.00  0.00    -0.130 A 
ATOM     26  C   UNL     1     -23.488  -3.361  20.167  0.00  0.00    -0.130 A 
ATOM     27  C   UNL     1     -24.637  -3.365  20.950  0.00  0.00    +0.300 A 
ATOM     28  F   UNL     1     -25.242  -4.557  21.301  0.00  0.00    -0.300 F 
ATOM     29  C   UNL     1     -25.182  -2.164  21.387  0.00  0.00    -0.130 A 
ATOM     30  C   UNL     1     -24.585  -0.958  21.036  0.00  0.00    -0.130 A 
ENDBRANCH  23  24
BRANCH  14  15
ATOM     15  N   UNL     1     -21.190   3.020  16.701  0.00  0.00    -0.300 NA
BRANCH  15  16
ATOM     16  C   UNL     1     -21.925   4.123  16.720  0.00  0.00    +0.050 A 
ATOM     17  C   UNL     1     -21.306   5.350  16.914  0.00  0.00    -0.130 A 
ATOM     18  C   UNL     1     -22.069   6.509  16.938  0.00  0.00    -0.130 A 
ATOM     19  C   UNL     1     -23.447   6.437  16.766  0.00  0.00    -0.130 A 
ATOM     20  C   UNL     1     -24.067   5.208  16.572  0.00  0.00    -0.130 A 
ATOM     21  C   UNL     1     -23.304   4.048  16.549  0.00  0.00    -0.130 A 
ENDBRANCH  15  16
ENDBRANCH  14  15
ENDBRANCH  10  11
BRANCH   6   5
ATOM      3  C   UNL     1     -21.859   5.301  23.831  0.00  0.00    +0.600 C 
ATOM      4  O   UNL     1     -21.774   5.491  22.619  0.00  0.00    -0.550 OA
ATOM      5  N   UNL     1     -22.072   4.134  24.469  0.00  0.00    -0.350 NA
BRANCH   3   2
ATOM      2  C   UNL     1     -21.756   6.482  24.782  0.00  0.00    -0.100 C 
BRANCH   2   1
ATOM      1  C   UNL     1     -22.552   7.623  24.186  0.00  0.00    -0.100 C 
BRANCH   1  32
ATOM     32  C   UNL     1     -23.097   8.386  25.202  0.00  0.00    +0.000 A 
ATOM     33  C   UNL     1     -23.854   7.790  26.201  0.00  0.00    -0.130 A 
ATOM     34  C   UNL     1     -24.387   8.578  27.213  0.00  0.00    +0.185 A 
ATOM     37  C   UNL     1     -24.176   9.953  27.225  0.00  0.00    -0.130 A 
ATOM     38  C   UNL     1     -23.418  10.550  26.224  0.00  0.00    -0.130 A 
ATOM     39  C   UNL     1     -22.886   9.755  25.218  0.00  0.00    +0.185 A 
BRANCH  34  35
ATOM     35  O   UNL     1     -25.134   8.002  28.185  0.00  0.00    -0.365 OA
ATOM     36  C   UNL     1     -26.464   7.962  27.671  0.00  0.00    +0.030 C 
ENDBRANCH  34  35
BRANCH  39  40
ATOM     40  O   UNL     1     -22.133  10.258  24.201  0.00  0.00    -0.365 OA
ATOM     41  C   UNL     1     -22.965  10.906  23.227  0.00  0.00    +0.030 C 
ENDBRANCH  39  40
ENDBRANCH   1  32
ENDBRANCH   2   1
ENDBRANCH   3   2
ENDBRANCH   6   5
TORSDOF 10
