REMARK  Name = 2q8g_ligand
REMARK  10 active torsions:
REMARK  status: ('A' for Active; 'I' for Inactive)
REMARK    1  A    between atoms: C27_2  and  C24_5
REMARK    2  A    between atoms: C24_5  and  O25_6
REMARK    3  A    between atoms: C24_5  and  C26_7
REMARK    4  A    between atoms: C24_5  and  C23_8
REMARK    5  A    between atoms: N22_10  and  C18_11
REMARK    6  A    between atoms: C15_17  and  S12_18
REMARK    7  A    between atoms: S12_18  and  C1_21
REMARK    8  A    between atoms: C4_26  and  C7_27
REMARK    9  A    between atoms: N9_29  and  C11_30
REMARK   10  A    between atoms: N9_29  and  C10_31
REMARK                            x       y       z     vdW  Elec       q    Type
REMARK                         _______ _______ _______ _____ _____    ______ ____
ROOT
ATOM      7  C   UNL     1      -4.052  41.263   6.372  0.00  0.00    +0.082 A 
ATOM      8  C   UNL     1      -3.563  42.410   7.195  0.00  0.00    +0.062 A 
ATOM      9  C   UNL     1      -3.111  42.221   8.509  0.00  0.00    +0.025 A 
ATOM     10  C   UNL     1      -3.090  40.923   9.056  0.00  0.00    +0.080 A 
ATOM     25  C   UNL     1      -3.556  39.839   8.276  0.00  0.00    +0.011 A 
ATOM     26 CL   UNL     1      -3.628  44.043   6.473  0.00  0.00    -0.082 Cl
ATOM     27  C   UNL     1      -4.029  39.980   6.950  0.00  0.00    +0.013 A 
ENDROOT
BRANCH   7   5
ATOM      4  C   UNL     1      -5.065  40.713   4.285  0.00  0.00    +0.263 C 
ATOM      5  N   UNL     1      -4.461  41.561   5.101  0.00  0.00    -0.229 N 
ATOM      6  H   UNL     1      -4.291  42.487   4.764  0.00  0.00    +0.228 HD
ATOM     28  O   UNL     1      -5.456  39.622   4.662  0.00  0.00    -0.332 OA
BRANCH   4   3
ATOM      3  C   UNL     1      -5.252  41.173   2.851  0.00  0.00    +0.243 C 
ATOM     29  C   UNL     1      -6.718  41.208   2.459  0.00  0.00    +0.054 C 
BRANCH   3   2
ATOM      1  F   UNL     1      -4.420  40.894   0.742  0.00  0.00    -0.169 F 
ATOM      2  C   UNL     1      -4.367  40.327   1.928  0.00  0.00    +0.425 C 
ATOM     32  F   UNL     1      -3.145  40.352   2.467  0.00  0.00    -0.169 F 
ATOM     33  F   UNL     1      -4.720  39.057   1.850  0.00  0.00    -0.169 F 
ENDBRANCH   3   2
BRANCH   3  30
ATOM     30  O   UNL     1      -4.735  42.521   2.738  0.00  0.00    -0.377 OA
ATOM     31  H   UNL     1      -5.244  43.102   3.291  0.00  0.00    +0.208 HD
ENDBRANCH   3  30
ENDBRANCH   4   3
ENDBRANCH   7   5
BRANCH  10  11
ATOM     11  S   UNL     1      -2.588  40.741  10.614  0.00  0.00    +0.021 S 
ATOM     23  O   UNL     1      -1.785  41.886  10.964  0.00  0.00    -0.166 OA
ATOM     24  O   UNL     1      -1.816  39.557  10.874  0.00  0.00    -0.166 OA
BRANCH  11  12
ATOM     12  C   UNL     1      -3.949  40.731  11.420  0.00  0.00    +0.096 A 
ATOM     13  C   UNL     1      -4.589  39.525  11.603  0.00  0.00    +0.034 A 
ATOM     14  C   UNL     1      -5.794  39.505  12.291  0.00  0.00    +0.027 A 
ATOM     15  C   UNL     1      -6.350  40.702  12.788  0.00  0.00    +0.050 A 
ATOM     21  C   UNL     1      -5.702  41.928  12.598  0.00  0.00    +0.027 A 
ATOM     22  C   UNL     1      -4.499  41.929  11.893  0.00  0.00    +0.034 A 
BRANCH  15  16
ATOM     16  C   UNL     1      -7.665  40.597  13.537  0.00  0.00    +0.207 C 
ATOM     17  N   UNL     1      -8.702  41.437  13.266  0.00  0.00    -0.279 N 
ATOM     18  C   UNL     1      -9.832  41.626  14.186  0.00  0.00    +0.168 C 
ATOM     19  C   UNL     1      -8.839  42.231  12.044  0.00  0.00    +0.168 C 
ATOM     20  O   UNL     1      -7.735  39.693  14.386  0.00  0.00    -0.385 OA
ENDBRANCH  15  16
ENDBRANCH  11  12
ENDBRANCH  10  11
TORSDOF 7
