REMARK  Name = 3t3v_ligand
REMARK  7 active torsions:
REMARK  status: ('A' for Active; 'I' for Inactive)
REMARK    1  A    between atoms: C6_6  and  NAD_10
REMARK    2  A    between atoms: CAA_7  and  OAO_18
REMARK    3  A    between atoms: CAB_8  and  CAX_24
REMARK    4  A    between atoms: CAC_9  and  CAX_24
REMARK    5  A    between atoms: OAO_18  and  CAP_19
REMARK    6  A    between atoms: CAQ_20  and  CAS_21
REMARK    7  A    between atoms: CAX_24  and  NAY_25
REMARK                            x       y       z     vdW  Elec       q    Type
REMARK                         _______ _______ _______ _____ _____    ______ ____
ROOT
ATOM      1  N   UNL     1      16.686  11.623  62.700  0.00  0.00    -0.266 NA
ATOM      2  C   UNL     1      15.597  12.392  62.925  0.00  0.00    +0.127 A 
ATOM      6  C   UNL     1      15.724  13.778  62.807  0.00  0.00    +0.087 A 
ATOM      7  C   UNL     1      14.931  14.912  62.947  0.00  0.00    +0.071 A 
ATOM     20  N   UNL     1      15.694  15.970  62.659  0.00  0.00    -0.194 NA
ATOM     21  N   UNL     1      16.849  15.599  62.393  0.00  0.00    -0.181 N 
ATOM     25  C   UNL     1      16.971  14.270  62.446  0.00  0.00    +0.164 A 
ATOM     26  N   UNL     1      18.017  13.435  62.237  0.00  0.00    -0.268 NA
ATOM     27  C   UNL     1      17.885  12.117  62.369  0.00  0.00    +0.160 A 
ENDROOT
BRANCH   7   8
ATOM      8  C   UNL     1      13.581  14.903  63.296  0.00  0.00    -0.010 A 
ATOM      9  C   UNL     1      13.113  14.208  64.413  0.00  0.00    +0.011 A 
ATOM     10  C   UNL     1      11.754  14.235  64.737  0.00  0.00    -0.024 A 
ATOM     11  C   UNL     1      10.848  14.959  63.955  0.00  0.00    -0.029 A 
ATOM     12  C   UNL     1       9.492  14.973  64.282  0.00  0.00    +0.021 A 
ATOM     13  C   UNL     1       9.044  14.253  65.379  0.00  0.00    +0.092 A 
ATOM     16  C   UNL     1       9.948  13.540  66.159  0.00  0.00    +0.032 A 
ATOM     17  C   UNL     1      11.318  15.660  62.848  0.00  0.00    -0.000 A 
ATOM     18  C   UNL     1      11.290  13.547  65.839  0.00  0.00    +0.005 A 
ATOM     19  C   UNL     1      12.677  15.635  62.524  0.00  0.00    +0.004 A 
BRANCH  13  14
ATOM     14  O   UNL     1       7.734  14.236  65.728  0.00  0.00    -0.320 OA
ATOM     15  C   UNL     1       6.855  14.748  64.684  0.00  0.00    +0.233 C 
ENDBRANCH  13  14
ENDBRANCH   7   8
BRANCH   2   3
ATOM      3  N   UNL     1      14.459  11.796  63.255  0.00  0.00    -0.313 N 
ATOM      4  H   UNL     1      14.418  10.779  63.328  0.00  0.00    +0.184 HD
ATOM      5  H   UNL     1      13.625  12.354  63.436  0.00  0.00    +0.184 HD
ENDBRANCH   2   3
BRANCH  21  22
ATOM     22  C   UNL     1      17.982  16.492  62.038  0.00  0.00    +0.141 C 
ATOM     23  C   UNL     1      18.040  16.646  60.513  0.00  0.00    +0.044 C 
ATOM     24  C   UNL     1      17.885  17.865  62.701  0.00  0.00    +0.044 C 
ENDBRANCH  21  22
TORSDOF 4
