REMARK  Name = E4V
REMARK  1 active torsions:
REMARK  status: ('A' for Active; 'I' for Inactive)
REMARK    1  A    between atoms: C05_6  and  C06_7
REMARK                            x       y       z     vdW  Elec       q    Type
REMARK                         _______ _______ _______ _____ _____    ______ ____
ROOT
ATOM      1  N   UNL     1     -12.624  12.485  23.005  0.00  0.00    -0.030 NA
ATOM      2  C   UNL     1     -11.322  12.199  23.048  0.00  0.00    +0.236 C 
ATOM      3  C   UNL     1     -10.661  13.096  22.193  0.00  0.00    +0.058 C 
ATOM      4  C   UNL     1     -11.660  13.888  21.615  0.00  0.00    +0.090 C 
ATOM      5  C   UNL     1     -11.631  14.920  20.726  0.00  0.00    +0.017 C 
ATOM      6  C   UNL     1     -12.889  15.485  20.422  0.00  0.00    +0.154 C 
ATOM      7  C   UNL     1     -14.077  15.027  20.981  0.00  0.00    +0.400 C 
ATOM      8  N   UNL     1     -14.054  14.049  21.832  0.00  0.00    +0.010 NA
ATOM      9  N   UNL     1     -15.343  15.613  20.628  0.00  0.00    +0.211 NA
ATOM     17  C   UNL     1     -12.868  13.476  22.166  0.00  0.00    +0.379 C 
ENDROOT
BRANCH   5  10
ATOM     10  C   UNL     1     -10.443  15.429  20.121  0.00  0.00    +0.097 A 
ATOM     11  N   UNL     1      -9.289  14.778  19.966  0.00  0.00    -0.239 NA
ATOM     12  C   UNL     1      -8.234  15.335  19.370  0.00  0.00    +0.136 A 
ATOM     13  C   UNL     1      -8.323  16.660  18.915  0.00  0.00    +0.189 A 
ATOM     14  N   UNL     1      -9.475  17.291  19.084  0.00  0.00    -0.223 NA
ATOM     15  N   UNL     1      -7.212  17.317  18.257  0.00  0.00    -0.106 NA
ATOM     16  C   UNL     1     -10.509  16.711  19.666  0.00  0.00    +0.119 A 
ENDBRANCH   5  10
TORSDOF 1
