REMARK  Name = 5U8L
REMARK  7 active torsions:
REMARK  status: ('A' for Active; 'I' for Inactive)
REMARK    1  A    between atoms: S_2  and  C_4
REMARK    2  A    between atoms: C_9  and  C_10
REMARK    3  A    between atoms: C_10  and  N_11
REMARK    4  A    between atoms: C_20  and  C_21
REMARK    5  A    between atoms: N_22  and  C_23
REMARK    6  A    between atoms: C_26  and  N_27
REMARK    7  A    between atoms: C_32  and  C_33
REMARK                            x       y       z     vdW  Elec       q    Type
REMARK                         _______ _______ _______ _____ _____    ______ ____
ROOT
ATOM      8  N   UNL     1      14.539  -8.258 -32.663  0.00  0.00    -0.295 NA
ATOM      9  C   UNL     1      13.235  -7.495 -32.383  0.00  0.00    +0.104 C 
ATOM     10  C   UNL     1      13.331  -6.138 -33.048  0.00  0.00    +0.123 C 
ATOM     11  N   UNL     1      14.504  -5.440 -32.461  0.00  0.00    -0.297 N 
ATOM     12  C   UNL     1      14.452  -4.048 -32.637  0.00  0.00    +0.222 A 
ATOM     13  N   UNL     1      15.598  -3.298 -32.577  0.00  0.00    -0.209 NA
ATOM     14  C   UNL     1      15.486  -1.942 -32.733  0.00  0.00    +0.135 A 
ATOM     15  C   UNL     1      14.265  -1.292 -32.945  0.00  0.00    +0.110 A 
ATOM     16  C   UNL     1      13.133  -2.109 -33.004  0.00  0.00    +0.273 A 
ATOM     31  N   UNL     1      13.234  -3.456 -32.854  0.00  0.00    -0.172 NA
ATOM     32  C   UNL     1      15.767  -6.108 -32.822  0.00  0.00    +0.123 C 
ATOM     33  C   UNL     1      15.763  -7.493 -32.175  0.00  0.00    +0.104 C 
ENDROOT
BRANCH  16  17
ATOM     17  N   UNL     1      11.889  -1.481 -33.229  0.00  0.00    -0.013 NA
ATOM     18  C   UNL     1      10.617  -1.961 -33.388  0.00  0.00    +0.396 C 
ATOM     19  N   UNL     1       9.582  -1.145 -33.576  0.00  0.00    +0.086 NA
ATOM     20  N   UNL     1       8.530  -1.953 -33.706  0.00  0.00    -0.039 NA
ATOM     21  C   UNL     1       8.827  -3.269 -33.615  0.00  0.00    +0.100 C 
ATOM     25  C   UNL     1      10.187  -3.325 -33.402  0.00  0.00    +0.135 C 
BRANCH  21  22
ATOM     22  C   UNL     1       7.790  -4.405 -33.746  0.00  0.00    +0.042 C 
ATOM     23  C   UNL     1       8.048  -5.540 -34.703  0.00  0.00    +0.010 C 
ATOM     24  C   UNL     1       8.063  -5.783 -33.221  0.00  0.00    +0.010 C 
ENDBRANCH  21  22
ENDBRANCH  16  17
BRANCH  14  26
ATOM     26  C   UNL     1      16.754  -1.157 -32.669  0.00  0.00    +0.263 C 
ATOM     27  O   UNL     1      16.727   0.070 -32.801  0.00  0.00    -0.269 OA
ATOM     28  N   UNL     1      17.907  -1.908 -32.460  0.00  0.00    -0.313 N 
ATOM     29  H   UNL     1      17.813  -2.969 -32.358  0.00  0.00    +0.149 HD
ATOM     30  C   UNL     1      19.237  -1.317 -32.373  0.00  0.00    +0.128 C 
ENDBRANCH  14  26
BRANCH   8   7
ATOM      7  C   UNL     1      14.528  -9.634 -32.027  0.00  0.00    +0.119 C 
BRANCH   7   6
ATOM      3  C   UNL     1      11.248 -12.201 -33.171  0.00  0.00    +0.112 A 
ATOM      4  C   UNL     1      12.029 -11.596 -34.189  0.00  0.00    +0.029 A 
ATOM      5  C   UNL     1      13.102 -10.755 -33.815  0.00  0.00    +0.007 A 
ATOM      6  C   UNL     1      13.386 -10.523 -32.430  0.00  0.00    -0.033 A 
ATOM     34  C   UNL     1      12.585 -11.138 -31.430  0.00  0.00    +0.007 A 
ATOM     35  C   UNL     1      11.512 -11.981 -31.794  0.00  0.00    +0.029 A 
BRANCH   3   2
ATOM      1  O   UNL     1      10.490 -14.210 -34.580  0.00  0.00    -0.147 OA
ATOM      2  S   UNL     1       9.940 -13.242 -33.658  0.00  0.00    +0.120 S 
ATOM     36  O   UNL     1       9.343 -13.714 -32.413  0.00  0.00    -0.147 OA
ENDBRANCH   3   2
ENDBRANCH   7   6
ENDBRANCH   8   7
TORSDOF 6
