REMARK  Name = 3mb6_ligand
REMARK  2 active torsions:
REMARK  status: ('A' for Active; 'I' for Inactive)
REMARK    1  A    between atoms: CAL_12  and  CAR_18
REMARK    2  A    between atoms: CAO_15  and  CAQ_17
REMARK                            x       y       z     vdW  Elec       q    Type
REMARK                         _______ _______ _______ _____ _____    ______ ____
ROOT
ATOM      1  C   UNL     1      23.249   9.923  12.236  0.00  0.00    -0.008 A 
ATOM      2  C   UNL     1      23.137   8.532  12.297  0.00  0.00    -0.038 A 
ATOM      3  C   UNL     1      23.206   7.833  11.086  0.00  0.00    -0.011 A 
ATOM      4  C   UNL     1      23.110   6.444  11.031  0.00  0.00    +0.028 A 
ATOM      5  C   UNL     1      22.941   5.762  12.224  0.00  0.00    +0.125 A 
ATOM      6  O   UNL     1      22.825   4.360  12.429  0.00  0.00    -0.247 OA
ATOM      7  C   UNL     1      22.673   4.185  13.791  0.00  0.00    +0.152 A 
ATOM     11  C   UNL     1      22.694   5.387  14.528  0.00  0.00    +0.010 A 
ATOM     12  C   UNL     1      22.866   6.424  13.540  0.00  0.00    -0.003 A 
ATOM     13  C   UNL     1      22.957   7.813  13.619  0.00  0.00    -0.033 A 
ATOM     14  C   UNL     1      22.889   8.519  14.829  0.00  0.00    +0.025 A 
ATOM     15  C   UNL     1      22.999   9.907  14.729  0.00  0.00    +0.124 A 
ATOM     16  O   UNL     1      22.971  10.916  15.742  0.00  0.00    -0.247 OA
ATOM     17  C   UNL     1      23.124  12.133  15.091  0.00  0.00    +0.153 A 
ATOM     21  C   UNL     1      23.253  12.007  13.701  0.00  0.00    +0.012 A 
ATOM     22  C   UNL     1      23.176  10.598  13.443  0.00  0.00    -0.005 A 
ENDROOT
BRANCH   7   8
ATOM      8  C   UNL     1      22.514   2.807  14.341  0.00  0.00    +0.097 C 
ATOM      9  O   UNL     1      22.512   1.875  13.512  0.00  0.00    -0.559 OA
ATOM     10  O   UNL     1      22.382   2.627  15.573  0.00  0.00    -0.559 OA
ENDBRANCH   7   8
BRANCH  17  18
ATOM     18  C   UNL     1      23.151  13.452  15.802  0.00  0.00    +0.099 C 
ATOM     19  O   UNL     1      23.293  14.502  15.130  0.00  0.00    -0.558 OA
ATOM     20  O   UNL     1      23.026  13.463  17.049  0.00  0.00    -0.558 OA
ENDBRANCH  17  18
TORSDOF 2
