REMARK  Name = 5TQ3
REMARK  5 active torsions:
REMARK  status: ('A' for Active; 'I' for Inactive)
REMARK    1  A    between atoms: C_4  and  C_8
REMARK    2  A    between atoms: C_9  and  C_20
REMARK    3  A    between atoms: C_10  and  C_11
REMARK    4  A    between atoms: C_11  and  C_12
REMARK    5  A    between atoms: C_13  and  O_27
REMARK                            x       y       z     vdW  Elec       q    Type
REMARK                         _______ _______ _______ _____ _____    ______ ____
ROOT
ATOM      8  C   UNL     1       5.400  -3.542  12.020  0.00  0.00    -0.016 A 
ATOM      9  C   UNL     1       4.520  -3.432  10.941  0.00  0.00    +0.036 A 
ATOM     10  C   UNL     1       4.607  -2.331  10.095  0.00  0.00    +0.067 A 
ATOM     11  N   UNL     1       3.896  -1.973   8.997  0.00  0.00    -0.276 N 
ATOM     12  H   UNL     1       3.091  -2.549   8.590  0.00  0.00    +0.189 HD
ATOM     13  N   UNL     1       4.330  -0.792   8.474  0.00  0.00    -0.170 NA
ATOM     14  C   UNL     1       5.349  -0.342   9.225  0.00  0.00    +0.135 A 
ATOM     25  C   UNL     1       5.563  -1.319  10.296  0.00  0.00    +0.030 A 
ATOM     26  C   UNL     1       6.434  -1.439  11.375  0.00  0.00    +0.013 A 
ATOM     27  C   UNL     1       6.349  -2.535  12.219  0.00  0.00    +0.009 A 
ENDROOT
BRANCH  14  15
ATOM     15  C   UNL     1       6.053   0.906   8.932  0.00  0.00    +0.160 A 
ATOM     16  N   UNL     1       5.709   1.694   7.926  0.00  0.00    -0.337 N 
ATOM     17  H   UNL     1       4.921   1.543   7.218  0.00  0.00    +0.167 HD
ATOM     18  C   UNL     1       6.601   2.765   7.993  0.00  0.00    +0.067 A 
ATOM     19  C   UNL     1       6.719   3.901   7.193  0.00  0.00    +0.028 A 
ATOM     20  C   UNL     1       7.712   4.827   7.482  0.00  0.00    +0.002 A 
ATOM     21  C   UNL     1       8.580   4.631   8.554  0.00  0.00    +0.002 A 
ATOM     22  C   UNL     1       8.471   3.505   9.357  0.00  0.00    +0.030 A 
ATOM     23  C   UNL     1       7.476   2.583   9.062  0.00  0.00    +0.089 A 
ATOM     24  N   UNL     1       7.106   1.386   9.649  0.00  0.00    -0.226 NA
ENDBRANCH  14  15
BRANCH   8   7
ATOM      1  C   UNL     1       6.106  -6.805  13.841  0.00  0.00    +0.049 A 
ATOM      2  C   UNL     1       5.080  -6.807  14.772  0.00  0.00    +0.117 A 
ATOM      5  C   UNL     1       4.165  -5.767  14.795  0.00  0.00    +0.046 A 
ATOM      6  C   UNL     1       4.284  -4.726  13.891  0.00  0.00    +0.012 A 
ATOM      7  C   UNL     1       5.315  -4.704  12.950  0.00  0.00    -0.014 A 
ATOM     28  C   UNL     1       6.236  -5.763  12.925  0.00  0.00    -0.036 A 
BRANCH   2   3
ATOM      3  O   UNL     1       4.976  -7.833  15.666  0.00  0.00    -0.507 OA
ATOM      4  H   UNL     1       4.852  -8.738  15.148  0.00  0.00    +0.292 HD
ENDBRANCH   2   3
BRANCH  28  29
ATOM     29  C   UNL     1       7.367  -5.812  11.921  0.00  0.00    +0.032 C 
ATOM     30  C   UNL     1       6.949  -6.241  10.534  0.00  0.00    +0.009 C 
ENDBRANCH  28  29
ENDBRANCH   8   7
TORSDOF 4
