REMARK  Name = 2x8e_ligand
REMARK  2 active torsions:
REMARK  status: ('A' for Active; 'I' for Inactive)
REMARK    1  A    between atoms: C14_8  and  C16_9
REMARK    2  A    between atoms: C2_13  and  C1_16
REMARK                            x       y       z     vdW  Elec       q    Type
REMARK                         _______ _______ _______ _____ _____    ______ ____
ROOT
ATOM      1  C   UNL     1       1.548  -5.181  18.641  0.00  0.00    +0.091 A 
ATOM      2  C   UNL     1       1.598  -4.061  19.448  0.00  0.00    +0.055 A 
ATOM      9  C   UNL     1       2.785  -3.364  19.533  0.00  0.00    +0.155 A 
ATOM     10  C   UNL     1       3.889  -3.777  18.826  0.00  0.00    +0.115 A 
ATOM     11  N   UNL     1       5.094  -3.073  18.910  0.00  0.00    -0.203 N 
ATOM     12  C   UNL     1       5.497  -1.789  19.667  0.00  0.00    +0.313 A 
ATOM     13  O   UNL     1       4.727  -1.132  20.351  0.00  0.00    -0.353 OA
ATOM     14  N   UNL     1       6.805  -1.644  19.340  0.00  0.00    -0.161 N 
ATOM     15  H   UNL     1       7.420  -0.900  19.671  0.00  0.00    +0.221 HD
ATOM     16  N   UNL     1       7.166  -2.653  18.497  0.00  0.00    -0.182 N 
ATOM     17  H   UNL     1       8.093  -2.773  18.088  0.00  0.00    +0.224 HD
ATOM     18  C   UNL     1       6.152  -3.437  18.294  0.00  0.00    +0.191 A 
ATOM     19  C   UNL     1       6.179  -4.628  17.434  0.00  0.00    +0.122 A 
ATOM     20  C   UNL     1       5.036  -5.307  17.297  0.00  0.00    +0.026 A 
ATOM     21  C   UNL     1       4.964  -6.522  16.452  0.00  0.00    +0.160 C 
ATOM     22  C   UNL     1       3.842  -4.891  18.022  0.00  0.00    +0.068 A 
ATOM     23  C   UNL     1       2.659  -5.592  17.937  0.00  0.00    +0.105 A 
ENDROOT
BRANCH   2   3
ATOM      3  C   UNL     1       0.449  -3.591  20.227  0.00  0.00    +0.027 A 
ATOM      4  C   UNL     1       0.306  -2.254  20.706  0.00  0.00    +0.058 A 
ATOM      5  C   UNL     1      -0.730  -1.875  21.451  0.00  0.00    +0.101 A 
ATOM      6  N   UNL     1      -1.660  -2.650  21.785  0.00  0.00    -0.292 NA
ATOM      7  C   UNL     1      -1.626  -3.960  21.367  0.00  0.00    +0.101 A 
ATOM      8  C   UNL     1      -0.497  -4.467  20.564  0.00  0.00    +0.058 A 
ENDBRANCH   2   3
TORSDOF 1
