REMARK  Name = 2brg_ligand
REMARK  6 active torsions:
REMARK  status: ('A' for Active; 'I' for Inactive)
REMARK    1  A    between atoms: C10_2  and  C11_3
REMARK    2  A    between atoms: N9_17  and  C8_24
REMARK    3  A    between atoms: N9_17  and  CAA_26
REMARK    4  A    between atoms: C1_21  and  C18_22
REMARK    5  A    between atoms: C23_23  and  C8_24
REMARK    6  A    between atoms: C23_23  and  O24_25
REMARK                            x       y       z     vdW  Elec       q    Type
REMARK                         _______ _______ _______ _____ _____    ______ ____
ROOT
ATOM      1  C   UNL     1       5.827  -2.094  19.764  0.00  0.00    +0.155 A 
ATOM      2  N   UNL     1       6.190  -3.115  18.992  0.00  0.00    -0.268 NA
ATOM      3  C   UNL     1       5.304  -4.104  18.695  0.00  0.00    +0.128 A 
ATOM      4  N   UNL     1       5.814  -5.091  17.906  0.00  0.00    -0.288 N 
ATOM      5  C   UNL     1       4.933  -6.048  17.217  0.00  0.00    +0.170 C 
ATOM     10  C   UNL     1       3.975  -4.033  19.216  0.00  0.00    +0.076 A 
ATOM     11  C   UNL     1       2.752  -4.764  19.152  0.00  0.00    +0.022 A 
ATOM     18  C   UNL     1       1.796  -4.085  19.924  0.00  0.00    +0.144 A 
ATOM     19  O   UNL     1       2.371  -2.963  20.459  0.00  0.00    -0.228 OA
ATOM     26  C   UNL     1       3.672  -2.912  20.034  0.00  0.00    +0.201 A 
ATOM     27  N   UNL     1       4.593  -1.988  20.290  0.00  0.00    -0.262 NA
ENDROOT
BRANCH  11  12
ATOM     12  C   UNL     1       2.423  -5.992  18.548  0.00  0.00    -0.031 A 
ATOM     13  C   UNL     1       3.035  -7.179  18.984  0.00  0.00    -0.003 A 
ATOM     14  C   UNL     1       2.670  -8.408  18.423  0.00  0.00    -0.005 A 
ATOM     15  C   UNL     1       1.666  -8.481  17.441  0.00  0.00    -0.008 A 
ATOM     16  C   UNL     1       1.045  -7.307  17.023  0.00  0.00    -0.005 A 
ATOM     17  C   UNL     1       1.410  -6.077  17.575  0.00  0.00    -0.003 A 
ENDBRANCH  11  12
BRANCH  18  20
ATOM     20  C   UNL     1       0.453  -4.435  20.224  0.00  0.00    +0.019 A 
ATOM     21  C   UNL     1      -0.447  -3.432  20.604  0.00  0.00    +0.011 A 
ATOM     22  C   UNL     1      -1.755  -3.789  20.937  0.00  0.00    +0.000 A 
ATOM     23  C   UNL     1      -2.205  -5.109  20.909  0.00  0.00    -0.001 A 
ATOM     24  C   UNL     1      -1.320  -6.115  20.543  0.00  0.00    +0.000 A 
ATOM     25  C   UNL     1       0.001  -5.776  20.225  0.00  0.00    +0.011 A 
ENDBRANCH  18  20
BRANCH   4   6
ATOM      6  C   UNL     1       7.306  -5.148  17.805  0.00  0.00    +0.166 C 
BRANCH   6   7
ATOM      7  C   UNL     1       7.811  -4.213  16.661  0.00  0.00    +0.181 C 
BRANCH   7   8
ATOM      8  O   UNL     1       8.231  -2.930  17.155  0.00  0.00    -0.393 OA
ATOM      9  H   UNL     1       7.500  -2.503  17.585  0.00  0.00    +0.209 HD
ENDBRANCH   7   8
ENDBRANCH   6   7
ENDBRANCH   4   6
TORSDOF 5
