REMARK  Name = 5FBV
REMARK  14 active torsions:
REMARK  status: ('A' for Active; 'I' for Inactive)
REMARK    1  A    between atoms: C_1  and  C_2
REMARK    2  A    between atoms: C_5  and  O_12
REMARK    3  A    between atoms: C_6  and  S_8
REMARK    4  A    between atoms: S_8  and  N_11
REMARK    5  A    between atoms: N_11  and  C_31
REMARK    6  A    between atoms: O_12  and  C_13
REMARK    7  A    between atoms: C_14  and  C_15
REMARK    8  A    between atoms: C_22  and  N_24
REMARK    9  A    between atoms: N_24  and  C_25
REMARK   10  A    between atoms: C_25  and  C_26
REMARK   11  A    between atoms: C_26  and  N_27
REMARK   12  A    between atoms: C_28  and  C_29
REMARK   13  A    between atoms: C_31  and  C_32
REMARK   14  A    between atoms: C_32  and  O_33
REMARK                            x       y       z     vdW  Elec       q    Type
REMARK                         _______ _______ _______ _____ _____    ______ ____
ROOT
ATOM      1  C   UNL     1      46.284  64.745 129.475  0.00  0.00    +0.096 A 
ATOM      2  N   UNL     1      46.683  64.683 130.737  0.00  0.00    -0.209 N 
ATOM      3  N   UNL     1      45.872  64.403 131.836  0.00  0.00    -0.153 NA
ATOM      4  C   UNL     1      46.359  64.345 133.098  0.00  0.00    +0.152 A 
ATOM      5 CL   UNL     1      45.190  63.960 134.448  0.00  0.00    -0.060 Cl
ATOM      6  C   UNL     1      47.737  64.587 133.292  0.00  0.00    +0.068 A 
ATOM      7  C   UNL     1      48.609  64.886 132.230  0.00  0.00    +0.075 A 
ATOM     17  C   UNL     1      48.004  64.924 130.850  0.00  0.00    +0.176 A 
ATOM     18  N   UNL     1      48.511  65.159 129.596  0.00  0.00    -0.229 NA
ATOM     19  C   UNL     1      47.511  65.064 128.682  0.00  0.00    +0.067 A 
ATOM     20  C   UNL     1      47.668  65.258 127.202  0.00  0.00    +0.068 C 
ENDROOT
BRANCH   1  21
ATOM     21  C   UNL     1      44.828  64.476 129.195  0.00  0.00    +0.004 A 
ATOM     22  C   UNL     1      44.001  63.583 129.931  0.00  0.00    +0.042 A 
ATOM     23  C   UNL     1      42.639  63.368 129.611  0.00  0.00    +0.147 A 
ATOM     33  C   UNL     1      42.123  64.048 128.497  0.00  0.00    +0.146 A 
ATOM     36  C   UNL     1      42.957  64.909 127.779  0.00  0.00    +0.048 A 
ATOM     37  C   UNL     1      44.284  65.130 128.112  0.00  0.00    +0.014 A 
BRANCH  23  24
ATOM     24  S   UNL     1      41.677  62.383 130.473  0.00  0.00    +0.062 S 
ATOM     31  O   UNL     1      40.961  61.522 129.577  0.00  0.00    -0.153 OA
ATOM     32  O   UNL     1      42.441  61.554 131.359  0.00  0.00    -0.153 OA
BRANCH  24  25
ATOM     25  N   UNL     1      40.628  63.199 131.415  0.00  0.00    -0.188 NA
ATOM     26  H   UNL     1      39.946  62.514 131.874  0.00  0.00    +0.148 HD
BRANCH  25  27
ATOM     27  C   UNL     1      41.390  63.908 132.451  0.00  0.00    +0.133 C 
BRANCH  27  28
ATOM     28  C   UNL     1      40.455  64.471 133.514  0.00  0.00    +0.172 C 
BRANCH  28  29
ATOM     29  O   UNL     1      41.217  64.878 134.663  0.00  0.00    -0.394 OA
ATOM     30  H   UNL     1      41.730  64.050 135.054  0.00  0.00    +0.209 HD
ENDBRANCH  28  29
ENDBRANCH  27  28
ENDBRANCH  25  27
ENDBRANCH  24  25
ENDBRANCH  23  24
BRANCH  33  34
ATOM     34  O   UNL     1      40.812  63.909 128.060  0.00  0.00    -0.493 OA
ATOM     35  C   UNL     1      39.698  64.533 128.708  0.00  0.00    +0.277 C 
ENDBRANCH  33  34
ENDBRANCH   1  21
BRANCH   7   8
ATOM      8  N   UNL     1      49.943  65.099 132.458  0.00  0.00    -0.339 N 
ATOM      9  H   UNL     1      50.365  66.074 132.328  0.00  0.00    +0.146 HD
BRANCH   8  10
ATOM     10  C   UNL     1      50.786  63.976 132.882  0.00  0.00    +0.120 C 
BRANCH  10  11
ATOM     11  C   UNL     1      52.278  63.988 132.493  0.00  0.00    +0.123 C 
BRANCH  11  12
ATOM     12  N   UNL     1      53.206  63.433 133.507  0.00  0.00    -0.314 N 
ATOM     13  H   UNL     1      53.166  62.372 133.641  0.00  0.00    +0.149 HD
ATOM     14  C   UNL     1      54.104  64.096 134.292  0.00  0.00    +0.210 C 
ATOM     15  O   UNL     1      55.169  63.575 134.646  0.00  0.00    -0.276 OA
ATOM     16  C   UNL     1      53.757  65.498 134.742  0.00  0.00    +0.109 C 
ENDBRANCH  11  12
ENDBRANCH  10  11
ENDBRANCH   8  10
ENDBRANCH   7   8
TORSDOF 11
