REMARK  Name = 1P61
REMARK  4 active torsions:
REMARK  status: ('A' for Active; 'I' for Inactive)
REMARK    1  A    between atoms: N1_1  and  C1*_9
REMARK    2  A    between atoms: C3*_11  and  O3*_14
REMARK    3  A    between atoms: C4*_12  and  C5*_15
REMARK    4  A    between atoms: C5*_15  and  O5*_16
REMARK                            x       y       z     vdW  Elec       q    Type
REMARK                         _______ _______ _______ _____ _____    ______ ____
ROOT
ATOM      1  N1    C A   1      67.179  33.834  19.099  0.00  0.00    -0.273 N 
ATOM     12  C6    C A   1      66.417  34.878  19.090  0.00  0.00    +0.096 C 
ATOM     13  C5    C A   1      65.217  34.854  18.639  0.00  0.00    +0.061 C 
ATOM     14  C4    C A   1      64.741  33.747  18.210  0.00  0.00    +0.123 C 
ATOM     15  N4    C A   1      63.528  33.640  17.734  0.00  0.00    -0.343 N 
ATOM     16  H41   C A   1      62.876  34.488  17.736  0.00  0.00    +0.144 HD
ATOM     17  H42   C A   1      63.188  32.704  17.342  0.00  0.00    +0.144 HD
ATOM     18  N3    C A   1      65.465  32.626  18.156  0.00  0.00    -0.178 NA
ATOM     19  C2    C A   1      66.701  32.676  18.636  0.00  0.00    +0.352 C 
ATOM     20  O2    C A   1      67.373  31.566  18.592  0.00  0.00    -0.244 OA
ENDROOT
BRANCH   1   2
ATOM      2  C1*   C A   1      68.538  33.891  19.672  0.00  0.00    +0.226 C 
ATOM      3  O4*   C A   1      68.405  34.542  20.950  0.00  0.00    -0.348 OA
ATOM      4  C4*   C A   1      69.551  35.364  21.248  0.00  0.00    +0.175 C 
ATOM      8  C3*   C A   1      70.502  35.159  20.058  0.00  0.00    +0.150 C 
ATOM     11  C2*   C A   1      69.604  34.676  18.939  0.00  0.00    +0.088 C 
BRANCH   8   9
ATOM      9  O3*   C A   1      71.406  34.090  20.430  0.00  0.00    -0.389 OA
ATOM     10  H3*   C A   1      70.852  33.259  20.754  0.00  0.00    +0.210 HD
ENDBRANCH   8   9
BRANCH   4   5
ATOM      5  C5*   C A   1      69.121  36.802  21.442  0.00  0.00    +0.190 C 
BRANCH   5   6
ATOM      6  O5*   C A   1      68.778  37.454  20.189  0.00  0.00    -0.392 OA
ATOM      7  H5*   C A   1      69.612  37.450  19.552  0.00  0.00    +0.209 HD
ENDBRANCH   5   6
ENDBRANCH   4   5
ENDBRANCH   1   2
TORSDOF 4
