REMARK  Name = 8Q9
REMARK  10 active torsions:
REMARK  status: ('A' for Active; 'I' for Inactive)
REMARK    1  A    between atoms: NAW_6  and  CAV_7
REMARK    2  A    between atoms: CAV_7  and  CAU_8
REMARK    3  A    between atoms: CAU_8  and  NAT_9
REMARK    4  A    between atoms: CAR_10  and  CAQ_12
REMARK    5  A    between atoms: CAQ_12  and  OAL_13
REMARK    6  A    between atoms: OAL_13  and  CAB_14
REMARK    7  A    between atoms: CAA_23  and  NAK_24
REMARK    8  A    between atoms: NAK_24  and  SAM_25
REMARK    9  A    between atoms: SAM_25  and  CAP_28
REMARK   10  A    between atoms: CBC_34  and  OBH_35
REMARK                            x       y       z     vdW  Elec       q    Type
REMARK                         _______ _______ _______ _____ _____    ______ ____
ROOT
ATOM      9  C   UNL     1     -12.805   8.542  -2.179  0.00  0.00    +0.159 A 
ATOM     10  C   UNL     1     -11.607   8.509  -1.449  0.00  0.00    +0.125 A 
ATOM     11  C   UNL     1     -11.449   7.562  -0.426  0.00  0.00    +0.026 A 
ATOM     12  C   UNL     1     -12.439   6.682  -0.141  0.00  0.00    +0.055 A 
ATOM     13  C   UNL     1     -12.513   5.700   0.776  0.00  0.00    +0.101 A 
ATOM     14  C   UNL     1     -11.419   5.325   1.765  0.00  0.00    +0.056 C 
ATOM     15  N   UNL     1     -13.661   5.061   0.714  0.00  0.00    -0.081 NA
ATOM     16  O   UNL     1     -14.426   5.750  -0.373  0.00  0.00    -0.354 OA
ATOM     17  C   UNL     1     -13.608   6.718  -0.843  0.00  0.00    +0.180 A 
ATOM     30  C   UNL     1     -13.807   7.602  -1.852  0.00  0.00    +0.078 A 
ENDROOT
BRANCH   9   8
ATOM      8  O   UNL     1     -12.892   9.527  -3.163  0.00  0.00    -0.464 OA
BRANCH   8   7
ATOM      7  C   UNL     1     -14.151   9.576  -3.904  0.00  0.00    +0.291 C 
BRANCH   7   6
ATOM      5  N   UNL     1     -13.380  11.813  -4.505  0.00  0.00    -0.201 NA
ATOM      6  C   UNL     1     -14.180  10.777  -4.819  0.00  0.00    +0.286 C 
ATOM     31  O   UNL     1     -14.992  10.795  -5.753  0.00  0.00    -0.269 OA
BRANCH   5   4
ATOM      4  C   UNL     1     -13.308  13.074  -5.280  0.00  0.00    +0.133 C 
BRANCH   4   3
ATOM      3  C   UNL     1     -14.348  13.985  -4.684  0.00  0.00    +0.096 C 
BRANCH   3   2
ATOM      1  C   UNL     1     -15.573  15.956  -5.289  0.00  0.00    +0.105 C 
ATOM      2  N   UNL     1     -14.280  15.250  -5.431  0.00  0.00    -0.267 NA
ATOM     32  C   UNL     1     -13.207  16.139  -4.919  0.00  0.00    +0.105 C 
ATOM     33  C   UNL     1     -13.276  17.528  -5.584  0.00  0.00    +0.159 C 
ATOM     34  O   UNL     1     -14.294  17.511  -6.630  0.00  0.00    -0.351 OA
ATOM     35  C   UNL     1     -15.653  17.232  -6.125  0.00  0.00    +0.159 C 
ENDBRANCH   3   2
ENDBRANCH   4   3
ENDBRANCH   5   4
ENDBRANCH   7   6
ENDBRANCH   8   7
ENDBRANCH   9   8
BRANCH  10  18
ATOM     18  N   UNL     1     -10.710   9.480  -1.768  0.00  0.00    -0.093 NA
BRANCH  18  19
ATOM     19  S   UNL     1      -9.131   9.110  -2.285  0.00  0.00    +0.096 S 
ATOM     20  O   UNL     1      -8.510   8.143  -1.336  0.00  0.00    -0.148 OA
ATOM     21  O   UNL     1      -8.367  10.359  -2.519  0.00  0.00    -0.148 OA
BRANCH  19  22
ATOM     22  C   UNL     1      -9.308   8.255  -3.828  0.00  0.00    +0.161 A 
ATOM     23  C   UNL     1      -8.891   6.931  -3.929  0.00  0.00    +0.023 A 
ATOM     24  C   UNL     1      -9.015   6.243  -5.109  0.00  0.00    +0.002 A 
ATOM     25  C   UNL     1      -9.536   6.877  -6.243  0.00  0.00    +0.003 A 
ATOM     26  C   UNL     1      -9.949   8.198  -6.175  0.00  0.00    +0.038 A 
ATOM     27  C   UNL     1      -9.833   8.905  -4.950  0.00  0.00    +0.158 A 
BRANCH  27  28
ATOM     28  O   UNL     1     -10.188  10.216  -4.796  0.00  0.00    -0.470 OA
ATOM     29  C   UNL     1     -10.568  10.982  -5.949  0.00  0.00    +0.253 C 
ENDBRANCH  27  28
ENDBRANCH  19  22
ENDBRANCH  18  19
ENDBRANCH  10  18
TORSDOF 10
