REMARK  Name = 2b7a_ligand
REMARK  4 active torsions:
REMARK  status: ('A' for Active; 'I' for Inactive)
REMARK    1  A    between atoms: C2_18  and  C14_20
REMARK    2  A    between atoms: C14_20  and  C17_21
REMARK    3  A    between atoms: C14_20  and  C16_22
REMARK    4  A    between atoms: C14_20  and  C15_23
REMARK                            x       y       z     vdW  Elec       q    Type
REMARK                         _______ _______ _______ _____ _____    ______ ____
ROOT
ATOM      1  O   UNL     1     117.708  67.477  10.894  0.00  0.00    -0.407 OA
ATOM      2  C   UNL     1     117.277  66.878   9.880  0.00  0.00    +0.215 A 
ATOM      3  C   UNL     1     115.905  66.289   9.835  0.00  0.00    +0.046 A 
ATOM      4  C   UNL     1     114.925  66.379  10.970  0.00  0.00    -0.013 A 
ATOM      5  C   UNL     1     113.577  65.764  10.808  0.00  0.00    +0.027 A 
ATOM      6  C   UNL     1     113.307  65.138   9.595  0.00  0.00    +0.128 A 
ATOM      7  N   UNL     1     112.172  64.512   9.210  0.00  0.00    -0.242 N 
ATOM      8  H   UNL     1     111.298  64.387   9.740  0.00  0.00    +0.241 HD
ATOM      9  C   UNL     1     112.466  64.089   7.958  0.00  0.00    +0.100 A 
ATOM     14  N   UNL     1     113.704  64.415   7.522  0.00  0.00    -0.254 NA
ATOM     15  C   UNL     1     114.242  65.075   8.571  0.00  0.00    +0.098 A 
ATOM     16  C   UNL     1     112.710  65.818  11.765  0.00  0.00    +0.017 A 
ATOM     17  C   UNL     1     112.971  66.403  12.892  0.00  0.00    +0.033 A 
ATOM     18  C   UNL     1     114.205  67.016  13.146  0.00  0.00    +0.134 A 
ATOM     19  F   UNL     1     114.458  67.672  14.446  0.00  0.00    -0.179 F 
ATOM     20  C   UNL     1     115.203  67.008  12.179  0.00  0.00    +0.033 A 
ATOM     21  C   UNL     1     115.518  65.633   8.661  0.00  0.00    -0.005 A 
ATOM     22  C   UNL     1     116.416  65.546   7.594  0.00  0.00    +0.004 A 
ATOM     23  C   UNL     1     117.693  66.099   7.686  0.00  0.00    +0.186 A 
ATOM     24  N   UNL     1     118.091  66.743   8.798  0.00  0.00    -0.220 N 
ATOM     25  H   UNL     1     119.011  67.133   8.830  0.00  0.00    +0.257 HD
ENDROOT
BRANCH   9  10
ATOM     10  C   UNL     1     111.481  63.340   7.088  0.00  0.00    -0.021 C 
ATOM     11  C   UNL     1     110.887  64.332   6.096  0.00  0.00    -0.059 C 
ATOM     12  C   UNL     1     112.157  62.218   6.312  0.00  0.00    -0.059 C 
ATOM     13  C   UNL     1     110.351  62.754   7.925  0.00  0.00    -0.059 C 
ENDBRANCH   9  10
TORSDOF 1
