REMARK  Name = 4ZK5
REMARK  4 active torsions:
REMARK  status: ('A' for Active; 'I' for Inactive)
REMARK    1  A    between atoms: C_5  and  C_10
REMARK    2  A    between atoms: C_8  and  C_19
REMARK    3  A    between atoms: N_21  and  C_22
REMARK    4  A    between atoms: C_26  and  C_28
REMARK                            x       y       z     vdW  Elec       q    Type
REMARK                         _______ _______ _______ _____ _____    ______ ____
ROOT
ATOM      6  C   UNL     1     -23.100   6.498 -16.695  0.00  0.00    +0.072 A 
ATOM      7  N   UNL     1     -23.780   6.549 -15.553  0.00  0.00    -0.243 NA
ATOM      8  C   UNL     1     -24.703   5.583 -15.262  0.00  0.00    +0.112 A 
ATOM      9  C   UNL     1     -25.480   5.692 -14.047  0.00  0.00    +0.142 A 
ATOM     10  N   UNL     1     -25.356   6.773 -13.256  0.00  0.00    -0.341 N 
ATOM     11  H   UNL     1     -24.645   7.535 -13.499  0.00  0.00    +0.144 HD
ATOM     12  H   UNL     1     -25.968   6.871 -12.384  0.00  0.00    +0.144 HD
ATOM     13  N   UNL     1     -26.388   4.730 -13.726  0.00  0.00    -0.238 NA
ATOM     14  C   UNL     1     -26.556   3.695 -14.557  0.00  0.00    +0.126 A 
ATOM     15  C   UNL     1     -25.899   3.476 -15.772  0.00  0.00    +0.064 A 
ATOM     29  C   UNL     1     -24.943   4.481 -16.138  0.00  0.00    +0.017 A 
ATOM     30  C   UNL     1     -24.207   4.486 -17.352  0.00  0.00    +0.013 A 
ATOM     31  C   UNL     1     -23.313   5.483 -17.628  0.00  0.00    +0.029 A 
ENDROOT
BRANCH   6   2
ATOM      1  C   UNL     1     -21.710   8.409 -15.886  0.00  0.00    +0.048 A 
ATOM      2  C   UNL     1     -22.138   7.601 -16.941  0.00  0.00    +0.003 A 
ATOM      3  C   UNL     1     -21.532   7.769 -18.187  0.00  0.00    +0.010 A 
ATOM      4  C   UNL     1     -20.521   8.700 -18.368  0.00  0.00    +0.003 A 
ATOM      5  C   UNL     1     -20.092   9.487 -17.311  0.00  0.00    +0.038 A 
ATOM     32  C   UNL     1     -20.706   9.320 -16.099  0.00  0.00    +0.124 A 
ATOM     33  F   UNL     1     -20.308  10.096 -15.052  0.00  0.00    -0.205 F 
ENDBRANCH   6   2
BRANCH  15  16
ATOM     16  C   UNL     1     -26.185   2.260 -16.613  0.00  0.00    +0.247 C 
ATOM     17  N   UNL     1     -27.184   1.477 -16.169  0.00  0.00    -0.305 N 
ATOM     18  H   UNL     1     -27.608   1.688 -15.209  0.00  0.00    +0.149 HD
ATOM     28  O   UNL     1     -25.550   2.009 -17.635  0.00  0.00    -0.270 OA
BRANCH  17  19
ATOM     19  C   UNL     1     -27.719   0.352 -16.934  0.00  0.00    +0.108 C 
ATOM     20  C   UNL     1     -28.916  -0.381 -16.195  0.00  0.00    +0.131 C 
ATOM     21  N   UNL     1     -28.004  -1.526 -15.942  0.00  0.00    -0.298 N 
ATOM     22  C   UNL     1     -27.929  -2.543 -15.055  0.00  0.00    +0.219 C 
ATOM     26  O   UNL     1     -26.860  -3.049 -14.750  0.00  0.00    -0.275 OA
ATOM     27  C   UNL     1     -26.903  -0.972 -16.777  0.00  0.00    +0.131 C 
BRANCH  22  23
ATOM     23  C   UNL     1     -29.241  -3.043 -14.468  0.00  0.00    +0.075 C 
ATOM     24  C   UNL     1     -29.392  -2.870 -12.978  0.00  0.00    +0.013 C 
ATOM     25  C   UNL     1     -29.249  -4.230 -13.538  0.00  0.00    +0.013 C 
ENDBRANCH  22  23
ENDBRANCH  17  19
ENDBRANCH  15  16
TORSDOF 4
