REMARK  Name = 8NZ
REMARK  1 active torsions:
REMARK  status: ('A' for Active; 'I' for Inactive)
REMARK    1  A    between atoms: C2_1  and  C3_2
REMARK                            x       y       z     vdW  Elec       q    Type
REMARK                         _______ _______ _______ _____ _____    ______ ____
ROOT
ATOM      4  C   UNL     1    -186.708  83.132  -2.310  0.00  0.00    +0.100 A 
ATOM      5  C   UNL     1    -185.527  82.638  -2.815  0.00  0.00    +0.105 A 
ATOM      6  N   UNL     1    -185.681  82.314  -4.134  0.00  0.00    -0.244 NA
ATOM      7  C   UNL     1    -186.974  82.583  -4.520  0.00  0.00    +0.082 A 
ATOM      8  C   UNL     1    -187.600  82.435  -5.752  0.00  0.00    +0.020 A 
ATOM      9  C   UNL     1    -188.936  82.792  -5.865  0.00  0.00    +0.008 A 
ATOM     10  C   UNL     1    -189.613  83.280  -4.754  0.00  0.00    +0.035 A 
ATOM     11  C   UNL     1    -188.998  83.440  -3.529  0.00  0.00    +0.009 A 
ATOM     12 BR   UNL     1    -191.461  83.703  -4.900  0.00  0.00    -0.049 Br
ATOM     13  C   UNL     1    -187.659  83.093  -3.399  0.00  0.00    +0.026 A 
ENDROOT
BRANCH   4   1
ATOM      1  C   UNL     1    -186.946  83.651  -0.925  0.00  0.00    +0.389 C 
ATOM      2  O   UNL     1    -185.898  83.477  -0.125  0.00  0.00    -0.240 OA
ATOM      3  O   UNL     1    -187.965  84.165  -0.548  0.00  0.00    -0.240 OA
ENDBRANCH   4   1
TORSDOF 1
