REMARK  Name = 3rpr_ligand
REMARK  6 active torsions:
REMARK  status: ('A' for Active; 'I' for Inactive)
REMARK    1  A    between atoms: O1_4  and  C8_16
REMARK    2  A    between atoms: C2_6  and  C7_15
REMARK    3  A    between atoms: N2_8  and  C12_20
REMARK    4  A    between atoms: N3_11  and  C11_19
REMARK    5  A    between atoms: C4_12  and  C8_16
REMARK    6  A    between atoms: C8_16  and  C9_17
REMARK                            x       y       z     vdW  Elec       q    Type
REMARK                         _______ _______ _______ _____ _____    ______ ____
ROOT
ATOM      6  C   UNL     1      92.966  80.204 -50.040  0.00  0.00    +0.059 A 
ATOM      7  C   UNL     1      92.716  80.905 -51.226  0.00  0.00    +0.054 A 
ATOM     11  N   UNL     1      91.731  81.829 -51.110  0.00  0.00    -0.302 NA
ATOM     12  C   UNL     1      91.221  81.854 -49.847  0.00  0.00    +0.188 A 
ATOM     13  N   UNL     1      90.225  82.694 -49.523  0.00  0.00    -0.242 N 
ATOM     14  H   UNL     1      90.022  83.429 -50.216  0.00  0.00    +0.219 HD
ATOM     21  S   UNL     1      91.955  80.739 -48.784  0.00  0.00    +0.002 S 
ENDROOT
BRANCH  13  15
ATOM     15  C   UNL     1      89.416  82.710 -48.362  0.00  0.00    +0.066 A 
ATOM     16  C   UNL     1      88.848  83.987 -47.967  0.00  0.00    +0.015 A 
ATOM     17  C   UNL     1      88.012  84.110 -46.797  0.00  0.00    -0.013 A 
ATOM     18  C   UNL     1      87.723  82.958 -45.988  0.00  0.00    -0.022 A 
ATOM     19  C   UNL     1      88.260  81.670 -46.338  0.00  0.00    -0.013 A 
ATOM     20  C   UNL     1      89.097  81.538 -47.509  0.00  0.00    +0.015 A 
ENDBRANCH  13  15
BRANCH   7   8
ATOM      8  N   UNL     1      93.368  80.696 -52.405  0.00  0.00    -0.352 N 
ATOM      9  H   UNL     1      93.116  81.247 -53.238  0.00  0.00    +0.162 HD
ATOM     10  H   UNL     1      94.113  79.987 -52.463  0.00  0.00    +0.162 HD
ENDBRANCH   7   8
BRANCH   6   5
ATOM      5  C   UNL     1      93.982  79.087 -49.826  0.00  0.00    +0.207 C 
BRANCH   5   4
ATOM      1  C   UNL     1      94.683  76.997 -46.104  0.00  0.00    +0.042 A 
ATOM      2  C   UNL     1      94.615  76.268 -47.342  0.00  0.00    +0.030 A 
ATOM      3  C   UNL     1      94.383  76.958 -48.582  0.00  0.00    +0.052 A 
ATOM      4  C   UNL     1      94.210  78.418 -48.616  0.00  0.00    +0.020 A 
ATOM     24  C   UNL     1      94.287  79.134 -47.336  0.00  0.00    +0.051 A 
ATOM     25  C   UNL     1      94.521  78.451 -46.064  0.00  0.00    +0.041 A 
BRANCH  25  26
ATOM     26  C   UNL     1      94.597  79.146 -44.812  0.00  0.00    +0.375 C 
ATOM     27  F   UNL     1      93.690  78.619 -43.901  0.00  0.00    -0.220 F 
ATOM     28  F   UNL     1      95.861  79.040 -44.276  0.00  0.00    -0.220 F 
ATOM     29  F   UNL     1      94.321  80.500 -44.969  0.00  0.00    -0.220 F 
ENDBRANCH  25  26
ENDBRANCH   5   4
BRANCH   5  22
ATOM     22  O   UNL     1      94.653  78.689 -50.924  0.00  0.00    -0.372 OA
ATOM     23  H   UNL     1      94.398  79.230 -51.663  0.00  0.00    +0.215 HD
ENDBRANCH   5  22
ENDBRANCH   6   5
TORSDOF 6
