REMARK  Name = 4W8D
REMARK  2 active torsions:
REMARK  status: ('A' for Active; 'I' for Inactive)
REMARK    1  A    between atoms: C_10  and  N_11
REMARK    2  A    between atoms: C_13  and  C_14
REMARK                            x       y       z     vdW  Elec       q    Type
REMARK                         _______ _______ _______ _____ _____    ______ ____
ROOT
ATOM      1  N   UNL     1      16.814 -37.168  18.068  0.00  0.00    -0.235 NA
ATOM      2  C   UNL     1      17.616 -36.844  16.997  0.00  0.00    +0.122 A 
ATOM      3  C   UNL     1      17.537 -35.460  16.792  0.00  0.00    +0.017 A 
ATOM     10  C   UNL     1      16.633 -34.904  17.757  0.00  0.00    +0.068 A 
ATOM     11  C   UNL     1      16.101 -33.618  18.211  0.00  0.00    +0.135 A 
ATOM     12  N   UNL     1      16.335 -32.401  17.490  0.00  0.00    -0.310 N 
ATOM     13  C   UNL     1      15.876 -32.450  16.042  0.00  0.00    +0.134 C 
ATOM     14  C   UNL     1      16.553 -31.219  15.341  0.00  0.00    +0.178 C 
ATOM     15  O   UNL     1      16.201 -30.031  16.018  0.00  0.00    -0.377 OA
ATOM     16  C   UNL     1      16.514 -29.953  17.413  0.00  0.00    +0.178 C 
ATOM     17  C   UNL     1      15.855 -31.126  18.183  0.00  0.00    +0.134 C 
ATOM     18  N   UNL     1      15.307 -33.528  19.308  0.00  0.00    -0.220 NA
ATOM     19  C   UNL     1      14.979 -34.687  19.955  0.00  0.00    +0.225 A 
ATOM     20  N   UNL     1      15.378 -35.933  19.624  0.00  0.00    -0.216 NA
ATOM     21  C   UNL     1      16.203 -36.008  18.543  0.00  0.00    +0.165 A 
ENDROOT
BRANCH   3   4
ATOM      4  C   UNL     1      18.377 -34.801  15.849  0.00  0.00    +0.022 A 
ATOM      5  C   UNL     1      19.079 -33.608  16.111  0.00  0.00    +0.116 A 
ATOM      6  N   UNL     1      19.687 -33.276  14.933  0.00  0.00    -0.274 N 
ATOM      7  C   UNL     1      20.495 -32.057  14.702  0.00  0.00    +0.172 C 
ATOM      8  N   UNL     1      19.442 -34.182  13.968  0.00  0.00    -0.179 NA
ATOM      9  C   UNL     1      18.641 -35.126  14.508  0.00  0.00    +0.143 A 
ENDBRANCH   3   4
TORSDOF 1
