REMARK  Name = 2qu6_ligand
REMARK  9 active torsions:
REMARK  status: ('A' for Active; 'I' for Inactive)
REMARK    1  A    between atoms: C25_3  and  N2_20
REMARK    2  A    between atoms: C7_5  and  O3_29
REMARK    3  A    between atoms: C11_7  and  C20_25
REMARK    4  A    between atoms: C13_10  and  O1_23
REMARK    5  A    between atoms: C18_18  and  O1_23
REMARK    6  A    between atoms: N5_27  and  C22_28
REMARK    7  A    between atoms: O3_29  and  C23_30
REMARK    8  A    between atoms: C23_30  and  C5_35
REMARK    9  A    between atoms: N1_31  and  C26_36
REMARK                            x       y       z     vdW  Elec       q    Type
REMARK                         _______ _______ _______ _____ _____    ______ ____
ROOT
ATOM     16  N   UNL     1      36.743  36.914  12.243  0.00  0.00    -0.219 N 
ATOM     17  H   UNL     1      35.793  37.278  12.403  0.00  0.00    +0.224 HD
ATOM     18  C   UNL     1      36.934  35.519  12.555  0.00  0.00    +0.294 A 
ATOM     19  O   UNL     1      35.887  34.634  12.511  0.00  0.00    -0.201 OA
ATOM     20  C   UNL     1      36.447  33.494  12.846  0.00  0.00    +0.130 A 
ATOM     21  C   UNL     1      35.793  32.223  13.115  0.00  0.00    +0.016 A 
ATOM     22  C   UNL     1      36.582  31.119  13.609  0.00  0.00    +0.007 A 
ATOM     23  C   UNL     1      38.014  31.354  13.771  0.00  0.00    +0.102 A 
ATOM     36  C   UNL     1      38.695  32.626  13.522  0.00  0.00    +0.012 A 
ATOM     37  C   UNL     1      37.861  33.687  13.077  0.00  0.00    +0.021 A 
ATOM     38  N   UNL     1      38.138  34.984  12.902  0.00  0.00    -0.295 NA
ENDROOT
BRANCH  16  15
ATOM      1  C   UNL     1      39.645  38.489  10.442  0.00  0.00    -0.009 A 
ATOM      2  C   UNL     1      39.251  39.826  10.771  0.00  0.00    +0.056 A 
ATOM      3 CL   UNL     1      40.245  41.085  10.165  0.00  0.00    -0.089 Cl
ATOM      4  C   UNL     1      38.088  40.183  11.564  0.00  0.00    +0.096 A 
ATOM     14  C   UNL     1      37.252  39.140  12.084  0.00  0.00    +0.036 A 
ATOM     15  C   UNL     1      37.638  37.810  11.769  0.00  0.00    +0.061 A 
ATOM     39  C   UNL     1      38.797  37.469  10.955  0.00  0.00    -0.003 A 
BRANCH   4   5
ATOM      5  O   UNL     1      37.766  41.507  11.839  0.00  0.00    -0.314 OA
BRANCH   5   6
ATOM      6  C   UNL     1      36.976  41.719  13.024  0.00  0.00    +0.247 C 
BRANCH   6   7
ATOM      7  C   UNL     1      36.580  43.190  13.097  0.00  0.00    +0.095 C 
ATOM      8  C   UNL     1      36.828  43.845  11.742  0.00  0.00    +0.062 C 
ATOM      9  C   UNL     1      38.068  44.703  11.773  0.00  0.00    +0.056 C 
ATOM     10  C   UNL     1      38.476  44.873  13.225  0.00  0.00    +0.131 C 
ATOM     11  N   UNL     1      37.560  43.947  13.955  0.00  0.00    +0.237 N 
ATOM     12  H   UNL     1      38.203  43.203  14.178  0.00  0.00    +0.203 HD
ATOM     13  C   UNL     1      37.150  44.334  15.324  0.00  0.00    +0.191 C 
ENDBRANCH   6   7
ENDBRANCH   5   6
ENDBRANCH   4   5
ENDBRANCH  16  15
BRANCH  23  24
ATOM     24  O   UNL     1      38.707  30.242  14.175  0.00  0.00    -0.255 OA
BRANCH  24  25
ATOM     25  C   UNL     1      39.441  29.471  13.313  0.00  0.00    +0.139 A 
ATOM     26  C   UNL     1      39.436  29.568  11.862  0.00  0.00    +0.070 A 
ATOM     27  C   UNL     1      40.250  28.663  11.130  0.00  0.00    +0.086 A 
ATOM     28  N   UNL     1      40.948  27.780  11.882  0.00  0.00    -0.292 NA
ATOM     29  C   UNL     1      40.957  27.653  13.256  0.00  0.00    +0.112 A 
ATOM     35  C   UNL     1      40.195  28.527  14.056  0.00  0.00    +0.088 A 
BRANCH  29  30
ATOM     30  C   UNL     1      41.687  26.581  13.927  0.00  0.00    +0.221 C 
ATOM     31  N   UNL     1      42.411  25.757  13.144  0.00  0.00    -0.287 N 
ATOM     32  H   UNL     1      42.450  25.846  12.149  0.00  0.00    +0.184 HD
ATOM     33  C   UNL     1      43.140  24.714  13.886  0.00  0.00    +0.164 C 
ATOM     34  O   UNL     1      41.655  26.429  15.143  0.00  0.00    -0.379 OA
ENDBRANCH  29  30
ENDBRANCH  24  25
ENDBRANCH  23  24
TORSDOF 7
