REMARK  Name = 4p90_ligand
REMARK  6 active torsions:
REMARK  status: ('A' for Active; 'I' for Inactive)
REMARK    1  A    between atoms: C3_3  and  C7_4
REMARK    2  A    between atoms: C7_4  and  C8_5
REMARK    3  A    between atoms: C13_10  and  C15_12
REMARK    4  A    between atoms: C5_20  and  C6_21
REMARK    5  A    between atoms: C6_21  and  O_22
REMARK    6  A    between atoms: N3_28  and  C18_30
REMARK                            x       y       z     vdW  Elec       q    Type
REMARK                         _______ _______ _______ _____ _____    ______ ____
ROOT
ATOM     11  C   UNL     1       4.708 -32.982  17.699  0.00  0.00    +0.042 A 
ATOM     12  C   UNL     1       5.737 -33.105  16.691  0.00  0.00    +0.013 A 
ATOM     13  C   UNL     1       7.003 -32.565  16.463  0.00  0.00    +0.007 A 
ATOM     14  C   UNL     1       7.678 -32.865  15.279  0.00  0.00    -0.024 A 
ATOM     28  C   UNL     1       7.042 -33.683  14.353  0.00  0.00    +0.068 A 
ATOM     29  N   UNL     1       5.807 -34.170  14.504  0.00  0.00    -0.288 NA
ATOM     30  C   UNL     1       5.198 -33.894  15.661  0.00  0.00    +0.138 A 
ATOM     31  N   UNL     1       3.945 -34.291  16.032  0.00  0.00    -0.257 N 
ATOM     32  H   UNL     1       3.327 -34.910  15.488  0.00  0.00    +0.235 HD
ATOM     33  C   UNL     1       3.644 -33.731  17.246  0.00  0.00    +0.163 A 
ENDROOT
BRANCH  14  15
ATOM     15  C   UNL     1       9.040 -32.316  15.017  0.00  0.00    +0.000 A 
ATOM     16  C   UNL     1       9.742 -31.477  15.842  0.00  0.00    +0.166 A 
ATOM     17  N   UNL     1      10.940 -31.198  15.306  0.00  0.00    -0.200 N 
ATOM     26  N   UNL     1      11.080 -31.840  14.117  0.00  0.00    -0.214 NA
ATOM     27  C   UNL     1       9.946 -32.490  13.920  0.00  0.00    +0.072 A 
BRANCH  17  18
ATOM     18  C   UNL     1      12.078 -30.408  15.896  0.00  0.00    +0.161 C 
ATOM     19  C   UNL     1      13.409 -30.689  15.198  0.00  0.00    +0.090 C 
ATOM     20  C   UNL     1      14.500 -30.121  16.092  0.00  0.00    +0.132 C 
ATOM     21  N   UNL     1      14.260 -28.674  16.353  0.00  0.00    +0.227 N 
ATOM     22  H   UNL     1      14.298 -28.176  15.477  0.00  0.00    +0.201 HD
ATOM     23  H   UNL     1      14.983 -28.331  16.966  0.00  0.00    +0.201 HD
ATOM     24  C   UNL     1      12.940 -28.428  16.986  0.00  0.00    +0.132 C 
ATOM     25  C   UNL     1      11.822 -28.916  16.086  0.00  0.00    +0.090 C 
ENDBRANCH  17  18
ENDBRANCH  14  15
BRANCH  11   9
ATOM      9  C   UNL     1       4.794 -32.249  18.955  0.00  0.00    +0.134 C 
ATOM     10  O   UNL     1       5.800 -31.655  19.341  0.00  0.00    -0.387 OA
BRANCH   9   8
ATOM      1  C   UNL     1       2.034 -33.379  21.336  0.00  0.00    +0.013 A 
ATOM      2  C   UNL     1       1.320 -32.204  21.483  0.00  0.00    +0.006 A 
ATOM      3  C   UNL     1       1.716 -31.039  20.834  0.00  0.00    -0.012 A 
ATOM      7  C   UNL     1       2.847 -31.079  20.020  0.00  0.00    +0.020 A 
ATOM      8  C   UNL     1       3.571 -32.264  19.827  0.00  0.00    +0.034 A 
ATOM     34  C   UNL     1       3.152 -33.407  20.516  0.00  0.00    +0.051 A 
ATOM     35 CL   UNL     1       3.992 -34.918  20.321  0.00  0.00    -0.071 Cl
BRANCH   3   4
ATOM      4  C   UNL     1       0.963 -29.750  21.024  0.00  0.00    +0.224 C 
BRANCH   4   5
ATOM      5  O   UNL     1       0.873 -29.343  22.385  0.00  0.00    -0.382 OA
ATOM      6  H   UNL     1       0.389 -28.527  22.439  0.00  0.00    +0.213 HD
ENDBRANCH   4   5
ENDBRANCH   3   4
ENDBRANCH   9   8
ENDBRANCH  11   9
TORSDOF 6
