REMARK  Name = A8QT
REMARK  4 active torsions:
REMARK  status: ('A' for Active; 'I' for Inactive)
REMARK    1  A    between atoms: C6_3  and  C7_4
REMARK    2  A    between atoms: C6_3  and  N3_10
REMARK    3  A    between atoms: N1_7  and  C3_9
REMARK    4  A    between atoms: C3_9  and  C2_12
REMARK                            x       y       z     vdW  Elec       q    Type
REMARK                         _______ _______ _______ _____ _____    ______ ____
ROOT
ATOM      1  C   UNL     1      12.536  -9.023   9.646  0.00  0.00    +0.501 C 
ATOM      2  N   UNL     1      13.474  -9.157  10.611  0.00  0.00    +0.132 NA
ATOM      3  N   UNL     1      11.318  -9.617   9.636  0.00  0.00    -0.039 NA
ATOM      4  C   UNL     1      10.948 -10.412  10.655  0.00  0.00    +0.290 C 
ATOM      5  N   UNL     1       9.737 -10.976  10.664  0.00  0.00    -0.229 NA
ATOM     10  N   UNL     1      12.799  -8.187   8.628  0.00  0.00    -0.089 NA
ENDROOT
BRANCH   5   6
ATOM      6  C   UNL     1       8.651 -10.571   9.785  0.00  0.00    +0.154 C 
BRANCH   6   7
ATOM      7  C   UNL     1       8.409 -11.596   8.705  0.00  0.00    -0.005 C 
ATOM      8  C   UNL     1       8.587 -12.935   8.939  0.00  0.00    -0.028 C 
ATOM      9  C   UNL     1       8.372 -13.842   7.935  0.00  0.00    +0.030 C 
ENDBRANCH   6   7
ENDBRANCH   5   6
BRANCH  10  11
ATOM     11  C   UNL     1      14.121  -7.599   8.415  0.00  0.00    +0.220 C 
BRANCH  11  12
ATOM     12  C   UNL     1      14.346  -7.382   6.921  0.00  0.00    +0.047 C 
ATOM     13  C   UNL     1      14.158  -8.630   6.102  0.00  0.00    +0.004 C 
ENDBRANCH  11  12
ENDBRANCH  10  11
TORSDOF 4
