REMARK  Name = 3R83
REMARK  7 active torsions:
REMARK  status: ('A' for Active; 'I' for Inactive)
REMARK    1  A    between atoms: N_1  and  C_11
REMARK    2  A    between atoms: N_1  and  C_16
REMARK    3  A    between atoms: N_5  and  C_13
REMARK    4  A    between atoms: N_6  and  C_25
REMARK    5  A    between atoms: N_8  and  C_14
REMARK    6  A    between atoms: C_10  and  C_15
REMARK    7  A    between atoms: C_16  and  C_17
REMARK                            x       y       z     vdW  Elec       q    Type
REMARK                         _______ _______ _______ _____ _____    ______ ____
ROOT
ATOM     13  C   UNL     1     -79.409 102.575   7.811  0.00  0.00    +0.042 A 
ATOM     14  C   UNL     1     -79.569 101.284   8.434  0.00  0.00    +0.049 A 
ATOM     15  C   UNL     1     -80.813 100.834   8.987  0.00  0.00    +0.062 A 
ATOM     16  C   UNL     1     -81.970 101.741   8.919  0.00  0.00    +0.148 A 
ATOM     17  C   UNL     1     -81.799 103.016   8.286  0.00  0.00    +0.049 A 
ATOM     30  C   UNL     1     -80.552 103.446   7.731  0.00  0.00    +0.059 A 
ENDROOT
BRANCH  15  21
ATOM     21  N   UNL     1     -80.841  99.613   9.514  0.00  0.00    -0.328 N 
ATOM     22  C   UNL     1     -79.762  99.151  10.452  0.00  0.00    +0.107 C 
ATOM     23  C   UNL     1     -80.190  98.000  11.374  0.00  0.00    +0.037 C 
ATOM     24  C   UNL     1     -80.973  96.928  10.610  0.00  0.00    +0.054 C 
ATOM     25  C   UNL     1     -82.233  97.527   9.991  0.00  0.00    +0.037 C 
ATOM     29  C   UNL     1     -81.863  98.629   8.988  0.00  0.00    +0.107 C 
BRANCH  24  26
ATOM     26  N   UNL     1     -81.359  95.879  11.540  0.00  0.00    -0.327 NA
ATOM     27  H   UNL     1     -81.978  96.293  12.309  0.00  0.00    +0.118 HD
ATOM     28  H   UNL     1     -81.901  95.119  11.017  0.00  0.00    +0.118 HD
ENDBRANCH  24  26
ENDBRANCH  15  21
BRANCH  30  31
ATOM     31  C   UNL     1     -80.488 104.706   7.130  0.00  0.00    +0.243 C 
ATOM     32  O   UNL     1     -79.695 104.948   6.227  0.00  0.00    -0.270 OA
ATOM     33  N   UNL     1     -81.343 105.704   7.534  0.00  0.00    -0.325 N 
ATOM     34  H   UNL     1     -81.294 106.669   7.074  0.00  0.00    +0.145 HD
ATOM     35  H   UNL     1     -82.057 105.516   8.308  0.00  0.00    +0.145 HD
ENDBRANCH  30  31
BRANCH  16  18
ATOM     18  N   UNL     1     -83.149 101.463   9.395  0.00  0.00    +0.058 N 
ATOM     19  O   UNL     1     -84.221 102.044   8.898  0.00  0.00    -0.126 OA
ATOM     20  O   UNL     1     -83.308 100.674  10.423  0.00  0.00    -0.126 OA
ENDBRANCH  16  18
BRANCH  13   1
ATOM      1  N   UNL     1     -78.250 102.963   7.309  0.00  0.00    -0.339 N 
ATOM      2  H   UNL     1     -78.252 103.815   6.661  0.00  0.00    +0.146 HD
BRANCH   1   3
ATOM      3  C   UNL     1     -76.923 102.297   7.579  0.00  0.00    +0.140 C 
BRANCH   3   4
ATOM      4  C   UNL     1     -76.730 101.118   6.644  0.00  0.00    +0.006 A 
ATOM      5  C   UNL     1     -76.842 101.227   5.254  0.00  0.00    +0.121 A 
ATOM      6  N   UNL     1     -76.685 100.169   4.393  0.00  0.00    -0.223 NA
ATOM      7  C   UNL     1     -76.405  98.961   4.965  0.00  0.00    +0.212 A 
ATOM      8  N   UNL     1     -76.259  97.964   4.187  0.00  0.00    -0.328 N 
ATOM      9  H   UNL     1     -76.356  98.092   3.129  0.00  0.00    +0.145 HD
ATOM     10  H   UNL     1     -76.040  96.998   4.591  0.00  0.00    +0.145 HD
ATOM     11  N   UNL     1     -76.270  98.736   6.304  0.00  0.00    -0.223 NA
ATOM     12  C   UNL     1     -76.438  99.831   7.117  0.00  0.00    +0.121 A 
ENDBRANCH   3   4
ENDBRANCH   1   3
ENDBRANCH  13   1
TORSDOF 7
