REMARK  Name = 3hv3_ligand
REMARK  11 active torsions:
REMARK  status: ('A' for Active; 'I' for Inactive)
REMARK    1  A    between atoms: CAA_1  and  CBA_2
REMARK    2  A    between atoms: CBE_7  and  NBK_8
REMARK    3  A    between atoms: CBG_10  and  CBL_11
REMARK    4  A    between atoms: CBL_11  and  CAC_12
REMARK    5  A    between atoms: CBL_11  and  CAD_13
REMARK    6  A    between atoms: CBL_11  and  CAB_14
REMARK    7  A    between atoms: CBH_16  and  NAX_17
REMARK    8  A    between atoms: NAW_20  and  CBC_21
REMARK    9  A    between atoms: CBD_26  and  NAY_27
REMARK   10  A    between atoms: NAY_27  and  CBF_28
REMARK   11  A    between atoms: CBB_31  and  NAE_32
REMARK                            x       y       z     vdW  Elec       q    Type
REMARK                         _______ _______ _______ _____ _____    ______ ____
ROOT
ATOM      9  N   UNL     1      -0.825  -4.285 -14.311  0.00  0.00    -0.180 N 
ATOM     10  H   UNL     1      -1.579  -4.883 -13.972  0.00  0.00    +0.234 HD
ATOM     11  C   UNL     1      -1.073  -3.583 -15.476  0.00  0.00    +0.321 C 
ATOM     12  N   UNL     1      -2.293  -3.675 -16.041  0.00  0.00    -0.220 N 
ATOM     13  H   UNL     1      -2.994  -4.156 -15.478  0.00  0.00    +0.223 HD
ATOM     35  O   UNL     1      -0.232  -2.843 -15.975  0.00  0.00    -0.380 OA
ENDROOT
BRANCH  12  14
ATOM     14  C   UNL     1      -2.729  -3.228 -17.238  0.00  0.00    +0.057 A 
ATOM     15  C   UNL     1      -4.044  -2.875 -17.506  0.00  0.00    -0.002 A 
ATOM     16  C   UNL     1      -4.434  -2.541 -18.835  0.00  0.00    -0.000 A 
ATOM     17  C   UNL     1      -3.537  -2.560 -19.907  0.00  0.00    +0.050 A 
ATOM     33  C   UNL     1      -2.208  -2.941 -19.647  0.00  0.00    -0.000 A 
ATOM     34  C   UNL     1      -1.836  -3.295 -18.323  0.00  0.00    -0.002 A 
BRANCH  17  18
ATOM     18  N   UNL     1      -3.943  -2.240 -21.187  0.00  0.00    -0.271 N 
ATOM     19  H   UNL     1      -4.245  -3.009 -21.785  0.00  0.00    +0.212 HD
BRANCH  18  20
ATOM     20  C   UNL     1      -3.975  -1.010 -21.713  0.00  0.00    +0.081 A 
ATOM     21  C   UNL     1      -3.820   0.136 -20.925  0.00  0.00    +0.035 A 
ATOM     22  C   UNL     1      -3.854   1.413 -21.488  0.00  0.00    +0.062 A 
ATOM     23  N   UNL     1      -4.051   1.562 -22.792  0.00  0.00    -0.327 NA
ATOM     24  C   UNL     1      -4.202   0.484 -23.591  0.00  0.00    +0.023 A 
ATOM     25  C   UNL     1      -4.415   0.695 -24.949  0.00  0.00    +0.010 A 
ATOM     26  C   UNL     1      -4.577  -0.395 -25.799  0.00  0.00    +0.023 A 
ATOM     27  C   UNL     1      -4.556  -1.698 -25.314  0.00  0.00    +0.039 A 
ATOM     31  C   UNL     1      -4.352  -1.932 -23.947  0.00  0.00    +0.017 A 
ATOM     32  C   UNL     1      -4.168  -0.832 -23.088  0.00  0.00    +0.021 A 
BRANCH  27  28
ATOM     28  N   UNL     1      -4.724  -2.726 -26.168  0.00  0.00    -0.337 N 
ATOM     29  H   UNL     1      -4.872  -2.545 -27.161  0.00  0.00    +0.172 HD
ATOM     30  H   UNL     1      -4.703  -3.685 -25.822  0.00  0.00    +0.172 HD
ENDBRANCH  27  28
ENDBRANCH  18  20
ENDBRANCH  17  18
ENDBRANCH  12  14
BRANCH   9   8
ATOM      7  N   UNL     1       0.813  -5.342 -12.893  0.00  0.00    -0.105 N 
ATOM      8  C   UNL     1       0.330  -4.266 -13.556  0.00  0.00    +0.220 A 
ATOM     36  C   UNL     1       1.230  -3.241 -13.360  0.00  0.00    +0.003 A 
ATOM     37  C   UNL     1       2.205  -3.750 -12.571  0.00  0.00    -0.002 A 
ATOM     42  N   UNL     1       1.890  -5.052 -12.307  0.00  0.00    -0.165 NA
BRANCH   7   6
ATOM      1  C   UNL     1      -1.372  -9.263 -14.990  0.00  0.00    +0.085 C 
ATOM      2  C   UNL     1      -0.824  -8.527 -13.797  0.00  0.00    -0.048 A 
ATOM      3  C   UNL     1      -0.928  -9.135 -12.538  0.00  0.00    -0.013 A 
ATOM      4  C   UNL     1      -0.418  -8.473 -11.423  0.00  0.00    -0.011 A 
ATOM      5  C   UNL     1       0.130  -7.187 -11.582  0.00  0.00    +0.028 A 
ATOM      6  C   UNL     1       0.223  -6.562 -12.827  0.00  0.00    +0.122 A 
ATOM     43  C   UNL     1      -0.253  -7.253 -13.961  0.00  0.00    +0.034 A 
ENDBRANCH   7   6
BRANCH  37  38
ATOM     38  C   UNL     1       3.457  -3.003 -12.013  0.00  0.00    -0.045 C 
ATOM     39  C   UNL     1       2.962  -2.073 -10.886  0.00  0.00    -0.045 C 
ATOM     40  C   UNL     1       4.184  -2.134 -13.066  0.00  0.00    -0.045 C 
ATOM     41  C   UNL     1       4.468  -3.975 -11.390  0.00  0.00    -0.045 C 
ENDBRANCH  37  38
ENDBRANCH   9   8
TORSDOF 7
