REMARK  Name = 5HZE
REMARK  7 active torsions:
REMARK  status: ('A' for Active; 'I' for Inactive)
REMARK    1  A    between atoms: C_1  and  C_2
REMARK    2  A    between atoms: C_7  and  O_8
REMARK    3  A    between atoms: C_9  and  O_10
REMARK    4  A    between atoms: C_16  and  N_17
REMARK    5  A    between atoms: N_17  and  C_18
REMARK    6  A    between atoms: C_20  and  O_21
REMARK    7  A    between atoms: C_26  and  C_27
REMARK                            x       y       z     vdW  Elec       q    Type
REMARK                         _______ _______ _______ _____ _____    ______ ____
ROOT
ATOM      1  C   UNL     1     -16.219  32.808  -1.849  0.00  0.00    +0.011 C 
ATOM      2  C   UNL     1     -16.896  31.461  -2.264  0.00  0.00    +0.027 C 
ATOM      3  C   UNL     1     -18.385  31.373  -1.878  0.00  0.00    +0.177 C 
ATOM      4  C   UNL     1     -18.594  31.484  -0.371  0.00  0.00    +0.052 C 
ATOM      5  O   UNL     1     -18.834  30.047  -2.205  0.00  0.00    -0.458 OA
ATOM      6  C   UNL     1     -20.144  29.863  -2.450  0.00  0.00    +0.344 C 
ATOM      7  O   UNL     1     -20.931  30.811  -2.516  0.00  0.00    -0.245 OA
ATOM      8  C   UNL     1     -20.565  28.519  -2.568  0.00  0.00    +0.108 A 
ATOM      9  C   UNL     1     -21.919  28.307  -2.711  0.00  0.00    +0.133 A 
ATOM     12  C   UNL     1     -22.492  27.044  -2.795  0.00  0.00    +0.069 A 
ATOM     13  C   UNL     1     -21.673  25.908  -2.783  0.00  0.00    +0.031 A 
ATOM     17  C   UNL     1     -20.288  26.095  -2.703  0.00  0.00    +0.031 A 
ATOM     18  C   UNL     1     -19.714  27.382  -2.579  0.00  0.00    -0.006 A 
ATOM     19  C   UNL     1     -18.322  27.516  -2.476  0.00  0.00    +0.005 C 
ATOM     20  C   UNL     1     -17.379  26.655  -3.093  0.00  0.00    -0.024 C 
ATOM     21  C   UNL     1     -15.982  26.936  -2.922  0.00  0.00    +0.061 C 
ATOM     22  C   UNL     1     -15.681  27.491  -4.310  0.00  0.00    +0.154 C 
ATOM     25  C   UNL     1     -14.472  28.452  -4.378  0.00  0.00    +0.209 C 
ATOM     28  C   UNL     1     -14.592  29.773  -3.791  0.00  0.00    +0.164 C 
ATOM     29  O   UNL     1     -13.888  30.069  -2.802  0.00  0.00    -0.295 OA
ATOM     30  C   UNL     1     -15.336  30.832  -4.475  0.00  0.00    +0.077 C 
ATOM     31  C   UNL     1     -16.711  31.117  -3.853  0.00  0.00    +0.014 C 
ENDROOT
BRANCH  13  14
ATOM     14  N   UNL     1     -22.129  24.642  -2.887  0.00  0.00    -0.347 N 
ATOM     15  H   UNL     1     -21.437  23.880  -3.179  0.00  0.00    +0.146 HD
ATOM     16  C   UNL     1     -23.527  24.247  -2.621  0.00  0.00    +0.125 C 
ENDBRANCH  13  14
BRANCH   9  10
ATOM     10  O   UNL     1     -22.703  29.419  -2.679  0.00  0.00    -0.506 OA
ATOM     11  H   UNL     1     -23.281  29.465  -3.554  0.00  0.00    +0.292 HD
ENDBRANCH   9  10
BRANCH  22  23
ATOM     23  O   UNL     1     -15.429  26.304  -5.130  0.00  0.00    -0.389 OA
ATOM     24  H   UNL     1     -15.275  26.593  -6.128  0.00  0.00    +0.210 HD
ENDBRANCH  22  23
BRANCH  25  26
ATOM     26  O   UNL     1     -13.367  27.747  -3.814  0.00  0.00    -0.382 OA
ATOM     27  H   UNL     1     -12.481  28.280  -3.996  0.00  0.00    +0.210 HD
ENDBRANCH  25  26
TORSDOF 4
