REMARK  Name = 5JGA
REMARK  5 active torsions:
REMARK  status: ('A' for Active; 'I' for Inactive)
REMARK    1  A    between atoms: C_7  and  C_17
REMARK    2  A    between atoms: C_10  and  C_26
REMARK    3  A    between atoms: C_12  and  C_13
REMARK    4  A    between atoms: N_19  and  C_20
REMARK    5  A    between atoms: N_31  and  C_32
REMARK                            x       y       z     vdW  Elec       q    Type
REMARK                         _______ _______ _______ _____ _____    ______ ____
ROOT
ATOM      6  C   UNL     1     -16.084 -48.017 -16.207  0.00  0.00    +0.042 A 
ATOM      7  C   UNL     1     -16.467 -48.967 -17.188  0.00  0.00    +0.004 A 
ATOM     14  C   UNL     1     -17.762 -48.905 -17.736  0.00  0.00    +0.023 A 
ATOM     15  C   UNL     1     -18.670 -47.919 -17.330  0.00  0.00    +0.038 A 
ATOM     25  C   UNL     1     -18.277 -46.988 -16.365  0.00  0.00    +0.015 A 
ATOM     26  C   UNL     1     -17.008 -47.037 -15.805  0.00  0.00    +0.024 A 
ENDROOT
BRANCH  15  16
ATOM     16  C   UNL     1     -20.048 -47.858 -17.947  0.00  0.00    +0.247 C 
ATOM     17  N   UNL     1     -21.038 -47.198 -17.287  0.00  0.00    -0.295 N 
ATOM     18  C   UNL     1     -21.834 -46.149 -17.982  0.00  0.00    +0.123 C 
ATOM     19  C   UNL     1     -23.348 -46.506 -18.090  0.00  0.00    +0.103 C 
ATOM     20  N   UNL     1     -23.885 -46.886 -16.778  0.00  0.00    -0.302 NA
ATOM     21  C   UNL     1     -25.335 -47.081 -16.833  0.00  0.00    +0.105 C 
ATOM     22  C   UNL     1     -23.209 -48.094 -16.311  0.00  0.00    +0.103 C 
ATOM     23  C   UNL     1     -21.702 -47.824 -16.109  0.00  0.00    +0.123 C 
ATOM     24  O   UNL     1     -20.232 -48.388 -19.035  0.00  0.00    -0.270 OA
ENDBRANCH  15  16
BRANCH   7   8
ATOM      8  C   UNL     1     -15.558 -50.034 -17.662  0.00  0.00    -0.016 A 
ATOM      9  C   UNL     1     -15.302 -51.164 -16.874  0.00  0.00    +0.008 A 
ATOM     10  C   UNL     1     -14.452 -52.174 -17.328  0.00  0.00    +0.001 A 
ATOM     11  C   UNL     1     -13.847 -52.068 -18.566  0.00  0.00    +0.000 A 
ATOM     12  C   UNL     1     -14.089 -50.959 -19.359  0.00  0.00    +0.001 A 
ATOM     13  C   UNL     1     -14.942 -49.947 -18.913  0.00  0.00    +0.008 A 
ENDBRANCH   7   8
BRANCH   6   4
ATOM      3  C   UNL     1     -14.140 -47.179 -14.833  0.00  0.00    +0.251 C 
ATOM      4  N   UNL     1     -14.774 -48.075 -15.643  0.00  0.00    -0.281 N 
ATOM      5  H   UNL     1     -14.207 -48.948 -15.892  0.00  0.00    +0.155 HD
ATOM     27  O   UNL     1     -14.663 -46.165 -14.373  0.00  0.00    -0.270 OA
BRANCH   3   2
ATOM      1  C   UNL     1     -11.962 -48.581 -15.097  0.00  0.00    +0.097 A 
ATOM      2  C   UNL     1     -12.719 -47.488 -14.518  0.00  0.00    +0.070 A 
ATOM     28  C   UNL     1     -11.978 -46.725 -13.626  0.00  0.00    +0.061 A 
ATOM     29  S   UNL     1     -10.377 -47.297 -13.447  0.00  0.00    -0.089 S 
ATOM     30  N   UNL     1     -12.382 -49.548 -16.042  0.00  0.00    -0.236 NA
ATOM     31  C   UNL     1     -11.454 -50.417 -16.364  0.00  0.00    +0.200 C 
ATOM     32  N   UNL     1     -10.181 -50.416 -15.879  0.00  0.00    -0.313 N 
ATOM     33  H   UNL     1      -9.505 -51.165 -16.236  0.00  0.00    +0.170 HD
ATOM     34  C   UNL     1      -9.710 -49.501 -14.950  0.00  0.00    +0.266 C 
ATOM     35  O   UNL     1      -8.557 -49.541 -14.532  0.00  0.00    -0.267 OA
ATOM     36  C   UNL     1     -10.703 -48.546 -14.568  0.00  0.00    +0.103 A 
ENDBRANCH   3   2
ENDBRANCH   6   4
TORSDOF 4
