REMARK  Name = 3CY3
REMARK  6 active torsions:
REMARK  status: ('A' for Active; 'I' for Inactive)
REMARK    1  A    between atoms: C_6  and  C_7
REMARK    2  A    between atoms: C_7  and  C_8
REMARK    3  A    between atoms: C_8  and  N_9
REMARK    4  A    between atoms: C_15  and  C_16
REMARK    5  A    between atoms: C_16  and  C_17
REMARK    6  A    between atoms: C_16  and  C_19
REMARK                            x       y       z     vdW  Elec       q    Type
REMARK                         _______ _______ _______ _____ _____    ______ ____
ROOT
ATOM      5  N   UNL     1     -17.766  36.190  -4.141  0.00  0.00    -0.250 NA
ATOM      6  C   UNL     1     -16.949  35.593  -3.260  0.00  0.00    +0.224 A 
ATOM      7  N   UNL     1     -15.754  35.107  -3.678  0.00  0.00    -0.331 N 
ATOM      8  H   UNL     1     -15.467  35.215  -4.703  0.00  0.00    +0.168 HD
ATOM      9  C   UNL     1     -14.937  34.499  -2.828  0.00  0.00    +0.087 A 
ATOM     10  C   UNL     1     -15.314  34.372  -1.491  0.00  0.00    +0.043 A 
ATOM     11  C   UNL     1     -16.539  34.884  -1.066  0.00  0.00    +0.075 A 
ATOM     24  N   UNL     1     -17.329  35.492  -1.973  0.00  0.00    -0.215 NA
ENDROOT
BRANCH   5   4
ATOM      4  C   UNL     1     -19.028  36.792  -3.736  0.00  0.00    +0.150 C 
BRANCH   4   3
ATOM      3  C   UNL     1     -18.856  38.296  -3.754  0.00  0.00    +0.060 C 
BRANCH   3   2
ATOM      1  C   UNL     1     -20.404  39.446  -2.172  0.00  0.00    +0.006 A 
ATOM      2  C   UNL     1     -20.135  39.040  -3.468  0.00  0.00    -0.028 A 
ATOM     25  C   UNL     1     -21.051  39.309  -4.467  0.00  0.00    +0.114 A 
ATOM     26  N   UNL     1     -22.172  39.971  -4.168  0.00  0.00    -0.263 NA
ATOM     27  C   UNL     1     -22.450  40.391  -2.936  0.00  0.00    +0.111 A 
ATOM     28  C   UNL     1     -21.570  40.138  -1.892  0.00  0.00    +0.020 A 
ENDBRANCH   3   2
ENDBRANCH   4   3
ENDBRANCH   5   4
BRANCH  11  12
ATOM     12  C   UNL     1     -16.928  34.813   0.276  0.00  0.00    +0.177 C 
BRANCH  12  13
ATOM     13  C   UNL     1     -17.845  35.720   0.777  0.00  0.00    +0.108 A 
ATOM     14  S   UNL     1     -18.953  36.693  -0.206  0.00  0.00    -0.070 S 
ATOM     15  C   UNL     1     -19.582  37.442   1.194  0.00  0.00    +0.039 A 
ATOM     16  C   UNL     1     -20.589  38.421   1.201  0.00  0.00    +0.017 A 
ATOM     17  C   UNL     1     -20.996  38.953   2.434  0.00  0.00    +0.001 A 
ATOM     18  C   UNL     1     -20.403  38.501   3.624  0.00  0.00    +0.002 A 
ATOM     19  C   UNL     1     -19.423  37.509   3.606  0.00  0.00    +0.029 A 
ATOM     20  C   UNL     1     -18.989  36.979   2.385  0.00  0.00    +0.079 A 
ATOM     21  N   UNL     1     -18.010  36.006   2.133  0.00  0.00    -0.242 NA
ENDBRANCH  12  13
BRANCH  12  22
ATOM     22  C   UNL     1     -16.226  33.931   1.139  0.00  0.00    +0.085 C 
ATOM     23  N   UNL     1     -15.653  33.187   1.764  0.00  0.00    -0.195 NA
ENDBRANCH  12  22
ENDBRANCH  11  12
TORSDOF 6
