REMARK  Name = 2bdf_ligand
REMARK  9 active torsions:
REMARK  status: ('A' for Active; 'I' for Inactive)
REMARK    1  A    between atoms: C0A_1  and  C1A_2
REMARK    2  A    between atoms: C1A_2  and  N9A_3
REMARK    3  A    between atoms: C2A_6  and  CS4_31
REMARK    4  A    between atoms: C6A_8  and  N6A_12
REMARK    5  A    between atoms: N6A_12  and  CR1_13
REMARK    6  A    between atoms: CR4_16  and  PA_19
REMARK    7  A    between atoms: PA_19  and  CAB_22
REMARK    8  A    between atoms: CAB_22  and  PB_23
REMARK    9  A    between atoms: NS1_27  and  CS1_28
REMARK                            x       y       z     vdW  Elec       q    Type
REMARK                         _______ _______ _______ _____ _____    ______ ____
ROOT
ATOM      3  N   UNL     1      10.301  17.059  -6.172  0.00  0.00    -0.225 N 
ATOM      4  C   UNL     1      11.424  17.261  -5.489  0.00  0.00    +0.240 A 
ATOM      5  N   UNL     1      12.419  16.630  -6.142  0.00  0.00    -0.300 NA
ATOM      6  C   UNL     1      11.856  16.066  -7.205  0.00  0.00    +0.102 A 
ATOM      7  C   UNL     1      12.505  15.297  -8.192  0.00  0.00    +0.146 A 
ATOM     24  N   UNL     1      11.644  14.862  -9.146  0.00  0.00    -0.266 NA
ATOM     25  C   UNL     1      10.326  15.125  -9.164  0.00  0.00    +0.072 A 
ATOM     36  N   UNL     1       9.726  15.855  -8.222  0.00  0.00    -0.273 NA
ATOM     37  C   UNL     1      10.490  16.327  -7.236  0.00  0.00    +0.151 A 
ENDROOT
BRANCH  25  26
ATOM     26  C   UNL     1       9.453  14.578 -10.263  0.00  0.00    +0.071 C 
ATOM     27  C   UNL     1       9.315  13.063 -10.115  0.00  0.00    +0.028 C 
ATOM     28  C   UNL     1       8.428  12.488 -11.213  0.00  0.00    +0.057 C 
ATOM     29  C   UNL     1       9.013  12.828 -12.580  0.00  0.00    +0.061 C 
ATOM     30  C   UNL     1       9.144  14.353 -12.756  0.00  0.00    +0.057 C 
ATOM     35  C   UNL     1      10.004  14.972 -11.643  0.00  0.00    +0.028 C 
BRANCH  29  31
ATOM     31  N   UNL     1       8.111  12.116 -13.464  0.00  0.00    +0.221 N 
ATOM     32  H   UNL     1       8.140  11.131 -13.251  0.00  0.00    +0.200 HD
ATOM     33  H   UNL     1       7.173  12.460 -13.335  0.00  0.00    +0.200 HD
ATOM     34  H   UNL     1       8.393  12.262 -14.421  0.00  0.00    +0.200 HD
ENDBRANCH  29  31
ENDBRANCH  25  26
BRANCH   3   2
ATOM      1  C   UNL     1       8.602  18.684  -6.783  0.00  0.00    +0.039 C 
ATOM      2  C   UNL     1       8.973  17.569  -5.834  0.00  0.00    +0.179 C 
ENDBRANCH   3   2
BRANCH   7   8
ATOM      8  N   UNL     1      13.842  15.024  -8.234  0.00  0.00    -0.252 N 
ATOM      9  H   UNL     1      14.384  15.354  -7.423  0.00  0.00    +0.219 HD
BRANCH   8  10
ATOM     10  C   UNL     1      14.568  14.375  -9.198  0.00  0.00    +0.070 A 
ATOM     11  C   UNL     1      14.049  13.571 -10.216  0.00  0.00    +0.024 A 
ATOM     12  C   UNL     1      14.900  12.911 -11.136  0.00  0.00    +0.015 A 
ATOM     13  C   UNL     1      16.285  13.050 -11.050  0.00  0.00    +0.019 A 
ATOM     22  C   UNL     1      16.808  13.856 -10.038  0.00  0.00    +0.015 A 
ATOM     23  C   UNL     1      15.951  14.514  -9.122  0.00  0.00    +0.024 A 
BRANCH  13  14
ATOM     14  P   UNL     1      17.261  12.327 -12.067  0.00  0.00    +0.016 P 
ATOM     20  O   UNL     1      16.650  11.884 -13.490  0.00  0.00    -0.622 OA
ATOM     21  O   UNL     1      18.568  12.957 -12.400  0.00  0.00    -0.622 OA
BRANCH  14  15
ATOM     15  C   UNL     1      17.768  10.940 -11.640  0.00  0.00    +0.211 C 
BRANCH  15  16
ATOM     16  P   UNL     1      18.762   9.830 -12.131  0.00  0.00    +0.075 P 
ATOM     17  O   UNL     1      20.044  10.532 -12.900  0.00  0.00    -0.561 OA
ATOM     18  O   UNL     1      19.392   9.177 -10.772  0.00  0.00    -0.561 OA
ATOM     19  O   UNL     1      18.067   8.751 -12.915  0.00  0.00    -0.561 OA
ENDBRANCH  15  16
ENDBRANCH  14  15
ENDBRANCH  13  14
ENDBRANCH   8  10
ENDBRANCH   7   8
TORSDOF 8
