REMARK  Name = 4eyj_ligand
REMARK  9 active torsions:
REMARK  status: ('A' for Active; 'I' for Inactive)
REMARK    1  A    between atoms: N3_3  and  C8_4
REMARK    2  A    between atoms: C2_6  and  C3_7
REMARK    3  A    between atoms: C3_7  and  C6_8
REMARK    4  A    between atoms: C3_7  and  C5_9
REMARK    5  A    between atoms: C3_7  and  C4_10
REMARK    6  A    between atoms: N1_12  and  C1_13
REMARK    7  A    between atoms: N4_14  and  C10_15
REMARK    8  A    between atoms: C13_18  and  O2_21
REMARK    9  A    between atoms: O2_21  and  C14_22
REMARK                            x       y       z     vdW  Elec       q    Type
REMARK                         _______ _______ _______ _____ _____    ______ ____
ROOT
ATOM      1  O   UNL     1     -12.923  12.282 -26.466  0.00  0.00    -0.380 OA
ATOM      2  C   UNL     1     -13.896  11.529 -26.550  0.00  0.00    +0.320 C 
ATOM      3  N   UNL     1     -14.102  10.616 -27.659  0.00  0.00    -0.219 N 
ATOM      4  H   UNL     1     -14.928  10.053 -27.631  0.00  0.00    +0.223 HD
ATOM     18  N   UNL     1     -14.922  11.517 -25.502  0.00  0.00    -0.182 N 
ATOM     19  H   UNL     1     -15.693  10.885 -25.578  0.00  0.00    +0.234 HD
ENDROOT
BRANCH   3   5
ATOM      5  C   UNL     1     -13.228  10.438 -28.806  0.00  0.00    +0.058 A 
ATOM      6  C   UNL     1     -13.826   9.902 -29.953  0.00  0.00    +0.000 A 
ATOM      7  C   UNL     1     -13.066   9.691 -31.117  0.00  0.00    +0.012 A 
ATOM      8  C   UNL     1     -11.739  10.021 -31.139  0.00  0.00    +0.105 A 
ATOM     16  C   UNL     1     -11.132  10.551 -29.995  0.00  0.00    +0.012 A 
ATOM     17  C   UNL     1     -11.899  10.761 -28.819  0.00  0.00    +0.000 A 
BRANCH   8   9
ATOM      9  O   UNL     1     -11.029   9.782 -32.291  0.00  0.00    -0.257 OA
BRANCH   9  10
ATOM     10  C   UNL     1     -10.700  10.922 -33.025  0.00  0.00    +0.133 A 
ATOM     11  C   UNL     1     -11.434  12.134 -32.924  0.00  0.00    +0.063 A 
ATOM     12  C   UNL     1     -11.068  13.203 -33.663  0.00  0.00    +0.079 A 
ATOM     13  N   UNL     1      -9.999  13.113 -34.509  0.00  0.00    -0.313 NA
ATOM     14  C   UNL     1      -9.275  11.960 -34.629  0.00  0.00    +0.079 A 
ATOM     15  C   UNL     1      -9.604  10.861 -33.904  0.00  0.00    +0.063 A 
ENDBRANCH   9  10
ENDBRANCH   8   9
ENDBRANCH   3   5
BRANCH  18  20
ATOM     20  C   UNL     1     -14.839  12.420 -24.336  0.00  0.00    +0.202 A 
ATOM     21  N   UNL     1     -15.192  12.099 -23.059  0.00  0.00    -0.152 N 
ATOM     22  C   UNL     1     -15.687  10.786 -22.626  0.00  0.00    +0.258 C 
ATOM     23  N   UNL     1     -14.983  13.216 -22.259  0.00  0.00    -0.175 NA
ATOM     24  C   UNL     1     -14.528  14.217 -23.014  0.00  0.00    +0.001 A 
ATOM     29  C   UNL     1     -14.426  13.738 -24.355  0.00  0.00    -0.000 A 
BRANCH  24  25
ATOM     25  C   UNL     1     -14.172  15.635 -22.533  0.00  0.00    -0.041 C 
ATOM     26  C   UNL     1     -15.115  16.608 -23.173  0.00  0.00    -0.040 C 
ATOM     27  C   UNL     1     -14.321  15.703 -21.062  0.00  0.00    -0.040 C 
ATOM     28  C   UNL     1     -12.749  15.967 -22.943  0.00  0.00    -0.040 C 
ENDBRANCH  24  25
ENDBRANCH  18  20
TORSDOF 5
