REMARK  Name = 4E73
REMARK  9 active torsions:
REMARK  status: ('A' for Active; 'I' for Inactive)
REMARK    1  A    between atoms: N_7  and  C_8
REMARK    2  A    between atoms: C_9  and  C_20
REMARK    3  A    between atoms: C_10  and  C_11
REMARK    4  A    between atoms: C_11  and  C_12
REMARK    5  A    between atoms: C_20  and  O_22
REMARK    6  A    between atoms: O_22  and  C_23
REMARK    7  A    between atoms: C_26  and  C_29
REMARK    8  A    between atoms: N_31  and  C_32
REMARK    9  A    between atoms: C_39  and  N_42
REMARK                            x       y       z     vdW  Elec       q    Type
REMARK                         _______ _______ _______ _____ _____    ______ ____
ROOT
ATOM      6  C   UNL     1      -1.879  -0.935   9.272  0.00  0.00    -0.043 A 
ATOM      7  C   UNL     1      -2.720   0.220   9.175  0.00  0.00    +0.005 A 
ATOM      8  C   UNL     1      -2.345   1.320   8.345  0.00  0.00    +0.013 A 
ATOM      9  C   UNL     1      -1.119   1.274   7.603  0.00  0.00    +0.037 A 
ATOM     27  C   UNL     1      -0.286   0.122   7.697  0.00  0.00    +0.013 A 
ATOM     28  C   UNL     1      -0.665  -0.963   8.520  0.00  0.00    +0.005 A 
ENDROOT
BRANCH   9  10
ATOM     10  C   UNL     1      -0.740   2.445   6.756  0.00  0.00    +0.244 C 
ATOM     11  N   UNL     1       0.000   2.173   5.613  0.00  0.00    -0.308 N 
ATOM     12  H   UNL     1       0.272   1.160   5.403  0.00  0.00    +0.149 HD
ATOM     26  O   UNL     1      -1.066   3.580   7.118  0.00  0.00    -0.270 OA
BRANCH  11  13
ATOM     13  C   UNL     1       0.422   3.225   4.683  0.00  0.00    +0.080 C 
ATOM     14  C   UNL     1       1.832   3.813   5.088  0.00  0.00    +0.011 C 
ATOM     15  C   UNL     1       2.169   5.026   4.152  0.00  0.00    +0.027 C 
ATOM     16  C   UNL     1       2.222   4.553   2.655  0.00  0.00    +0.017 C 
ATOM     20  C   UNL     1       0.825   3.943   2.255  0.00  0.00    +0.027 C 
ATOM     21  C   UNL     1       3.338   3.455   2.506  0.00  0.00    +0.025 C 
ATOM     22  C   UNL     1       3.004   2.227   3.426  0.00  0.00    -0.009 C 
ATOM     23  C   UNL     1       1.609   1.630   3.007  0.00  0.00    +0.009 C 
ATOM     24  C   UNL     1       2.929   2.709   4.916  0.00  0.00    +0.009 C 
ATOM     25  C   UNL     1       0.484   2.721   3.182  0.00  0.00    +0.011 C 
BRANCH  16  17
ATOM     17  N   UNL     1       2.513   5.652   1.804  0.00  0.00    -0.325 NA
ATOM     18  H   UNL     1       3.460   6.071   2.073  0.00  0.00    +0.119 HD
ATOM     19  H   UNL     1       2.547   5.318   0.788  0.00  0.00    +0.119 HD
ENDBRANCH  16  17
ENDBRANCH  11  13
ENDBRANCH   9  10
BRANCH   6   5
ATOM      5  C   UNL     1      -2.245  -2.106  10.185  0.00  0.00    +0.076 C 
BRANCH   5   4
ATOM      1  C   UNL     1       0.856  -3.191  12.462  0.00  0.00    +0.065 A 
ATOM      2  C   UNL     1      -0.137  -3.116  11.335  0.00  0.00    +0.195 A 
ATOM      3  O   UNL     1      -0.014  -3.875  10.366  0.00  0.00    -0.287 OA
ATOM      4  C   UNL     1      -1.276  -2.112  11.404  0.00  0.00    +0.035 A 
ATOM     29  C   UNL     1      -1.310  -1.322  12.546  0.00  0.00    +0.140 A 
ATOM     34  N   UNL     1      -0.354  -1.376  13.637  0.00  0.00    -0.287 N 
ATOM     41  C   UNL     1       0.731  -2.330  13.579  0.00  0.00    +0.149 A 
ATOM     42  N   UNL     1       1.657  -2.408  14.616  0.00  0.00    -0.237 NA
ATOM     43  C   UNL     1       2.695  -3.322  14.565  0.00  0.00    +0.113 A 
ATOM     44  C   UNL     1       2.875  -4.200  13.504  0.00  0.00    +0.020 A 
ATOM     45  C   UNL     1       1.938  -4.130  12.429  0.00  0.00    +0.017 A 
BRANCH  34  35
ATOM     35  C   UNL     1      -0.463  -0.501  14.801  0.00  0.00    +0.049 A 
ATOM     36  C   UNL     1      -1.471  -0.702  15.810  0.00  0.00    +0.026 A 
ATOM     37  C   UNL     1      -1.555   0.167  16.919  0.00  0.00    +0.002 A 
ATOM     38  C   UNL     1      -0.638   1.252  17.044  0.00  0.00    +0.000 A 
ATOM     39  C   UNL     1       0.363   1.464  16.064  0.00  0.00    +0.002 A 
ATOM     40  C   UNL     1       0.451   0.600  14.956  0.00  0.00    +0.026 A 
ENDBRANCH  34  35
BRANCH  29  30
ATOM     30  C   UNL     1      -2.448  -0.327  12.624  0.00  0.00    +0.356 C 
ATOM     33  O   UNL     1      -3.617  -0.675  12.697  0.00  0.00    -0.243 OA
BRANCH  30  31
ATOM     31  O   UNL     1      -1.950   0.947  12.616  0.00  0.00    -0.463 OA
ATOM     32  C   UNL     1      -2.937   1.988  12.699  0.00  0.00    +0.280 C 
ENDBRANCH  30  31
ENDBRANCH  29  30
ENDBRANCH   5   4
ENDBRANCH   6   5
TORSDOF 8
