REMARK  Name = 3WIL
REMARK  9 active torsions:
REMARK  status: ('A' for Active; 'I' for Inactive)
REMARK    1  A    between atoms: C_1  and  O_2
REMARK    2  A    between atoms: O_2  and  C_3
REMARK    3  A    between atoms: C_5  and  O_6
REMARK    4  A    between atoms: O_6  and  C_7
REMARK    5  A    between atoms: C_10  and  C_11
REMARK    6  A    between atoms: C_11  and  C_12
REMARK    7  A    between atoms: C_21  and  O_22
REMARK    8  A    between atoms: O_22  and  C_23
REMARK    9  A    between atoms: C_23  and  C_24
REMARK                            x       y       z     vdW  Elec       q    Type
REMARK                         _______ _______ _______ _____ _____    ______ ____
ROOT
ATOM      9  C   UNL     1     -36.918  -8.486 -10.446  0.00  0.00    +0.223 C 
ATOM     10  O   UNL     1     -37.150  -7.227  -9.940  0.00  0.00    -0.472 OA
ATOM     11  C   UNL     1     -36.960  -6.329 -10.982  0.00  0.00    +0.136 A 
ATOM     12  C   UNL     1     -36.612  -7.021 -12.159  0.00  0.00    +0.064 A 
ATOM     13  C   UNL     1     -36.378  -6.358 -13.371  0.00  0.00    +0.019 A 
ATOM     14  C   UNL     1     -36.482  -4.975 -13.402  0.00  0.00    +0.046 A 
ATOM     15  C   UNL     1     -36.824  -4.294 -12.231  0.00  0.00    +0.125 A 
ATOM     21  C   UNL     1     -37.062  -4.945 -11.030  0.00  0.00    +0.092 A 
ATOM     22  C   UNL     1     -36.589  -8.360 -11.812  0.00  0.00    +0.215 C 
ATOM     23  O   UNL     1     -36.321  -9.253 -12.619  0.00  0.00    -0.287 OA
ENDROOT
BRANCH   9   8
ATOM      8  C   UNL     1     -37.002  -9.699  -9.736  0.00  0.00    +0.096 C 
BRANCH   8   7
ATOM      3  C   UNL     1     -37.609 -11.551  -6.564  0.00  0.00    +0.162 A 
ATOM      4  C   UNL     1     -37.544 -10.513  -5.615  0.00  0.00    +0.162 A 
ATOM      5  C   UNL     1     -37.312  -9.195  -6.050  0.00  0.00    +0.050 A 
ATOM      6  C   UNL     1     -37.125  -8.889  -7.410  0.00  0.00    +0.007 A 
ATOM      7  C   UNL     1     -37.177  -9.912  -8.360  0.00  0.00    -0.039 A 
ATOM     26  C   UNL     1     -37.423 -11.230  -7.924  0.00  0.00    +0.053 A 
BRANCH   3   2
ATOM      1  C   UNL     1     -39.219 -13.131  -5.858  0.00  0.00    +0.277 C 
ATOM      2  O   UNL     1     -37.829 -12.855  -6.181  0.00  0.00    -0.491 OA
ENDBRANCH   3   2
BRANCH   4  24
ATOM     24  O   UNL     1     -37.694 -10.784  -4.279  0.00  0.00    -0.491 OA
ATOM     25  C   UNL     1     -36.440 -11.244  -3.705  0.00  0.00    +0.277 C 
ENDBRANCH   4  24
ENDBRANCH   8   7
ENDBRANCH   9   8
BRANCH  15  16
ATOM     16  O   UNL     1     -36.947  -2.968 -12.220  0.00  0.00    -0.486 OA
BRANCH  16  17
ATOM     17  C   UNL     1     -36.945  -2.564 -13.555  0.00  0.00    +0.281 C 
BRANCH  17  18
ATOM     18  C   UNL     1     -36.450  -1.148 -13.389  0.00  0.00    +0.079 C 
ATOM     19  O   UNL     1     -36.811  -0.525 -12.341  0.00  0.00    -0.546 OA
ATOM     20  O   UNL     1     -35.709  -0.719 -14.318  0.00  0.00    -0.546 OA
ENDBRANCH  17  18
ENDBRANCH  16  17
ENDBRANCH  15  16
TORSDOF 7
