REMARK  Name = 5BPY
REMARK  10 active torsions:
REMARK  status: ('A' for Active; 'I' for Inactive)
REMARK    1  A    between atoms: C_1  and  C_2
REMARK    2  A    between atoms: C_10  and  C_33
REMARK    3  A    between atoms: C_11  and  N_32
REMARK    4  A    between atoms: C_17  and  C_19
REMARK    5  A    between atoms: C_18  and  N_20
REMARK    6  A    between atoms: N_20  and  C_21
REMARK    7  A    between atoms: C_37  and  C_40
REMARK    8  A    between atoms: C_40  and  C_41
REMARK    9  A    between atoms: C_40  and  C_42
REMARK   10  A    between atoms: C_40  and  C_43
REMARK                            x       y       z     vdW  Elec       q    Type
REMARK                         _______ _______ _______ _____ _____    ______ ____
ROOT
ATOM      7  C   UNL     1      14.632  10.559   3.030  0.00  0.00    +0.137 A 
ATOM      8  C   UNL     1      15.806   9.994   3.610  0.00  0.00    +0.077 A 
ATOM     14  C   UNL     1      15.664   8.815   4.348  0.00  0.00    +0.020 A 
ATOM     15  C   UNL     1      14.422   8.226   4.522  0.00  0.00    +0.044 A 
ATOM     16  C   UNL     1      13.312   8.864   3.946  0.00  0.00    +0.124 A 
ATOM     17  N   UNL     1      12.024   8.384   4.133  0.00  0.00    -0.313 N 
ATOM     18  C   UNL     1      11.780   6.945   4.295  0.00  0.00    +0.106 C 
ATOM     19  C   UNL     1      11.463   6.276   2.966  0.00  0.00    +0.021 C 
ATOM     20  C   UNL     1      10.332   7.008   2.235  0.00  0.00    +0.025 C 
ATOM     21  C   UNL     1      10.613   8.503   2.132  0.00  0.00    +0.091 C 
ATOM     36  C   UNL     1      10.871   9.060   3.526  0.00  0.00    +0.128 C 
ATOM     37  N   UNL     1      13.431   9.987   3.217  0.00  0.00    -0.217 NA
ENDROOT
BRANCH   8   9
ATOM      9  C   UNL     1      17.164  10.627   3.545  0.00  0.00    +0.245 C 
ATOM     10  O   UNL     1      17.262  11.826   3.275  0.00  0.00    -0.270 OA
ATOM     11  N   UNL     1      18.234   9.865   3.822  0.00  0.00    -0.325 N 
ATOM     12  H   UNL     1      19.216  10.288   3.784  0.00  0.00    +0.145 HD
ATOM     13  H   UNL     1      18.105   8.835   4.081  0.00  0.00    +0.145 HD
ENDBRANCH   8   9
BRANCH  21  22
ATOM     22  N   UNL     1       9.541   9.195   1.409  0.00  0.00    -0.307 N 
ATOM     23  H   UNL     1       8.548   9.156   1.806  0.00  0.00    +0.149 HD
ATOM     24  C   UNL     1       9.752   9.879   0.264  0.00  0.00    +0.244 C 
ATOM     25  O   UNL     1      10.851   9.928  -0.288  0.00  0.00    -0.270 OA
BRANCH  24  26
ATOM     26  C   UNL     1       8.580  10.593  -0.332  0.00  0.00    +0.037 A 
ATOM     27  C   UNL     1       7.591  11.226   0.424  0.00  0.00    +0.013 A 
ATOM     28  C   UNL     1       6.563  11.919  -0.195  0.00  0.00    +0.005 A 
ATOM     29  C   UNL     1       6.473  11.994  -1.583  0.00  0.00    -0.042 A 
ATOM     34  C   UNL     1       7.466  11.365  -2.331  0.00  0.00    +0.005 A 
ATOM     35  C   UNL     1       8.502  10.676  -1.721  0.00  0.00    +0.013 A 
BRANCH  29  30
ATOM     30  C   UNL     1       5.315  12.736  -2.266  0.00  0.00    -0.013 C 
ATOM     31  C   UNL     1       5.654  14.223  -2.423  0.00  0.00    +0.015 C 
ATOM     32  C   UNL     1       5.032  12.164  -3.663  0.00  0.00    +0.015 C 
ATOM     33  C   UNL     1       4.017  12.625  -1.451  0.00  0.00    +0.015 C 
ENDBRANCH  29  30
ENDBRANCH  24  26
ENDBRANCH  21  22
BRANCH   7   5
ATOM      5  N   UNL     1      14.714  11.705   2.277  0.00  0.00    -0.299 N 
ATOM      6  H   UNL     1      15.714  12.071   2.176  0.00  0.00    +0.154 HD
BRANCH   5   4
ATOM      1  C   UNL     1      11.960  14.173   0.250  0.00  0.00    +0.037 A 
ATOM      2  C   UNL     1      13.322  14.451   0.254  0.00  0.00    +0.015 A 
ATOM      3  C   UNL     1      14.211  13.634   0.932  0.00  0.00    +0.024 A 
ATOM      4  C   UNL     1      13.758  12.506   1.606  0.00  0.00    +0.032 A 
ATOM     38  C   UNL     1      12.396  12.213   1.593  0.00  0.00    +0.024 A 
ATOM     39  C   UNL     1      11.509  13.040   0.925  0.00  0.00    +0.015 A 
BRANCH   1  40
ATOM     40  C   UNL     1      11.011  15.156  -0.366  0.00  0.00    +0.247 C 
ATOM     41  O   UNL     1      10.746  16.179   0.241  0.00  0.00    -0.270 OA
ATOM     42  N   UNL     1      10.424  14.855  -1.546  0.00  0.00    -0.293 N 
ATOM     43  C   UNL     1      10.684  13.638  -2.338  0.00  0.00    +0.136 C 
ATOM     44  C   UNL     1      10.801  13.977  -3.805  0.00  0.00    +0.178 C 
ATOM     45  O   UNL     1       9.674  14.716  -4.269  0.00  0.00    -0.377 OA
ATOM     46  C   UNL     1       9.587  15.951  -3.567  0.00  0.00    +0.178 C 
ATOM     47  C   UNL     1       9.370  15.725  -2.093  0.00  0.00    +0.136 C 
ENDBRANCH   1  40
ENDBRANCH   5   4
ENDBRANCH   7   5
TORSDOF 7
