REMARK  Name = 4EZ7
REMARK  6 active torsions:
REMARK  status: ('A' for Active; 'I' for Inactive)
REMARK    1  A    between atoms: C_4  and  N_34
REMARK    2  A    between atoms: C_5  and  O_32
REMARK    3  A    between atoms: C_6  and  C_7
REMARK    4  A    between atoms: C_23  and  O_24
REMARK    5  A    between atoms: O_32  and  C_33
REMARK    6  A    between atoms: N_34  and  C_35
REMARK                            x       y       z     vdW  Elec       q    Type
REMARK                         _______ _______ _______ _____ _____    ______ ____
ROOT
ATOM      1  O   UNL     1      -1.064  12.267 -28.590  0.00  0.00    -0.328 OA
ATOM      2  C   UNL     1      -0.345  11.598 -27.591  0.00  0.00    +0.174 C 
ATOM      3  N   UNL     1       0.210  10.225 -28.001  0.00  0.00    -0.307 NA
ATOM      4  C   UNL     1       1.469   9.523 -27.640  0.00  0.00    +0.053 C 
ATOM      5  C   UNL     1       2.623   9.841 -26.847  0.00  0.00    +0.026 C 
ATOM      6  C   UNL     1       3.683   8.949 -26.717  0.00  0.00    +0.002 C 
ATOM      7  C   UNL     1       3.645   7.702 -27.365  0.00  0.00    +0.001 C 
ATOM      8  C   UNL     1       2.512   7.361 -28.154  0.00  0.00    +0.010 C 
ATOM      9  C   UNL     1       1.452   8.268 -28.283  0.00  0.00    +0.008 C 
ATOM     10  C   UNL     1       0.170   8.180 -29.036  0.00  0.00    +0.019 C 
ATOM     11  C   UNL     1      -0.440   7.142 -29.886  0.00  0.00    +0.016 C 
ATOM     12  C   UNL     1      -0.010   5.828 -30.305  0.00  0.00    +0.124 C 
ATOM     13  N   UNL     1      -0.976   5.302 -31.103  0.00  0.00    -0.220 NA
ATOM     14  C   UNL     1      -1.995   6.172 -31.231  0.00  0.00    +0.221 C 
ATOM     17  C   UNL     1      -1.687   7.364 -30.463  0.00  0.00    +0.055 C 
ATOM     18  C   UNL     1      -2.419   8.638 -30.227  0.00  0.00    +0.022 C 
ATOM     19  C   UNL     1      -3.780   9.226 -30.675  0.00  0.00    +0.009 C 
ATOM     20  C   UNL     1      -4.834   8.746 -31.494  0.00  0.00    +0.010 C 
ATOM     21  C   UNL     1      -6.002   9.539 -31.736  0.00  0.00    +0.001 C 
ATOM     22  C   UNL     1      -6.116  10.837 -31.148  0.00  0.00    +0.002 C 
ATOM     23  C   UNL     1      -5.061  11.330 -30.325  0.00  0.00    +0.026 C 
ATOM     24  C   UNL     1      -3.896  10.534 -30.086  0.00  0.00    +0.052 C 
ATOM     25  N   UNL     1      -2.673  10.720 -29.311  0.00  0.00    -0.312 NA
ATOM     26  C   UNL     1      -1.785   9.632 -29.383  0.00  0.00    +0.077 C 
ATOM     27  C   UNL     1      -0.536   9.427 -28.805  0.00  0.00    +0.077 C 
ATOM     28  C   UNL     1       0.748  12.614 -27.349  0.00  0.00    +0.069 C 
ATOM     29  C   UNL     1      -1.152  11.452 -26.240  0.00  0.00    +0.187 C 
ATOM     32  C   UNL     1      -2.228  12.496 -26.284  0.00  0.00    +0.091 C 
ATOM     36  C   UNL     1      -3.233  12.058 -27.269  0.00  0.00    +0.076 C 
ATOM     37  C   UNL     1      -2.504  11.981 -28.627  0.00  0.00    +0.224 C 
ENDROOT
BRANCH  32  33
ATOM     33  N   UNL     1      -2.866  12.750 -24.990  0.00  0.00    -0.314 NA
ATOM     34  H   UNL     1      -2.193  12.467 -24.208  0.00  0.00    +0.122 HD
ATOM     35  C   UNL     1      -3.205  14.158 -24.839  0.00  0.00    +0.101 C 
ENDBRANCH  32  33
BRANCH  14  15
ATOM     15  O   UNL     1      -3.133   5.991 -31.944  0.00  0.00    -0.492 OA
ATOM     16  H   UNL     1      -3.962   6.046 -31.301  0.00  0.00    +0.294 HD
ENDBRANCH  14  15
BRANCH  29  30
ATOM     30  O   UNL     1      -1.713  10.163 -26.178  0.00  0.00    -0.374 OA
ATOM     31  C   UNL     1      -1.127   9.118 -25.455  0.00  0.00    +0.194 C 
ENDBRANCH  29  30
TORSDOF 3
