REMARK  Name = 5IU2
REMARK  5 active torsions:
REMARK  status: ('A' for Active; 'I' for Inactive)
REMARK    1  A    between atoms: C_1  and  C_33
REMARK    2  A    between atoms: C_1  and  N_34
REMARK    3  A    between atoms: C_11  and  C_15
REMARK    4  A    between atoms: N_24  and  C_25
REMARK    5  A    between atoms: N_32  and  C_33
REMARK                            x       y       z     vdW  Elec       q    Type
REMARK                         _______ _______ _______ _____ _____    ______ ____
ROOT
ATOM      9  N   UNL     1     -19.502  10.843  -5.168  0.00  0.00    -0.322 N 
ATOM     10  H   UNL     1     -19.477  11.899  -5.340  0.00  0.00    +0.148 HD
ATOM     11  C   UNL     1     -18.428  10.268  -4.616  0.00  0.00    +0.159 A 
ATOM     12  S   UNL     1     -17.246  11.305  -3.843  0.00  0.00    -0.052 S 
ATOM     13  C   UNL     1     -16.300   9.884  -3.507  0.00  0.00    +0.043 A 
ATOM     14  C   UNL     1     -16.955   8.748  -4.003  0.00  0.00    +0.080 A 
ATOM     15  C   UNL     1     -16.369   7.493  -3.828  0.00  0.00    +0.031 A 
ATOM     16  C   UNL     1     -15.158   7.392  -3.166  0.00  0.00    +0.028 A 
ATOM     17  C   UNL     1     -14.541   8.525  -2.627  0.00  0.00    +0.049 A 
ATOM     37  C   UNL     1     -15.103   9.792  -2.804  0.00  0.00    +0.043 A 
ATOM     38  N   UNL     1     -18.167   8.992  -4.646  0.00  0.00    -0.225 NA
ENDROOT
BRANCH  17  18
ATOM     18  N   UNL     1     -13.276   8.406  -2.019  0.00  0.00    -0.298 N 
ATOM     19  C   UNL     1     -12.018   8.593  -2.582  0.00  0.00    +0.084 A 
ATOM     20  C   UNL     1     -11.613   9.064  -3.871  0.00  0.00    +0.030 A 
ATOM     21  C   UNL     1     -12.498   9.390  -4.930  0.00  0.00    +0.040 A 
ATOM     22  C   UNL     1     -12.020   9.838  -6.129  0.00  0.00    +0.072 A 
ATOM     23  N   UNL     1     -10.703   9.964  -6.377  0.00  0.00    -0.253 NA
ATOM     24  C   UNL     1      -9.869   9.623  -5.419  0.00  0.00    +0.139 A 
ATOM     31  C   UNL     1     -10.211   9.146  -4.090  0.00  0.00    +0.091 A 
ATOM     32  N   UNL     1      -9.293   8.841  -3.118  0.00  0.00    -0.251 NA
ATOM     33  C   UNL     1      -9.762   8.408  -1.965  0.00  0.00    +0.141 A 
ATOM     34  C   UNL     1     -11.096   8.278  -1.582  0.00  0.00    +0.108 A 
ATOM     35  N   UNL     1     -11.762   7.834  -0.441  0.00  0.00    -0.234 NA
ATOM     36  C   UNL     1     -13.033   7.929  -0.748  0.00  0.00    +0.205 A 
BRANCH  22  25
ATOM     25  C   UNL     1     -12.961  10.257  -7.199  0.00  0.00    +0.000 A 
ATOM     26  C   UNL     1     -12.637  10.101  -8.548  0.00  0.00    +0.010 A 
ATOM     27  C   UNL     1     -13.522  10.493  -9.541  0.00  0.00    +0.001 A 
ATOM     28  C   UNL     1     -14.752  11.024  -9.207  0.00  0.00    +0.000 A 
ATOM     29  C   UNL     1     -15.093  11.178  -7.877  0.00  0.00    +0.001 A 
ATOM     30  C   UNL     1     -14.206  10.806  -6.881  0.00  0.00    +0.010 A 
ENDBRANCH  22  25
ENDBRANCH  17  18
BRANCH   9   8
ATOM      8  C   UNL     1     -20.705  10.111  -5.548  0.00  0.00    +0.118 C 
BRANCH   8   1
ATOM      1  C   UNL     1     -21.473  10.831  -6.637  0.00  0.00    +0.103 C 
BRANCH   1   2
ATOM      2  N   UNL     1     -20.906  10.639  -7.979  0.00  0.00    -0.296 NA
ATOM      3  C   UNL     1     -20.013  11.754  -8.342  0.00  0.00    +0.112 C 
ATOM      4  C   UNL     1     -19.464  11.551  -9.734  0.00  0.00    +0.175 C 
ATOM      5  O   UNL     1     -20.512  11.453 -10.698  0.00  0.00    -0.377 OA
ATOM      6  C   UNL     1     -21.388  10.370 -10.370  0.00  0.00    +0.175 C 
ATOM      7  C   UNL     1     -21.977  10.525  -8.984  0.00  0.00    +0.112 C 
ENDBRANCH   1   2
ENDBRANCH   8   1
ENDBRANCH   9   8
TORSDOF 5
