REMARK  Name = 2JAM
REMARK  11 active torsions:
REMARK  status: ('A' for Active; 'I' for Inactive)
REMARK    1  A    between atoms: C_1  and  C_2
REMARK    2  A    between atoms: C_2  and  N_3
REMARK    3  A    between atoms: N_3  and  C_4
REMARK    4  A    between atoms: N_3  and  C_6
REMARK    5  A    between atoms: C_4  and  C_5
REMARK    6  A    between atoms: C_6  and  C_7
REMARK    7  A    between atoms: C_7  and  N_8
REMARK    8  A    between atoms: C_9  and  C_11
REMARK    9  A    between atoms: C_12  and  C_13
REMARK   10  A    between atoms: C_14  and  C_15
REMARK   11  A    between atoms: C_18  and  C_19
REMARK                            x       y       z     vdW  Elec       q    Type
REMARK                         _______ _______ _______ _____ _____    ______ ____
ROOT
ATOM      9  C   UNL     1      16.064   4.813  12.205  0.00  0.00    +0.063 C 
ATOM     10  C   UNL     1      16.908   3.993  11.462  0.00  0.00    +0.051 C 
ATOM     11  N   UNL     1      16.186   3.160  10.717  0.00  0.00    -0.251 NA
ATOM     12  C   UNL     1      14.878   3.373  10.935  0.00  0.00    +0.069 C 
ATOM     13  C   UNL     1      13.763   2.729  10.382  0.00  0.00    +0.041 C 
ATOM     25  C   UNL     1      18.436   3.975  11.452  0.00  0.00    +0.066 C 
ATOM     26  C   UNL     1      14.776   4.415  11.875  0.00  0.00    -0.011 C 
ATOM     27  C   UNL     1      13.474   5.009  12.430  0.00  0.00    +0.046 C 
ENDROOT
BRANCH  13  14
ATOM     14  C   UNL     1      13.775   1.618   9.495  0.00  0.00    +0.050 C 
ATOM     15  C   UNL     1      14.811   1.015   8.762  0.00  0.00    +0.268 C 
ATOM     16  O   UNL     1      16.014   1.306   8.753  0.00  0.00    -0.268 OA
ATOM     17  N   UNL     1      14.331   0.013   8.038  0.00  0.00    -0.176 NA
ATOM     18  C   UNL     1      13.006  -0.102   8.232  0.00  0.00    +0.065 A 
ATOM     19  C   UNL     1      12.061  -0.994   7.709  0.00  0.00    +0.027 A 
ATOM     20  C   UNL     1      10.722  -0.879   8.085  0.00  0.00    +0.022 A 
ATOM     21  C   UNL     1      10.347   0.125   8.996  0.00  0.00    +0.042 A 
ATOM     22 CL   UNL     1       8.705   0.271   9.506  0.00  0.00    -0.084 Cl
ATOM     23  C   UNL     1      11.290   1.009   9.523  0.00  0.00    +0.030 A 
ATOM     24  C   UNL     1      12.619   0.898   9.143  0.00  0.00    +0.012 A 
ENDBRANCH  13  14
BRANCH   9   8
ATOM      6  N   UNL     1      15.611   6.743  13.723  0.00  0.00    -0.310 N 
ATOM      7  H   UNL     1      14.607   6.657  13.364  0.00  0.00    +0.149 HD
ATOM      8  C   UNL     1      16.529   5.902  13.240  0.00  0.00    +0.246 C 
ATOM     28  O   UNL     1      17.695   5.915  13.620  0.00  0.00    -0.270 OA
BRANCH   6   5
ATOM      5  C   UNL     1      15.908   7.793  14.733  0.00  0.00    +0.120 C 
BRANCH   5   4
ATOM      4  C   UNL     1      15.357   7.279  16.088  0.00  0.00    +0.103 C 
BRANCH   4   3
ATOM      3  N   UNL     1      14.850   8.327  17.020  0.00  0.00    -0.301 NA
BRANCH   3   2
ATOM      1  C   UNL     1      15.677  10.189  18.417  0.00  0.00    +0.020 C 
ATOM      2  C   UNL     1      15.639   9.585  17.003  0.00  0.00    +0.081 C 
ENDBRANCH   3   2
BRANCH   3  29
ATOM     29  C   UNL     1      13.402   8.590  16.830  0.00  0.00    +0.081 C 
ATOM     30  C   UNL     1      13.089   9.190  15.448  0.00  0.00    +0.020 C 
ENDBRANCH   3  29
ENDBRANCH   4   3
ENDBRANCH   5   4
ENDBRANCH   6   5
ENDBRANCH   9   8
TORSDOF 7
