REMARK  Name = 5H0H
REMARK  14 active torsions:
REMARK  status: ('A' for Active; 'I' for Inactive)
REMARK    1  A    between atoms: C_6  and  N_37
REMARK    2  A    between atoms: N_7  and  C_23
REMARK    3  A    between atoms: C_9  and  C_10
REMARK    4  A    between atoms: C_13  and  O_16
REMARK    5  A    between atoms: O_16  and  C_17
REMARK    6  A    between atoms: C_26  and  N_29
REMARK    7  A    between atoms: N_29  and  C_30
REMARK    8  A    between atoms: C_30  and  C_31
REMARK    9  A    between atoms: C_30  and  C_32
REMARK   10  A    between atoms: C_31  and  C_38
REMARK   11  A    between atoms: N_34  and  C_35
REMARK   12  A    between atoms: N_34  and  C_36
REMARK   13  A    between atoms: C_38  and  C_39
REMARK   14  A    between atoms: C_38  and  C_40
REMARK                            x       y       z     vdW  Elec       q    Type
REMARK                         _______ _______ _______ _____ _____    ______ ____
ROOT
ATOM      1  N   UNL     1      -5.536  -4.930   2.147  0.00  0.00    -0.220 NA
ATOM      2  C   UNL     1      -4.287  -4.386   2.230  0.00  0.00    +0.129 A 
ATOM      6  C   UNL     1      -3.950  -3.163   1.623  0.00  0.00    +0.066 A 
ATOM      7  C   UNL     1      -2.816  -2.271   1.490  0.00  0.00    +0.012 A 
ATOM     21  C   UNL     1      -3.283  -1.212   0.705  0.00  0.00    +0.097 A 
ATOM     22  N   UNL     1      -4.618  -1.418   0.354  0.00  0.00    -0.328 N 
ATOM     41  C   UNL     1      -5.038  -2.581   0.916  0.00  0.00    +0.147 A 
ATOM     42  N   UNL     1      -6.306  -3.086   0.789  0.00  0.00    -0.218 NA
ATOM     43  C   UNL     1      -6.476  -4.259   1.428  0.00  0.00    +0.225 A 
ENDROOT
BRANCH   7   8
ATOM      8  C   UNL     1      -1.457  -2.327   1.948  0.00  0.00    -0.016 A 
ATOM      9  C   UNL     1      -0.702  -3.502   1.774  0.00  0.00    +0.012 A 
ATOM     10  C   UNL     1       0.641  -3.614   2.174  0.00  0.00    +0.047 A 
ATOM     11  C   UNL     1       1.283  -2.521   2.768  0.00  0.00    +0.129 A 
ATOM     19  C   UNL     1       0.553  -1.346   2.929  0.00  0.00    +0.047 A 
ATOM     20  C   UNL     1      -0.784  -1.253   2.523  0.00  0.00    +0.012 A 
BRANCH  11  12
ATOM     12  O   UNL     1       2.621  -2.604   3.149  0.00  0.00    -0.456 OA
BRANCH  12  13
ATOM     13  C   UNL     1       3.114  -2.084   4.320  0.00  0.00    +0.128 A 
ATOM     14  C   UNL     1       2.400  -2.215   5.512  0.00  0.00    +0.046 A 
ATOM     15  C   UNL     1       2.903  -1.721   6.702  0.00  0.00    +0.004 A 
ATOM     16  C   UNL     1       4.138  -1.071   6.723  0.00  0.00    +0.000 A 
ATOM     17  C   UNL     1       4.863  -0.947   5.546  0.00  0.00    +0.004 A 
ATOM     18  C   UNL     1       4.371  -1.436   4.330  0.00  0.00    +0.046 A 
ENDBRANCH  12  13
ENDBRANCH  11  12
ENDBRANCH   7   8
BRANCH  22  23
ATOM     23  C   UNL     1      -5.492  -0.524  -0.395  0.00  0.00    +0.089 C 
ATOM     24  C   UNL     1      -5.546  -0.731  -1.901  0.00  0.00    +0.027 C 
ATOM     25  C   UNL     1      -6.535   0.270  -2.537  0.00  0.00    +0.020 C 
ATOM     26  C   UNL     1      -6.159   1.734  -2.233  0.00  0.00    +0.054 C 
ATOM     39  C   UNL     1      -6.001   1.923  -0.721  0.00  0.00    +0.020 C 
ATOM     40  C   UNL     1      -5.061   0.922  -0.099  0.00  0.00    +0.027 C 
BRANCH  26  27
ATOM     27  N   UNL     1      -7.160   2.682  -2.740  0.00  0.00    -0.303 NA
ATOM     28  H   UNL     1      -6.979   3.629  -2.276  0.00  0.00    +0.123 HD
BRANCH  27  29
ATOM     29  C   UNL     1      -7.169   2.888  -4.195  0.00  0.00    +0.141 C 
BRANCH  29  30
ATOM     30  C   UNL     1      -6.111   3.974  -4.412  0.00  0.00    +0.232 C 
ATOM     31  N   UNL     1      -5.585   4.133  -5.712  0.00  0.00    -0.306 N 
ATOM     32  C   UNL     1      -4.568   5.157  -5.966  0.00  0.00    +0.131 C 
ATOM     33  C   UNL     1      -5.994   3.336  -6.870  0.00  0.00    +0.131 C 
ATOM     34  O   UNL     1      -5.699   4.675  -3.496  0.00  0.00    -0.274 OA
ENDBRANCH  29  30
BRANCH  29  35
ATOM     35  C   UNL     1      -8.571   3.335  -4.695  0.00  0.00    +0.031 C 
BRANCH  35  36
ATOM     36  C   UNL     1      -9.569   2.179  -4.700  0.00  0.00    -0.015 C 
ATOM     37  C   UNL     1      -9.386   1.310  -5.947  0.00  0.00    +0.007 C 
ATOM     38  C   UNL     1     -11.015   2.679  -4.617  0.00  0.00    +0.007 C 
ENDBRANCH  35  36
ENDBRANCH  29  35
ENDBRANCH  27  29
ENDBRANCH  26  27
ENDBRANCH  22  23
BRANCH   2   3
ATOM      3  N   UNL     1      -3.318  -5.044   2.987  0.00  0.00    -0.343 N 
ATOM      4  H   UNL     1      -2.332  -4.636   3.066  0.00  0.00    +0.144 HD
ATOM      5  H   UNL     1      -3.560  -5.957   3.489  0.00  0.00    +0.144 HD
ENDBRANCH   2   3
TORSDOF 10
