REMARK  Name = 3s2a_ligand
REMARK  5 active torsions:
REMARK  status: ('A' for Active; 'I' for Inactive)
REMARK    1  A    between atoms: C2_4  and  N4_28
REMARK    2  A    between atoms: C3_5  and  S1_29
REMARK    3  A    between atoms: C10_12  and  N3_18
REMARK    4  A    between atoms: C19_23  and  C20_24
REMARK    5  A    between atoms: N4_28  and  S1_29
REMARK                            x       y       z     vdW  Elec       q    Type
REMARK                         _______ _______ _______ _____ _____    ______ ____
ROOT
ATOM      1  N   UNL     1      26.626  12.458  22.499  0.00  0.00    -0.301 NA
ATOM      2  C   UNL     1      26.860  12.813  21.218  0.00  0.00    +0.133 A 
ATOM      3 CL   UNL     1      28.459  12.716  20.563  0.00  0.00    -0.053 Cl
ATOM      4  C   UNL     1      25.826  13.258  20.398  0.00  0.00    +0.106 A 
ATOM     17  C   UNL     1      24.542  13.315  20.927  0.00  0.00    +0.036 A 
ATOM     18  C   UNL     1      24.340  12.958  22.265  0.00  0.00    -0.011 A 
ATOM     35  C   UNL     1      25.415  12.511  23.029  0.00  0.00    +0.064 A 
ENDROOT
BRANCH  18  19
ATOM     19  C   UNL     1      23.053  12.995  22.793  0.00  0.00    -0.014 A 
ATOM     20  C   UNL     1      22.174  14.023  22.477  0.00  0.00    +0.029 A 
ATOM     21  C   UNL     1      20.875  14.015  22.986  0.00  0.00    +0.033 A 
ATOM     22  C   UNL     1      19.961  15.044  22.696  0.00  0.00    +0.075 A 
ATOM     23  C   UNL     1      18.685  14.948  23.257  0.00  0.00    +0.038 A 
ATOM     24  C   UNL     1      18.349  13.873  24.078  0.00  0.00    +0.070 A 
ATOM     25  N   UNL     1      19.228  12.916  24.333  0.00  0.00    -0.320 NA
ATOM     32  C   UNL     1      20.466  12.956  23.815  0.00  0.00    +0.032 A 
ATOM     33  C   UNL     1      21.343  11.929  24.130  0.00  0.00    +0.017 A 
ATOM     34  C   UNL     1      22.629  11.950  23.610  0.00  0.00    +0.014 A 
BRANCH  22  26
ATOM     26  N   UNL     1      20.265  16.161  21.870  0.00  0.00    -0.290 N 
ATOM     27  C   UNL     1      19.184  16.768  21.048  0.00  0.00    +0.166 C 
ATOM     28  C   UNL     1      19.349  18.292  20.970  0.00  0.00    +0.184 C 
ATOM     29  O   UNL     1      20.693  18.582  20.532  0.00  0.00    -0.376 OA
ATOM     30  C   UNL     1      21.635  18.259  21.567  0.00  0.00    +0.184 C 
ATOM     31  C   UNL     1      21.645  16.745  21.821  0.00  0.00    +0.166 C 
ENDBRANCH  22  26
ENDBRANCH  18  19
BRANCH   4   5
ATOM      5  N   UNL     1      26.109  13.581  19.129  0.00  0.00    -0.181 N 
ATOM      6  H   UNL     1      26.778  12.985  18.641  0.00  0.00    +0.218 HD
BRANCH   5   7
ATOM      7  S   UNL     1      25.486  14.840  18.284  0.00  0.00    +0.089 S 
ATOM      8  O   UNL     1      26.262  15.003  17.010  0.00  0.00    -0.145 OA
ATOM      9  O   UNL     1      24.045  14.568  17.970  0.00  0.00    -0.145 OA
BRANCH   7  10
ATOM     10  C   UNL     1      25.664  16.298  19.163  0.00  0.00    +0.110 A 
ATOM     11  C   UNL     1      24.610  17.206  19.217  0.00  0.00    +0.026 A 
ATOM     12  C   UNL     1      24.768  18.389  19.933  0.00  0.00    +0.034 A 
ATOM     13  C   UNL     1      25.979  18.650  20.573  0.00  0.00    +0.133 A 
ATOM     14  F   UNL     1      26.127  19.789  21.268  0.00  0.00    -0.183 F 
ATOM     15  C   UNL     1      27.036  17.739  20.509  0.00  0.00    +0.034 A 
ATOM     16  C   UNL     1      26.877  16.555  19.795  0.00  0.00    +0.026 A 
ENDBRANCH   7  10
ENDBRANCH   5   7
ENDBRANCH   4   5
TORSDOF 5
