REMARK  Name = KFD
REMARK  4 active torsions:
REMARK  status: ('A' for Active; 'I' for Inactive)
REMARK    1  A    between atoms: NAK_6  and  CAJ_7
REMARK    2  A    between atoms: CAD_21  and  NAC_22
REMARK    3  A    between atoms: CAB_23  and  CAW_25
REMARK    4  A    between atoms: CBA_30  and  CBC_31
REMARK                            x       y       z     vdW  Elec       q    Type
REMARK                         _______ _______ _______ _____ _____    ______ ____
ROOT
ATOM      7  C   UNL     1     160.632   7.234   5.152  0.00  0.00    +0.067 A 
ATOM      8  C   UNL     1     159.836   7.376   6.294  0.00  0.00    +0.055 A 
ATOM      9  C   UNL     1     159.454   6.255   6.936  0.00  0.00    +0.167 A 
ATOM     10  O   UNL     1     158.716   6.047   8.118  0.00  0.00    -0.424 OA
ATOM     11  C   UNL     1     158.727   4.708   8.297  0.00  0.00    +0.292 A 
ATOM     12  N   UNL     1     158.090   4.076   9.280  0.00  0.00    -0.259 N 
ATOM     13  C   UNL     1     157.253   4.880  10.256  0.00  0.00    +0.127 C 
ATOM     14  C   UNL     1     157.588   4.477  11.656  0.00  0.00    +0.164 C 
ATOM     15  O   UNL     1     157.756   3.000  11.798  0.00  0.00    -0.350 OA
ATOM     16  C   UNL     1     158.153   2.092  10.750  0.00  0.00    +0.164 C 
ATOM     17  C   UNL     1     158.021   2.587   9.251  0.00  0.00    +0.127 C 
ATOM     18  N   UNL     1     159.311   4.091   7.261  0.00  0.00    -0.195 NA
ATOM     19  C   UNL     1     159.807   5.001   6.460  0.00  0.00    +0.122 A 
ATOM     20  C   UNL     1     160.542   4.831   5.366  0.00  0.00    +0.040 A 
ATOM     21  C   UNL     1     160.934   5.937   4.634  0.00  0.00    +0.089 A 
ENDROOT
BRANCH   7   6
ATOM      1  C   UNL     1     161.870   9.329   5.356  0.00  0.00    +0.091 C 
ATOM      2  C   UNL     1     162.396  10.495   4.579  0.00  0.00    +0.021 C 
ATOM      3  C   UNL     1     161.194  11.155   3.886  0.00  0.00    +0.004 C 
ATOM      4  C   UNL     1     160.628  10.152   2.909  0.00  0.00    +0.021 C 
ATOM      5  C   UNL     1     160.056   9.002   3.632  0.00  0.00    +0.091 C 
ATOM      6  N   UNL     1     160.981   8.419   4.568  0.00  0.00    -0.306 N 
ENDBRANCH   7   6
BRANCH  21  22
ATOM     22  N   UNL     1     161.711   5.913   3.497  0.00  0.00    -0.173 NA
ATOM     23  C   UNL     1     162.130   4.825   2.806  0.00  0.00    +0.287 C 
ATOM     24  O   UNL     1     161.887   3.629   3.035  0.00  0.00    -0.266 OA
BRANCH  23  25
ATOM     25  C   UNL     1     163.016   5.219   1.754  0.00  0.00    +0.136 A 
ATOM     26  N   UNL     1     163.136   6.498   1.404  0.00  0.00    -0.241 NA
ATOM     27  C   UNL     1     163.970   6.904   0.424  0.00  0.00    +0.083 A 
ATOM     37  C   UNL     1     164.767   5.966  -0.227  0.00  0.00    +0.019 A 
ATOM     38  C   UNL     1     164.701   4.639   0.132  0.00  0.00    +0.003 A 
ATOM     39  C   UNL     1     163.800   4.295   1.127  0.00  0.00    +0.024 A 
BRANCH  27  28
ATOM     28  C   UNL     1     164.097   8.242   0.057  0.00  0.00    +0.037 A 
ATOM     29  C   UNL     1     163.944   9.255   1.005  0.00  0.00    +0.006 A 
ATOM     30  C   UNL     1     164.138  10.527   0.641  0.00  0.00    +0.037 A 
ATOM     31  C   UNL     1     164.069  11.679   1.356  0.00  0.00    +0.024 A 
ATOM     32  C   UNL     1     164.345  12.711   0.539  0.00  0.00    +0.101 A 
ATOM     33  N   UNL     1     164.568  12.213  -0.665  0.00  0.00    -0.225 NA
ATOM     34  C   UNL     1     164.461  10.885  -0.621  0.00  0.00    +0.162 A 
ATOM     35  N   UNL     1     164.645   9.987  -1.596  0.00  0.00    -0.225 NA
ATOM     36  C   UNL     1     164.442   8.620  -1.262  0.00  0.00    +0.102 A 
ENDBRANCH  27  28
ENDBRANCH  23  25
ENDBRANCH  21  22
TORSDOF 4
