REMARK  Name = 3sqq_ligand
REMARK  7 active torsions:
REMARK  status: ('A' for Active; 'I' for Inactive)
REMARK    1  A    between atoms: N02_2  and  C08_8
REMARK    2  A    between atoms: N03_3  and  C06_6
REMARK    3  A    between atoms: N04_4  and  S26_26
REMARK    4  A    between atoms: C05_5  and  C09_9
REMARK    5  A    between atoms: C09_9  and  C10_10
REMARK    6  A    between atoms: C11_11  and  C21_21
REMARK    7  A    between atoms: C18_18  and  S26_26
REMARK                            x       y       z     vdW  Elec       q    Type
REMARK                         _______ _______ _______ _____ _____    ______ ____
ROOT
ATOM      1  N   UNL     1     -95.703  10.611 -50.395  0.00  0.00    -0.272 NA
ATOM      2  C   UNL     1     -95.980  10.420 -49.061  0.00  0.00    +0.204 A 
ATOM      3  S   UNL     1     -94.984   9.305 -48.336  0.00  0.00    +0.010 S 
ATOM      4  C   UNL     1     -94.141   8.976 -49.702  0.00  0.00    +0.091 A 
ATOM     14  N   UNL     1     -97.026  11.169 -48.535  0.00  0.00    -0.233 N 
ATOM     15  H   UNL     1     -97.232  12.062 -49.006  0.00  0.00    +0.224 HD
ATOM     28  C   UNL     1     -94.599   9.757 -50.801  0.00  0.00    +0.084 A 
ENDROOT
BRANCH  14  16
ATOM     16  C   UNL     1     -97.834  10.844 -47.432  0.00  0.00    +0.070 A 
ATOM     17  C   UNL     1     -98.816  11.810 -47.142  0.00  0.00    +0.019 A 
ATOM     18  C   UNL     1     -99.673  11.576 -46.082  0.00  0.00    +0.016 A 
ATOM     19  C   UNL     1     -99.523  10.394 -45.344  0.00  0.00    +0.097 A 
ATOM     26  C   UNL     1     -98.540   9.433 -45.622  0.00  0.00    +0.016 A 
ATOM     27  C   UNL     1     -97.670   9.653 -46.690  0.00  0.00    +0.019 A 
BRANCH  19  20
ATOM     20  S   UNL     1    -100.637  10.124 -44.038  0.00  0.00    +0.061 S 
ATOM     21  O   UNL     1    -101.458   9.006 -44.485  0.00  0.00    -0.152 OA
ATOM     22  O   UNL     1    -100.973  11.331 -43.296  0.00  0.00    -0.152 OA
BRANCH  20  23
ATOM     23  N   UNL     1     -99.965   9.332 -42.829  0.00  0.00    -0.262 NA
ATOM     24  H   UNL     1     -99.006   9.054 -42.885  0.00  0.00    +0.163 HD
ATOM     25  H   UNL     1    -100.502   9.113 -42.014  0.00  0.00    +0.163 HD
ENDBRANCH  20  23
ENDBRANCH  19  20
ENDBRANCH  14  16
BRANCH  28  29
ATOM     29  N   UNL     1     -94.087   9.707 -52.097  0.00  0.00    -0.332 N 
ATOM     30  H   UNL     1     -94.494  10.299 -52.835  0.00  0.00    +0.174 HD
ATOM     31  H   UNL     1     -93.302   9.078 -52.316  0.00  0.00    +0.174 HD
ENDBRANCH  28  29
BRANCH   4   5
ATOM      5  C   UNL     1     -93.020   7.993 -49.904  0.00  0.00    +0.125 C 
ATOM      6  O   UNL     1     -92.492   7.880 -51.025  0.00  0.00    -0.406 OA
BRANCH   5   7
ATOM      7  C   UNL     1     -92.605   7.152 -48.739  0.00  0.00    +0.025 A 
ATOM      8  C   UNL     1     -93.616   6.323 -48.163  0.00  0.00    +0.013 A 
ATOM      9  C   UNL     1     -93.301   5.500 -47.046  0.00  0.00    -0.006 A 
ATOM     10  C   UNL     1     -91.984   5.530 -46.536  0.00  0.00    -0.001 A 
ATOM     11  C   UNL     1     -90.994   6.347 -47.115  0.00  0.00    +0.002 A 
ATOM     12  C   UNL     1     -91.276   7.174 -48.225  0.00  0.00    -0.029 A 
ATOM     13  C   UNL     1     -90.175   8.056 -48.828  0.00  0.00    +0.094 C 
ENDBRANCH   5   7
ENDBRANCH   4   5
TORSDOF 6
