REMARK  Name = 1p2a_ligand
REMARK  5 active torsions:
REMARK  status: ('A' for Active; 'I' for Inactive)
REMARK    1  A    between atoms: N22_1  and  C21_2
REMARK    2  A    between atoms: C21_2  and  C20_3
REMARK    3  A    between atoms: C20_3  and  N19_4
REMARK    4  A    between atoms: N19_4  and  C7_5
REMARK    5  A    between atoms: C9_7  and  C14_8
REMARK                            x       y       z     vdW  Elec       q    Type
REMARK                         _______ _______ _______ _____ _____    ______ ____
ROOT
ATOM      9  C   UNL     1      14.058  -7.719  10.573  0.00  0.00    +0.054 A 
ATOM     10  C   UNL     1      14.607  -7.995  11.902  0.00  0.00    +0.034 A 
ATOM     11  C   UNL     1      13.831  -8.902  12.713  0.00  0.00    +0.007 A 
ATOM     12  C   UNL     1      14.186  -9.306  14.045  0.00  0.00    +0.065 A 
ATOM     13  C   UNL     1      15.355  -8.791  14.606  0.00  0.00    -0.001 A 
ATOM     14  C   UNL     1      16.159  -7.885  13.837  0.00  0.00    +0.005 A 
ATOM     15  N   UNL     1      13.220 -10.196  14.547  0.00  0.00    -0.242 N 
ATOM     16  H   UNL     1      13.233 -10.627  15.449  0.00  0.00    +0.223 HD
ATOM     17  C   UNL     1      12.227 -10.376  13.555  0.00  0.00    +0.209 A 
ATOM     18  O   UNL     1      11.249 -11.087  13.680  0.00  0.00    -0.388 OA
ATOM     19  C   UNL     1      12.638  -9.524  12.374  0.00  0.00    +0.039 A 
ATOM     20  C   UNL     1      12.031  -9.281  11.066  0.00  0.00    -0.004 A 
ATOM     27  C   UNL     1      15.826  -7.480  12.523  0.00  0.00    +0.124 A 
ATOM     28  F   UNL     1      16.654  -6.625  11.892  0.00  0.00    -0.194 F 
ATOM     29  C   UNL     1      12.817  -8.351  10.207  0.00  0.00    +0.010 A 
ENDROOT
BRANCH  20  21
ATOM     21  C   UNL     1      10.788  -9.826  10.556  0.00  0.00    +0.059 A 
ATOM     22  N   UNL     1       9.943 -10.670  11.186  0.00  0.00    -0.285 N 
ATOM     23  H   UNL     1      10.100 -11.036  12.136  0.00  0.00    +0.233 HD
ATOM     24  C   UNL     1       8.844 -10.986  10.412  0.00  0.00    +0.109 A 
ATOM     25  C   UNL     1       8.977 -10.317   9.216  0.00  0.00    -0.043 A 
ATOM     26  C   UNL     1      10.178  -9.591   9.285  0.00  0.00    -0.034 A 
ENDBRANCH  20  21
BRANCH   9   7
ATOM      7  N   UNL     1      14.654  -6.841   9.579  0.00  0.00    -0.311 N 
ATOM      8  H   UNL     1      15.456  -6.276   9.893  0.00  0.00    +0.181 HD
BRANCH   7   6
ATOM      6  C   UNL     1      14.235  -6.663   8.146  0.00  0.00    +0.181 C 
BRANCH   6   5
ATOM      5  C   UNL     1      14.535  -5.279   7.503  0.00  0.00    +0.152 C 
BRANCH   5   1
ATOM      1  N   UNL     1      14.248  -4.165   8.414  0.00  0.00    +0.220 N 
ATOM      2  H   UNL     1      13.274  -4.184   8.671  0.00  0.00    +0.200 HD
ATOM      3  H   UNL     1      14.816  -4.253   9.242  0.00  0.00    +0.200 HD
ATOM      4  H   UNL     1      14.457  -3.293   7.954  0.00  0.00    +0.200 HD
ENDBRANCH   5   1
ENDBRANCH   6   5
ENDBRANCH   7   6
ENDBRANCH   9   7
TORSDOF 5
