REMARK  Name = 3CSF
REMARK  2 active torsions:
REMARK  status: ('A' for Active; 'I' for Inactive)
REMARK    1  A    between atoms: C_2  and  RU_3
REMARK    2  A    between atoms: C_17  and  O_20
REMARK                            x       y       z     vdW  Elec       q    Type
REMARK                         _______ _______ _______ _____ _____    ______ ____
ROOT
ATOM      3 RU   UNL     1      48.535  19.147  33.222  0.00  0.00    +0.000 Ru
ATOM      4  N   UNL     1      48.967  17.681  31.874  0.00  0.00    +0.000 N 
ATOM      5  C   UNL     1      47.867  16.936  31.658  0.00  0.00    +0.000 A 
ATOM      6  C   UNL     1      46.665  17.239  32.325  0.00  0.00    +0.000 A 
ATOM      7  C   UNL     1      45.495  16.435  32.095  0.00  0.00    +0.000 A 
ATOM      8  C   UNL     1      45.664  15.339  31.134  0.00  0.00    +0.000 A 
ATOM      9  C   UNL     1      44.784  14.370  30.645  0.00  0.00    +0.000 A 
ATOM     10  O   UNL     1      43.617  14.182  30.917  0.00  0.00    +0.000 OA
ATOM     11  N   UNL     1      45.435  13.568  29.753  0.00  0.00    +0.000 N 
ATOM     12  H   UNL     1      45.002  12.744  29.226  0.00  0.00    +0.000 HD
ATOM     13  C   UNL     1      46.724  13.987  29.643  0.00  0.00    +0.000 A 
ATOM     14  O   UNL     1      47.519  13.452  28.913  0.00  0.00    +0.000 OA
ATOM     15  C   UNL     1      46.930  15.097  30.464  0.00  0.00    +0.000 A 
ATOM     16  C   UNL     1      44.330  16.839  32.843  0.00  0.00    +0.000 C 
ATOM     17  C   UNL     1      44.386  17.956  33.747  0.00  0.00    +0.000 C 
ATOM     18  C   UNL     1      45.606  18.694  33.911  0.00  0.00    +0.000 C 
ATOM     19  C   UNL     1      48.075  15.904  30.743  0.00  0.00    +0.000 A 
ATOM     20  C   UNL     1      49.427  16.035  30.379  0.00  0.00    +0.000 A 
ATOM     21  C   UNL     1      50.258  15.288  29.494  0.00  0.00    +0.000 A 
ATOM     22  C   UNL     1      51.642  15.643  29.322  0.00  0.00    +0.000 A 
ATOM     25  C   UNL     1      52.173  16.758  30.038  0.00  0.00    +0.000 A 
ATOM     26  C   UNL     1      51.332  17.507  30.923  0.00  0.00    +0.000 A 
ATOM     27  C   UNL     1      49.968  17.127  31.062  0.00  0.00    +0.000 A 
ATOM     28  N   UNL     1      46.722  18.325  33.208  0.00  0.00    +0.000 N 
ATOM     29  C   UNL     1      50.293  18.675  34.311  0.00  0.00    +0.000 C 
ATOM     30  C   UNL     1      49.198  18.570  35.157  0.00  0.00    +0.000 C 
ATOM     31  C   UNL     1      48.591  19.819  35.239  0.00  0.00    +0.000 C 
ATOM     32  C   UNL     1      49.308  20.698  34.446  0.00  0.00    +0.000 C 
ATOM     33  C   UNL     1      50.365  19.996  33.866  0.00  0.00    +0.000 C 
ENDROOT
BRANCH   3   2
ATOM      1  O   UNL     1      48.063  21.186  30.828  0.00  0.00    +0.000 OA
ATOM      2  C   UNL     1      48.250  20.467  31.680  0.00  0.00    +0.000 C 
ENDBRANCH   3   2
BRANCH  22  23
ATOM     23  O   UNL     1      52.397  14.896  28.471  0.00  0.00    +0.000 OA
ATOM     24  H   UNL     1      52.413  13.899  28.800  0.00  0.00    +0.000 HD
ENDBRANCH  22  23
TORSDOF 2
