REMARK  Name = 4G5P
REMARK  11 active torsions:
REMARK  status: ('A' for Active; 'I' for Inactive)
REMARK    1  A    between atoms: C_4  and  N_11
REMARK    2  A    between atoms: C_7  and  N_26
REMARK    3  A    between atoms: C_9  and  O_20
REMARK    4  A    between atoms: N_11  and  C_16
REMARK    5  A    between atoms: O_20  and  C_21
REMARK    6  A    between atoms: C_27  and  C_28
REMARK    7  A    between atoms: C_28  and  C_30
REMARK    8  A    between atoms: C_30  and  C_31
REMARK    9  A    between atoms: C_31  and  N_32
REMARK   10  A    between atoms: N_32  and  C_33
REMARK   11  A    between atoms: N_32  and  C_34
REMARK                            x       y       z     vdW  Elec       q    Type
REMARK                         _______ _______ _______ _____ _____    ______ ____
ROOT
ATOM      1  C   UNL     1      -7.041  19.709  30.157  0.00  0.00    +0.224 A 
ATOM      2  N   UNL     1      -7.190  18.596  30.951  0.00  0.00    -0.235 NA
ATOM      3  C   UNL     1      -8.395  18.353  31.581  0.00  0.00    +0.080 A 
ATOM      4  C   UNL     1      -8.476  17.229  32.367  0.00  0.00    +0.076 A 
ATOM      5  C   UNL     1      -9.652  16.905  33.022  0.00  0.00    +0.144 A 
ATOM     12  C   UNL     1     -10.777  17.729  32.897  0.00  0.00    +0.076 A 
ATOM     23  C   UNL     1     -10.684  18.878  32.105  0.00  0.00    +0.040 A 
ATOM     24  C   UNL     1      -9.492  19.203  31.432  0.00  0.00    +0.042 A 
ATOM     25  C   UNL     1      -9.326  20.335  30.613  0.00  0.00    +0.134 A 
ATOM     36  N   UNL     1      -8.107  20.561  29.996  0.00  0.00    -0.220 NA
ENDROOT
BRANCH  12  13
ATOM     13  N   UNL     1     -11.964  17.359  33.626  0.00  0.00    -0.283 N 
ATOM     14  H   UNL     1     -11.730  16.921  34.574  0.00  0.00    +0.155 HD
ATOM     15  C   UNL     1     -13.351  17.428  33.408  0.00  0.00    +0.217 C 
ATOM     16  O   UNL     1     -13.820  17.856  32.373  0.00  0.00    -0.276 OA
BRANCH  15  17
ATOM     17  C   UNL     1     -14.247  16.928  34.516  0.00  0.00    +0.097 C 
BRANCH  17  18
ATOM     18  C   UNL     1     -14.961  18.083  35.296  0.00  0.00    +0.024 C 
BRANCH  18  19
ATOM     19  C   UNL     1     -16.513  18.016  35.315  0.00  0.00    +0.084 C 
BRANCH  19  20
ATOM     20  N   UNL     1     -17.161  19.027  34.431  0.00  0.00    -0.308 NA
ATOM     21  C   UNL     1     -18.494  19.458  34.915  0.00  0.00    +0.104 C 
ATOM     22  C   UNL     1     -17.307  18.539  33.039  0.00  0.00    +0.104 C 
ENDBRANCH  19  20
ENDBRANCH  18  19
ENDBRANCH  17  18
ENDBRANCH  15  17
ENDBRANCH  12  13
BRANCH  25  26
ATOM     26  N   UNL     1     -10.381  21.241  30.319  0.00  0.00    -0.299 N 
ATOM     27  H   UNL     1     -11.234  21.229  30.965  0.00  0.00    +0.154 HD
BRANCH  26  28
ATOM     28  C   UNL     1     -10.396  22.168  29.230  0.00  0.00    +0.034 A 
ATOM     29  C   UNL     1     -11.510  22.999  29.169  0.00  0.00    +0.026 A 
ATOM     30  C   UNL     1     -11.620  23.962  28.183  0.00  0.00    +0.041 A 
ATOM     31  C   UNL     1     -10.618  24.101  27.233  0.00  0.00    +0.142 A 
ATOM     32  F   UNL     1     -10.742  25.035  26.300  0.00  0.00    -0.204 F 
ATOM     33  C   UNL     1      -9.497  23.277  27.260  0.00  0.00    +0.078 A 
ATOM     34 CL   UNL     1      -8.245  23.449  26.066  0.00  0.00    -0.081 Cl
ATOM     35  C   UNL     1      -9.395  22.311  28.256  0.00  0.00    +0.046 A 
ENDBRANCH  26  28
ENDBRANCH  25  26
BRANCH   5   6
ATOM      6  O   UNL     1      -9.704  15.777  33.796  0.00  0.00    -0.484 OA
BRANCH   6   7
ATOM      7  C   UNL     1      -9.079  14.526  33.498  0.00  0.00    +0.201 C 
ATOM      8  C   UNL     1      -9.622  13.411  34.356  0.00  0.00    +0.075 C 
ATOM      9  C   UNL     1     -10.032  12.322  33.381  0.00  0.00    +0.163 C 
ATOM     10  O   UNL     1      -9.433  12.608  32.123  0.00  0.00    -0.376 OA
ATOM     11  C   UNL     1      -9.355  14.029  32.075  0.00  0.00    +0.204 C 
ENDBRANCH   6   7
ENDBRANCH   5   6
TORSDOF 9
