REMARK  Name = 3nzu_ligand
REMARK  7 active torsions:
REMARK  status: ('A' for Active; 'I' for Inactive)
REMARK    1  A    between atoms: C1_1  and  N2_2
REMARK    2  A    between atoms: C9_9  and  C11_11
REMARK    3  A    between atoms: N21_20  and  C22_21
REMARK    4  A    between atoms: C22_21  and  C23_22
REMARK    5  A    between atoms: C23_22  and  C24_23
REMARK    6  A    between atoms: C24_23  and  S25_24
REMARK    7  A    between atoms: S25_24  and  C28_27
REMARK                            x       y       z     vdW  Elec       q    Type
REMARK                         _______ _______ _______ _____ _____    ______ ____
ROOT
ATOM      1  C   UNL     1      21.542  11.597  24.542  0.00  0.00    +0.234 C 
ATOM      2  N   UNL     1      20.714  12.642  24.013  0.00  0.00    -0.188 N 
ATOM      3  N   UNL     1      19.409  12.870  24.337  0.00  0.00    -0.202 NA
ATOM      4  C   UNL     1      18.994  13.883  23.688  0.00  0.00    +0.103 A 
ATOM      5  C   UNL     1      20.021  14.356  22.879  0.00  0.00    +0.078 A 
ATOM      6  C   UNL     1      20.175  15.393  21.968  0.00  0.00    +0.127 A 
ATOM      7  N   UNL     1      19.162  16.259  21.695  0.00  0.00    -0.299 N 
ATOM      8  H   UNL     1      18.349  16.272  22.311  0.00  0.00    +0.188 HD
ATOM     16  N   UNL     1      21.319  15.533  21.387  0.00  0.00    -0.264 NA
ATOM     17  C   UNL     1      22.296  14.729  21.654  0.00  0.00    +0.090 A 
ATOM     28  N   UNL     1      22.203  13.760  22.487  0.00  0.00    -0.267 NA
ATOM     29  C   UNL     1      21.097  13.541  23.119  0.00  0.00    +0.159 A 
ENDROOT
BRANCH  17  18
ATOM     18  C   UNL     1      23.560  14.903  20.970  0.00  0.00    +0.009 A 
ATOM     19  C   UNL     1      24.672  14.166  21.351  0.00  0.00    +0.022 A 
ATOM     20  C   UNL     1      24.904  13.220  22.340  0.00  0.00    +0.096 A 
ATOM     21  N   UNL     1      26.125  12.847  22.266  0.00  0.00    -0.204 NA
ATOM     22  N   UNL     1      26.750  13.524  21.247  0.00  0.00    -0.211 N 
ATOM     23  H   UNL     1      27.728  13.421  20.976  0.00  0.00    +0.246 HD
ATOM     24  C   UNL     1      25.859  14.343  20.669  0.00  0.00    +0.092 A 
ATOM     25  C   UNL     1      25.934  15.230  19.626  0.00  0.00    +0.029 A 
ATOM     26  C   UNL     1      24.834  15.931  19.258  0.00  0.00    -0.005 A 
ATOM     27  C   UNL     1      23.650  15.767  19.920  0.00  0.00    +0.002 A 
ENDBRANCH  17  18
BRANCH   7   9
ATOM      9  C   UNL     1      19.191  17.166  20.562  0.00  0.00    +0.138 C 
BRANCH   9  10
ATOM     10  C   UNL     1      18.269  18.350  20.866  0.00  0.00    +0.048 C 
BRANCH  10  11
ATOM     11  C   UNL     1      19.034  19.477  21.564  0.00  0.00    +0.167 C 
BRANCH  11  12
ATOM     12  S   UNL     1      18.119  21.038  21.623  0.00  0.00    -0.034 S 
ATOM     13  C   UNL     1      17.145  20.897  20.125  0.00  0.00    +0.194 C 
ATOM     14  O   UNL     1      19.002  22.108  21.506  0.00  0.00    -0.175 OA
ATOM     15  O   UNL     1      17.284  21.039  22.725  0.00  0.00    -0.175 OA
ENDBRANCH  11  12
ENDBRANCH  10  11
ENDBRANCH   9  10
ENDBRANCH   7   9
TORSDOF 5
