REMARK  Name = 1ke6_ligand
REMARK  6 active torsions:
REMARK  status: ('A' for Active; 'I' for Inactive)
REMARK    1  A    between atoms: N12_11  and  N19_15
REMARK    2  A    between atoms: N19_15  and  C21_16
REMARK    3  A    between atoms: C24_19  and  C29_22
REMARK    4  A    between atoms: C29_22  and  S34_23
REMARK    5  A    between atoms: S34_23  and  N37_26
REMARK    6  A    between atoms: N37_26  and  C39_27
REMARK                            x       y       z     vdW  Elec       q    Type
REMARK                         _______ _______ _______ _____ _____    ______ ____
ROOT
ATOM      1  N   UNL     1      26.550  15.569  13.408  0.00  0.00    -0.235 N 
ATOM      2  H   UNL     1      26.270  16.526  13.490  0.00  0.00    +0.225 HD
ATOM      3  C   UNL     1      26.096  14.694  12.460  0.00  0.00    +0.243 C 
ATOM      4  C   UNL     1      26.791  13.385  12.628  0.00  0.00    +0.143 C 
ATOM      5  C   UNL     1      27.655  13.573  13.764  0.00  0.00    +0.040 A 
ATOM      6  C   UNL     1      28.582  12.657  14.433  0.00  0.00    +0.054 A 
ATOM      7  C   UNL     1      29.293  13.143  15.676  0.00  0.00    +0.024 A 
ATOM      8  C   UNL     1      29.087  14.513  16.156  0.00  0.00    -0.009 A 
ATOM      9  C   UNL     1      28.173  15.435  15.419  0.00  0.00    +0.001 A 
ATOM     10  N   UNL     1      30.064  12.093  16.186  0.00  0.00    -0.304 NA
ATOM     11  C   UNL     1      30.034  10.952  15.446  0.00  0.00    +0.195 A 
ATOM     12  S   UNL     1      29.034  11.061  14.064  0.00  0.00    -0.005 S 
ATOM     13  N   UNL     1      26.588  12.205  11.811  0.00  0.00    -0.172 NA
ATOM     29  O   UNL     1      25.261  14.873  11.572  0.00  0.00    -0.372 OA
ATOM     30  C   UNL     1      27.445  14.938  14.228  0.00  0.00    +0.068 A 
ENDROOT
BRANCH  13  14
ATOM     14  N   UNL     1      26.190  12.220  10.624  0.00  0.00    -0.210 N 
ATOM     15  H   UNL     1      26.038  13.140  10.186  0.00  0.00    +0.235 HD
BRANCH  14  16
ATOM     16  C   UNL     1      25.942  11.117   9.867  0.00  0.00    +0.072 A 
ATOM     17  C   UNL     1      24.670  11.085   9.106  0.00  0.00    +0.010 A 
ATOM     18  C   UNL     1      24.274   9.851   8.395  0.00  0.00    -0.014 A 
ATOM     19  C   UNL     1      25.170   8.665   8.412  0.00  0.00    -0.031 A 
ATOM     20  C   UNL     1      26.427   8.691   9.190  0.00  0.00    -0.014 A 
ATOM     28  C   UNL     1      26.864   9.929   9.823  0.00  0.00    +0.010 A 
BRANCH  19  21
ATOM     21  C   UNL     1      24.891   7.467   7.550  0.00  0.00    +0.245 C 
BRANCH  21  22
ATOM     22  S   UNL     1      26.010   7.189   6.174  0.00  0.00    +0.047 S 
ATOM     23  O   UNL     1      26.331   8.456   5.564  0.00  0.00    -0.154 OA
ATOM     24  O   UNL     1      25.488   6.138   5.339  0.00  0.00    -0.154 OA
BRANCH  22  25
ATOM     25  N   UNL     1      27.428   6.577   6.750  0.00  0.00    -0.253 NA
ATOM     26  H   UNL     1      28.280   7.054   6.532  0.00  0.00    +0.167 HD
ATOM     27  C   UNL     1      27.491   5.373   7.561  0.00  0.00    +0.147 C 
ENDBRANCH  22  25
ENDBRANCH  21  22
ENDBRANCH  19  21
ENDBRANCH  14  16
ENDBRANCH  13  14
TORSDOF 5
