REMARK  Name = 3unz_ligand
REMARK  4 active torsions:
REMARK  status: ('A' for Active; 'I' for Inactive)
REMARK    1  A    between atoms: N01_2  and  C09_10
REMARK    2  A    between atoms: N04_5  and  C13_14
REMARK    3  A    between atoms: N04_5  and  C16_17
REMARK    4  A    between atoms: C06_7  and  C11_12
REMARK                            x       y       z     vdW  Elec       q    Type
REMARK                         _______ _______ _______ _____ _____    ______ ____
ROOT
ATOM     10  C   UNL     1     -28.414   8.660   9.560  0.00  0.00    +0.134 A 
ATOM     11  C   UNL     1     -27.329   7.884   9.964  0.00  0.00    +0.057 A 
ATOM     12  C   UNL     1     -27.410   7.122  11.127  0.00  0.00    +0.086 A 
ATOM     13  N   UNL     1     -28.550   7.161  11.834  0.00  0.00    -0.269 NA
ATOM     14  C   UNL     1     -29.583   7.909  11.422  0.00  0.00    +0.196 A 
ATOM     15  N   UNL     1     -30.762   7.895  12.231  0.00  0.00    -0.243 N 
ATOM     16  H   UNL     1     -30.694   7.437  13.140  0.00  0.00    +0.219 HD
ATOM     26  N   UNL     1     -29.529   8.650  10.311  0.00  0.00    -0.234 NA
ENDROOT
BRANCH  15  17
ATOM     17  C   UNL     1     -32.031   8.464  11.884  0.00  0.00    +0.068 A 
ATOM     18  C   UNL     1     -32.164   9.489  10.958  0.00  0.00    +0.020 A 
ATOM     19  C   UNL     1     -33.424  10.009  10.685  0.00  0.00    +0.005 A 
ATOM     20  C   UNL     1     -34.546   9.504  11.339  0.00  0.00    -0.002 A 
ATOM     24  C   UNL     1     -34.406   8.486  12.266  0.00  0.00    +0.005 A 
ATOM     25  C   UNL     1     -33.151   7.974  12.536  0.00  0.00    +0.020 A 
BRANCH  20  21
ATOM     21  C   UNL     1     -35.913  10.037  11.064  0.00  0.00    +0.055 C 
ATOM     22  O   UNL     1     -36.141  10.697  10.016  0.00  0.00    -0.564 OA
ATOM     23  O   UNL     1     -36.839   9.822  11.886  0.00  0.00    -0.564 OA
ENDBRANCH  20  21
ENDBRANCH  15  17
BRANCH  10   8
ATOM      8  N   UNL     1     -28.344   9.439   8.365  0.00  0.00    -0.256 N 
ATOM      9  H   UNL     1     -27.642   9.219   7.658  0.00  0.00    +0.215 HD
BRANCH   8   7
ATOM      1  F   UNL     1     -27.605  12.054   8.831  0.00  0.00    -0.191 F 
ATOM      2  C   UNL     1     -28.839  11.824   8.397  0.00  0.00    +0.155 A 
ATOM      3  C   UNL     1     -29.712  12.879   8.187  0.00  0.00    +0.020 A 
ATOM      4  C   UNL     1     -30.999  12.631   7.734  0.00  0.00    -0.024 A 
ATOM      5  C   UNL     1     -31.410  11.329   7.492  0.00  0.00    -0.020 A 
ATOM      6  C   UNL     1     -30.535  10.277   7.700  0.00  0.00    +0.013 A 
ATOM      7  C   UNL     1     -29.250  10.525   8.152  0.00  0.00    +0.098 A 
ENDBRANCH   8   7
ENDBRANCH  10   8
TORSDOF 4
