REMARK  Name = 3blr_ligand
REMARK  6 active torsions:
REMARK  status: ('A' for Active; 'I' for Inactive)
REMARK    1  A    between atoms: C1_1  and  N1_2
REMARK    2  A    between atoms: C14_5  and  C8_8
REMARK    3  A    between atoms: C13_6  and  O3_28
REMARK    4  A    between atoms: C2_11  and  C21_21
REMARK    5  A    between atoms: C5_16  and  O5_17
REMARK    6  A    between atoms: C7_19  and  O7_20
REMARK                            x       y       z     vdW  Elec       q    Type
REMARK                         _______ _______ _______ _____ _____    ______ ____
ROOT
ATOM      9  C   UNL     1      51.484 -16.397 -12.750  0.00  0.00    +0.023 A 
ATOM     10  C   UNL     1      50.522 -15.385 -12.802  0.00  0.00    +0.080 A 
ATOM     13  C   UNL     1      50.899 -14.091 -13.148  0.00  0.00    +0.024 A 
ATOM     14  C   UNL     1      52.228 -13.777 -13.406  0.00  0.00    +0.087 A 
ATOM     17  C   UNL     1      53.191 -14.774 -13.331  0.00  0.00    +0.072 A 
ATOM     18  C   UNL     1      54.627 -14.502 -13.591  0.00  0.00    +0.100 A 
ATOM     19  O   UNL     1      55.023 -13.364 -13.894  0.00  0.00    -0.425 OA
ATOM     20  C   UNL     1      55.533 -15.543 -13.492  0.00  0.00    +0.050 A 
ATOM     21  C   UNL     1      55.078 -16.814 -13.168  0.00  0.00    +0.142 A 
ATOM     29  O   UNL     1      53.758 -17.050 -12.914  0.00  0.00    -0.245 OA
ATOM     30  C   UNL     1      52.813 -16.066 -12.998  0.00  0.00    +0.132 A 
ENDROOT
BRANCH   9   8
ATOM      1  C   UNL     1      49.498 -21.364 -10.792  0.00  0.00    +0.190 C 
ATOM      2  N   UNL     1      50.202 -20.238 -11.384  0.00  0.00    +0.235 N 
ATOM      3  H   UNL     1      49.398 -19.642 -11.267  0.00  0.00    +0.203 HD
ATOM      4  C   UNL     1      50.131 -20.036 -12.840  0.00  0.00    +0.164 C 
ATOM      5  C   UNL     1      50.179 -18.556 -13.211  0.00  0.00    +0.169 C 
ATOM      8  C   UNL     1      51.217 -17.820 -12.368  0.00  0.00    +0.064 C 
ATOM     31  C   UNL     1      50.857 -17.939 -10.898  0.00  0.00    +0.065 C 
ATOM     32  C   UNL     1      50.970 -19.394 -10.465  0.00  0.00    +0.133 C 
BRANCH   5   6
ATOM      6  O   UNL     1      48.876 -18.011 -13.001  0.00  0.00    -0.385 OA
ATOM      7  H   UNL     1      48.880 -17.088 -13.226  0.00  0.00    +0.210 HD
ENDBRANCH   5   6
ENDBRANCH   9   8
BRANCH  21  22
ATOM     22  C   UNL     1      56.037 -17.929 -12.996  0.00  0.00    +0.044 A 
ATOM     23  C   UNL     1      57.316 -17.581 -12.569  0.00  0.00    +0.022 A 
ATOM     24  C   UNL     1      58.272 -18.559 -12.333  0.00  0.00    +0.006 A 
ATOM     25  C   UNL     1      57.929 -19.895 -12.501  0.00  0.00    +0.007 A 
ATOM     26  C   UNL     1      56.642 -20.248 -12.893  0.00  0.00    +0.020 A 
ATOM     27  C   UNL     1      55.682 -19.267 -13.131  0.00  0.00    +0.058 A 
ATOM     28 CL   UNL     1      54.034 -19.767 -13.643  0.00  0.00    -0.065 Cl
ENDBRANCH  21  22
BRANCH  10  11
ATOM     11  O   UNL     1      49.204 -15.619 -12.561  0.00  0.00    -0.339 OA
ATOM     12  H   UNL     1      49.082 -16.534 -12.337  0.00  0.00    +0.247 HD
ENDBRANCH  10  11
BRANCH  14  15
ATOM     15  O   UNL     1      52.579 -12.504 -13.732  0.00  0.00    -0.337 OA
ATOM     16  H   UNL     1      53.198 -12.174 -13.092  0.00  0.00    +0.248 HD
ENDBRANCH  14  15
TORSDOF 5
