REMARK  Name = 4gs6_ligand
REMARK  7 active torsions:
REMARK  status: ('A' for Active; 'I' for Inactive)
REMARK    1  A    between atoms: C11_3  and  O46_23
REMARK    2  A    between atoms: C15_5  and  O48_24
REMARK    3  A    between atoms: C24_11  and  O42_21
REMARK    4  A    between atoms: C31_13  and  C62_26
REMARK    5  A    between atoms: C39_16  and  O44_22
REMARK    6  A    between atoms: C40_17  and  O40_18
REMARK    7  A    between atoms: O48_24  and  C59_25
REMARK                            x       y       z     vdW  Elec       q    Type
REMARK                         _______ _______ _______ _____ _____    ______ ____
ROOT
ATOM      1  C   UNL     1      15.009  18.577  55.355  0.00  0.00    +0.077 A 
ATOM      2  C   UNL     1      16.419  18.502  55.853  0.00  0.00    +0.245 C 
ATOM      3  O   UNL     1      16.891  19.347  56.620  0.00  0.00    -0.372 OA
ATOM      4  O   UNL     1      17.129  17.440  55.321  0.00  0.00    -0.279 OA
ATOM      5  C   UNL     1      18.578  17.370  55.582  0.00  0.00    +0.147 C 
ATOM      6  C   UNL     1      18.782  16.875  56.987  0.00  0.00    +0.043 C 
ATOM      7  C   UNL     1      19.333  16.529  54.566  0.00  0.00    +0.036 C 
ATOM      8  C   UNL     1      19.454  16.898  53.297  0.00  0.00    +0.005 C 
ATOM      9  C   UNL     1      19.231  16.019  52.181  0.00  0.00    +0.034 C 
ATOM     10  C   UNL     1      18.784  14.765  52.238  0.00  0.00    +0.146 C 
ATOM     13  C   UNL     1      17.768  14.285  51.232  0.00  0.00    +0.174 C 
ATOM     16  C   UNL     1      16.396  14.949  51.414  0.00  0.00    +0.161 C 
ATOM     19  C   UNL     1      15.529  14.480  52.558  0.00  0.00    +0.110 C 
ATOM     20  C   UNL     1      14.718  15.576  53.113  0.00  0.00    +0.008 C 
ATOM     21  C   UNL     1      15.163  16.492  53.969  0.00  0.00    -0.023 C 
ATOM     22  C   UNL     1      14.244  19.672  55.809  0.00  0.00    +0.098 A 
ATOM     25  C   UNL     1      12.945  19.840  55.392  0.00  0.00    +0.041 A 
ATOM     26  C   UNL     1      12.362  18.937  54.525  0.00  0.00    +0.083 A 
ATOM     29  C   UNL     1      13.092  17.848  54.077  0.00  0.00    +0.004 A 
ATOM     30  C   UNL     1      14.402  17.637  54.481  0.00  0.00    -0.037 A 
ENDROOT
BRANCH  10  11
ATOM     11  O   UNL     1      19.147  13.834  53.119  0.00  0.00    -0.389 OA
ATOM     12  H   UNL     1      19.531  13.097  52.659  0.00  0.00    +0.210 HD
ENDBRANCH  10  11
BRANCH  13  14
ATOM     14  O   UNL     1      17.683  12.868  51.204  0.00  0.00    -0.386 OA
ATOM     15  H   UNL     1      17.427  12.550  52.062  0.00  0.00    +0.210 HD
ENDBRANCH  13  14
BRANCH  16  17
ATOM     17  O   UNL     1      15.686  14.894  50.196  0.00  0.00    -0.386 OA
ATOM     18  H   UNL     1      14.836  15.305  50.307  0.00  0.00    +0.210 HD
ENDBRANCH  16  17
BRANCH  22  23
ATOM     23  O   UNL     1      14.794  20.607  56.669  0.00  0.00    -0.331 OA
ATOM     24  H   UNL     1      15.690  20.363  56.869  0.00  0.00    +0.251 HD
ENDBRANCH  22  23
BRANCH  26  27
ATOM     27  O   UNL     1      11.027  19.198  54.165  0.00  0.00    -0.322 OA
ATOM     28  C   UNL     1      10.349  18.253  53.344  0.00  0.00    +0.234 C 
ENDBRANCH  26  27
TORSDOF 5
