REMARK  Name = 5ID
REMARK  2 active torsions:
REMARK  status: ('A' for Active; 'I' for Inactive)
REMARK    1  A    between atoms: C5'_2  and  C4'_3
REMARK    2  A    between atoms: C1'_5  and  N9_6
REMARK                            x       y       z     vdW  Elec       q    Type
REMARK                         _______ _______ _______ _____ _____    ______ ____
ROOT
ATOM      9  N   UNL     1      11.722 -12.394 -12.931  0.00  0.00    -0.286 N 
ATOM     10  C   UNL     1      10.512 -11.731 -13.070  0.00  0.00    +0.085 A 
ATOM     11  C   UNL     1      10.689 -10.721 -13.960  0.00  0.00    +0.053 A 
ATOM     12  C   UNL     1      12.038 -10.805 -14.420  0.00  0.00    +0.076 A 
ATOM     13  C   UNL     1      12.819 -10.079 -15.304  0.00  0.00    +0.175 A 
ATOM     14  N   UNL     1      14.113 -10.418 -15.423  0.00  0.00    -0.206 NA
ATOM     15  C   UNL     1      14.632 -11.427 -14.732  0.00  0.00    +0.202 A 
ATOM     16  N   UNL     1      13.931 -12.145 -13.841  0.00  0.00    -0.206 NA
ATOM     17  N   UNL     1      12.278  -9.031 -15.987  0.00  0.00    -0.107 NA
ATOM     18  I   UNL     1       9.055  -9.542 -14.555  0.00  0.00    -0.041 I 
ATOM     19  C   UNL     1      12.638 -11.826 -13.688  0.00  0.00    +0.151 A 
ENDROOT
BRANCH   9   8
ATOM      3  C4* UNL     1      10.618 -14.333 -10.396  0.00  0.00    +0.183 C 
ATOM      4  C3* UNL     1      11.352 -13.087  -9.898  0.00  0.00    +0.216 C 
ATOM      5  O3* UNL     1      11.621 -13.208  -8.473  0.00  0.00    -0.218 OA
ATOM      6  C2* UNL     1      12.610 -13.198 -10.682  0.00  0.00    +0.234 C 
ATOM      7  O2* UNL     1      13.334 -14.305 -10.213  0.00  0.00    -0.216 OA
ATOM      8  C1* UNL     1      12.081 -13.566 -12.059  0.00  0.00    +0.240 C 
ATOM     20  O4* UNL     1      10.877 -14.308 -11.816  0.00  0.00    -0.331 OA
BRANCH   3   2
ATOM      1  O5* UNL     1       8.555 -12.946 -10.552  0.00  0.00    -0.218 OA
ATOM      2  C5* UNL     1       9.107 -14.180 -10.116  0.00  0.00    +0.214 C 
ENDBRANCH   3   2
ENDBRANCH   9   8
TORSDOF 2
