REMARK  Name = 4UMP
REMARK  3 active torsions:
REMARK  status: ('A' for Active; 'I' for Inactive)
REMARK    1  A    between atoms: O_1  and  C_2
REMARK    2  A    between atoms: C_2  and  C_3
REMARK    3  A    between atoms: C_4  and  C_5
REMARK                            x       y       z     vdW  Elec       q    Type
REMARK                         _______ _______ _______ _____ _____    ______ ____
ROOT
ATOM      6  C   UNL     1       1.117  -1.038  -8.833  0.00  0.00    +0.026 A 
ATOM      7  C   UNL     1       1.418  -2.374  -8.560  0.00  0.00    +0.026 A 
ATOM      8  C   UNL     1       0.761  -3.413  -9.228  0.00  0.00    +0.001 A 
ATOM      9  C   UNL     1       1.039  -4.772  -8.984  0.00  0.00    +0.119 A 
ATOM     10  N   UNL     1       0.407  -5.770  -9.615  0.00  0.00    -0.263 NA
ATOM     11  C   UNL     1      -0.557  -5.470 -10.492  0.00  0.00    +0.111 A 
ATOM     12  C   UNL     1      -0.934  -4.177 -10.789  0.00  0.00    +0.028 A 
ATOM     13  C   UNL     1      -0.254  -3.099 -10.170  0.00  0.00    -0.015 A 
ATOM     14  C   UNL     1      -0.566  -1.740 -10.418  0.00  0.00    +0.010 A 
ATOM     15  C   UNL     1       0.118  -0.733  -9.759  0.00  0.00    +0.017 A 
ENDROOT
BRANCH   6   5
ATOM      4  C   UNL     1       2.398   0.892  -7.591  0.00  0.00    -0.069 C 
ATOM      5  C   UNL     1       1.818   0.019  -8.153  0.00  0.00    -0.064 C 
BRANCH   4   3
ATOM      3  C   UNL     1       3.115   1.973  -6.895  0.00  0.00    +0.244 C 
BRANCH   3   1
ATOM      1  O   UNL     1       3.086   1.811  -5.482  0.00  0.00    -0.383 OA
ATOM      2  H   UNL     1       3.517   2.480  -5.114  0.00  0.00    +0.211 HD
ENDBRANCH   3   1
ENDBRANCH   4   3
ENDBRANCH   6   5
TORSDOF 3
