REMARK  Name = 2e2b_ligand
REMARK  11 active torsions:
REMARK  status: ('A' for Active; 'I' for Inactive)
REMARK    1  A    between atoms: C1_1  and  C41_41
REMARK    2  A    between atoms: C4_4  and  C11_11
REMARK    3  A    between atoms: C5_5  and  C7_7
REMARK    4  A    between atoms: C11_11  and  N12_12
REMARK    5  A    between atoms: C15_15  and  N17_17
REMARK    6  A    between atoms: N17_17  and  C18_18
REMARK    7  A    between atoms: N17_17  and  C19_19
REMARK    8  A    between atoms: C24_24  and  C26_26
REMARK    9  A    between atoms: N32_32  and  C38_38
REMARK   10  A    between atoms: C34_34  and  N40_40
REMARK   11  A    between atoms: C37_37  and  C39_39
REMARK                            x       y       z     vdW  Elec       q    Type
REMARK                         _______ _______ _______ _____ _____    ______ ____
ROOT
ATOM      2  C   UNL     1      15.660  51.753  15.737  0.00  0.00    +0.233 C 
ATOM      3  O   UNL     1      14.855  52.655  15.971  0.00  0.00    -0.376 OA
ATOM      4  N   UNL     1      16.533  51.861  14.735  0.00  0.00    -0.240 N 
ATOM      5  H   UNL     1      17.259  51.173  14.760  0.00  0.00    +0.223 HD
ENDROOT
BRANCH   4   6
ATOM      6  C   UNL     1      16.638  52.771  13.625  0.00  0.00    +0.050 A 
ATOM      7  C   UNL     1      17.725  52.587  12.739  0.00  0.00    -0.019 A 
ATOM      8  C   UNL     1      17.895  53.459  11.612  0.00  0.00    -0.033 A 
ATOM      9  C   UNL     1      16.964  54.520  11.380  0.00  0.00    -0.036 A 
ATOM     10  C   UNL     1      17.237  55.392  10.156  0.00  0.00    +0.063 C 
ATOM     11  C   UNL     1      15.875  54.697  12.275  0.00  0.00    +0.055 A 
ATOM     26  C   UNL     1      15.700  53.849  13.382  0.00  0.00    +0.015 A 
BRANCH  11  12
ATOM     12  N   UNL     1      14.948  55.725  12.093  0.00  0.00    -0.247 N 
ATOM     13  H   UNL     1      14.110  55.484  11.545  0.00  0.00    +0.216 HD
ATOM     14  C   UNL     1      15.014  57.032  12.558  0.00  0.00    +0.210 A 
ATOM     15  N   UNL     1      16.061  57.422  13.272  0.00  0.00    -0.251 NA
ATOM     16  C   UNL     1      16.106  58.723  13.721  0.00  0.00    +0.105 A 
ATOM     17  C   UNL     1      15.070  59.649  13.425  0.00  0.00    +0.054 A 
ATOM     18  C   UNL     1      13.947  59.119  12.615  0.00  0.00    +0.068 A 
ATOM     25  N   UNL     1      13.994  57.803  12.215  0.00  0.00    -0.244 NA
BRANCH  18  19
ATOM     19  C   UNL     1      12.852  59.902  12.229  0.00  0.00    +0.057 A 
ATOM     20  C   UNL     1      12.629  61.315  12.563  0.00  0.00    +0.140 A 
ATOM     21  N   UNL     1      11.545  62.016  12.162  0.00  0.00    -0.258 NA
ATOM     22  C   UNL     1      10.626  61.380  11.413  0.00  0.00    +0.208 A 
ATOM     23  N   UNL     1      10.670  60.101  11.016  0.00  0.00    -0.258 NA
ATOM     24  C   UNL     1      11.745  59.364  11.404  0.00  0.00    +0.140 A 
ENDBRANCH  18  19
ENDBRANCH  11  12
ENDBRANCH   4   6
BRANCH   2   1
ATOM      1  C   UNL     1      15.655  50.546  16.618  0.00  0.00    +0.078 A 
ATOM     27  C   UNL     1      14.422  50.263  17.290  0.00  0.00    +0.072 A 
ATOM     28  C   UNL     1      14.247  49.167  18.171  0.00  0.00    +0.060 A 
ATOM     33  C   UNL     1      15.408  48.274  18.395  0.00  0.00    +0.040 A 
ATOM     45  C   UNL     1      16.658  48.568  17.703  0.00  0.00    +0.046 A 
ATOM     46  C   UNL     1      16.772  49.680  16.841  0.00  0.00    +0.067 A 
BRANCH  28  29
ATOM     29  C   UNL     1      12.832  49.003  18.836  0.00  0.00    +0.372 C 
ATOM     30  F   UNL     1      11.942  49.965  18.430  0.00  0.00    -0.226 F 
ATOM     31  F   UNL     1      12.319  47.772  18.583  0.00  0.00    -0.226 F 
ATOM     32  F   UNL     1      12.946  49.165  20.183  0.00  0.00    -0.226 F 
ENDBRANCH  28  29
BRANCH  33  34
ATOM     34  C   UNL     1      15.420  47.020  19.323  0.00  0.00    +0.233 C 
BRANCH  34  35
ATOM     35  N   UNL     1      16.682  46.627  20.007  0.00  0.00    +0.257 N 
ATOM     36  H   UNL     1      17.381  46.587  19.282  0.00  0.00    +0.206 HD
ATOM     37  C   UNL     1      17.145  47.624  21.009  0.00  0.00    +0.189 C 
ATOM     38  C   UNL     1      18.092  46.795  21.839  0.00  0.00    +0.115 C 
ATOM     43  C   UNL     1      17.182  45.567  22.085  0.00  0.00    +0.110 C 
ATOM     44  C   UNL     1      16.677  45.304  20.662  0.00  0.00    +0.139 C 
BRANCH  38  39
ATOM     39  N   UNL     1      18.628  47.508  23.083  0.00  0.00    +0.237 N 
ATOM     40  H   UNL     1      17.824  47.719  23.653  0.00  0.00    +0.203 HD
ATOM     41  C   UNL     1      19.254  48.823  22.689  0.00  0.00    +0.191 C 
ATOM     42  C   UNL     1      19.541  46.725  23.942  0.00  0.00    +0.191 C 
ENDBRANCH  38  39
ENDBRANCH  34  35
ENDBRANCH  33  34
ENDBRANCH   2   1
TORSDOF 8
