REMARK  Name = 3L1
REMARK  2 active torsions:
REMARK  status: ('A' for Active; 'I' for Inactive)
REMARK    1  A    between atoms: N9_10  and  C1'_11
REMARK    2  A    between atoms: C4'_16  and  C5'_17
REMARK                            x       y       z     vdW  Elec       q    Type
REMARK                         _______ _______ _______ _____ _____    ______ ____
ROOT
ATOM      1  N6    A A   1      23.530  -7.609  17.984  0.00  0.00    -0.105 NA
ATOM      2  C6    A A   1      24.790  -7.813  18.149  0.00  0.00    +0.192 A 
ATOM      3  C5    A A   1      25.659  -6.705  18.547  0.00  0.00    +0.152 A 
ATOM      4  N7    A A   1      25.385  -5.418  18.857  0.00  0.00    -0.219 NA
ATOM      5  C8    A A   1      26.597  -4.837  19.158  0.00  0.00    +0.181 A 
ATOM      6  N9    A A   1      27.595  -5.791  19.062  0.00  0.00    -0.271 N 
ATOM     15  C4    A A   1      26.981  -6.900  18.708  0.00  0.00    +0.169 A 
ATOM     16  N3    A A   1      27.617  -8.098  18.494  0.00  0.00    -0.205 NA
ATOM     17  C2    A A   1      26.834  -9.218  18.103  0.00  0.00    +0.202 A 
ATOM     18  N1    A A   1      25.438  -8.942  17.957  0.00  0.00    -0.204 NA
ENDROOT
BRANCH   6   7
ATOM      7  C1*   A A   1      29.007  -5.653  19.340  0.00  0.00    +0.209 C 
ATOM      8  C2*   A A   1      29.362  -6.297  20.654  0.00  0.00    +0.089 C 
ATOM      9  C3*   A A   1      30.590  -5.502  21.056  0.00  0.00    +0.186 C 
ATOM     10  O3*   A A   1      31.792  -6.068  20.554  0.00  0.00    -0.220 OA
ATOM     11  C4*   A A   1      30.450  -4.159  20.347  0.00  0.00    +0.180 C 
ATOM     14  O4*   A A   1      29.237  -4.266  19.580  0.00  0.00    -0.333 OA
BRANCH  11  12
ATOM     12  C5*   A A   1      30.392  -2.997  21.327  0.00  0.00    +0.214 C 
ATOM     13  O5*   A A   1      29.781  -1.809  20.785  0.00  0.00    -0.218 OA
ENDBRANCH  11  12
ENDBRANCH   6   7
TORSDOF 2
