REMARK  Name = 7MJ
REMARK  4 active torsions:
REMARK  status: ('A' for Active; 'I' for Inactive)
REMARK    1  A    between atoms: C20_10  and  C19_20
REMARK    2  A    between atoms: C15_13  and  C13_16
REMARK    3  A    between atoms: C18_14  and  C19_20
REMARK    4  A    between atoms: C11_18  and  N12_25
REMARK                            x       y       z     vdW  Elec       q    Type
REMARK                         _______ _______ _______ _____ _____    ______ ____
ROOT
ATOM     10  C   UNL     1      20.079  -6.304  56.222  0.00  0.00    +0.303 C 
ATOM     11  O   UNL     1      20.976  -5.613  56.683  0.00  0.00    -0.265 OA
ATOM     12  N   UNL     1      19.979  -7.670  56.390  0.00  0.00    -0.188 NA
ENDROOT
BRANCH  12  13
ATOM     13  C   UNL     1      20.924  -8.365  57.232  0.00  0.00    +0.215 C 
ATOM     14  C   UNL     1      20.580  -8.223  58.699  0.00  0.00    +0.236 C 
ATOM     15  O   UNL     1      21.214  -9.224  59.499  0.00  0.00    -0.472 OA
ATOM     16  C   UNL     1      22.593  -9.246  59.264  0.00  0.00    +0.152 A 
ATOM     17  C   UNL     1      23.446  -8.674  60.191  0.00  0.00    +0.038 A 
ATOM     18  C   UNL     1      24.813  -8.707  59.982  0.00  0.00    +0.003 A 
ATOM     19  C   UNL     1      25.324  -9.320  58.853  0.00  0.00    +0.002 A 
ATOM     20  C   UNL     1      24.463  -9.896  57.932  0.00  0.00    +0.018 A 
ATOM     21  C   UNL     1      23.090  -9.870  58.125  0.00  0.00    +0.088 A 
ATOM     22  N   UNL     1      22.193 -10.431  57.169  0.00  0.00    -0.253 N 
ATOM     23  C   UNL     1      22.380 -11.816  56.797  0.00  0.00    +0.120 C 
ATOM     24  C   UNL     1      20.992  -9.816  56.832  0.00  0.00    +0.253 C 
ATOM     25  O   UNL     1      20.069 -10.379  56.259  0.00  0.00    -0.273 OA
ENDBRANCH  12  13
BRANCH  10   9
ATOM      7  C   UNL     1      17.818  -4.289  54.361  0.00  0.00    +0.167 A 
ATOM      8  N   UNL     1      18.973  -4.423  55.072  0.00  0.00    -0.204 NA
ATOM      9  C   UNL     1      19.030  -5.727  55.454  0.00  0.00    +0.240 A 
ATOM     26  N   UNL     1      17.959  -6.351  55.008  0.00  0.00    -0.123 NA
ATOM     27  N   UNL     1      17.195  -5.447  54.317  0.00  0.00    -0.131 NA
BRANCH   7   6
ATOM      6  C   UNL     1      17.408  -3.005  53.773  0.00  0.00    +0.094 C 
BRANCH   6   4
ATOM      1  C   UNL     1      16.902   0.021  56.690  0.00  0.00    -0.000 A 
ATOM      2  C   UNL     1      15.973  -0.997  56.609  0.00  0.00    -0.000 A 
ATOM      3  C   UNL     1      16.141  -1.975  55.650  0.00  0.00    -0.004 A 
ATOM      4  C   UNL     1      17.225  -1.936  54.788  0.00  0.00    -0.015 A 
ATOM      5  C   UNL     1      18.149  -0.915  54.859  0.00  0.00    -0.004 A 
ATOM     28  C   UNL     1      17.978   0.061  55.819  0.00  0.00    -0.000 A 
ENDBRANCH   6   4
ENDBRANCH   7   6
ENDBRANCH  10   9
TORSDOF 4
