REMARK  Name = 3QQG
REMARK  2 active torsions:
REMARK  status: ('A' for Active; 'I' for Inactive)
REMARK    1  A    between atoms: C_9  and  O_15
REMARK    2  A    between atoms: C_10  and  C_12
REMARK                            x       y       z     vdW  Elec       q    Type
REMARK                         _______ _______ _______ _____ _____    ______ ____
ROOT
ATOM      1  N   UNL     1     -91.447  -8.366 -47.646  0.00  0.00    -0.195 NA
ATOM      2  C   UNL     1     -90.495  -8.657 -46.720  0.00  0.00    +0.217 A 
ATOM      3  N   UNL     1     -90.559  -8.041 -45.603  0.00  0.00    -0.327 N 
ATOM      4  H   UNL     1     -89.832  -8.236 -44.842  0.00  0.00    +0.145 HD
ATOM      5  H   UNL     1     -91.339  -7.330 -45.428  0.00  0.00    +0.145 HD
ATOM      6  N   UNL     1     -89.488  -9.532 -46.867  0.00  0.00    -0.181 NA
ATOM      7  C   UNL     1     -89.474 -10.150 -48.065  0.00  0.00    +0.217 A 
ATOM      8  N   UNL     1     -88.545 -10.986 -48.272  0.00  0.00    -0.327 N 
ATOM      9  H   UNL     1     -88.489 -11.503 -49.207  0.00  0.00    +0.145 HD
ATOM     10  H   UNL     1     -87.816 -11.175 -47.512  0.00  0.00    +0.145 HD
ATOM     11  N   UNL     1     -90.351  -9.957 -49.066  0.00  0.00    -0.195 NA
ATOM     12  C   UNL     1     -91.323  -9.053 -48.811  0.00  0.00    +0.170 A 
ENDROOT
BRANCH  12  13
ATOM     13  C   UNL     1     -92.240  -8.795 -49.816  0.00  0.00    +0.062 A 
ATOM     14  C   UNL     1     -93.354  -7.909 -49.582  0.00  0.00    +0.035 A 
ATOM     15  C   UNL     1     -94.294  -7.624 -50.622  0.00  0.00    +0.042 A 
ATOM     16 CL   UNL     1     -95.626  -6.555 -50.343  0.00  0.00    -0.084 Cl
ATOM     17  C   UNL     1     -94.134  -8.214 -51.904  0.00  0.00    +0.023 A 
ATOM     18  C   UNL     1     -93.037  -9.094 -52.150  0.00  0.00    +0.047 A 
ATOM     19  C   UNL     1     -92.097  -9.388 -51.126  0.00  0.00    +0.128 A 
BRANCH  19  20
ATOM     20  O   UNL     1     -91.065 -10.224 -51.397  0.00  0.00    -0.506 OA
ATOM     21  H   UNL     1     -91.440 -11.162 -51.685  0.00  0.00    +0.292 HD
ENDBRANCH  19  20
ENDBRANCH  12  13
TORSDOF 2
