REMARK  Name = AH52
REMARK  5 active torsions:
REMARK  status: ('A' for Active; 'I' for Inactive)
REMARK    1  A    between atoms: S5_2  and  C5_4
REMARK    2  A    between atoms: C9_7  and  C8_8
REMARK    3  A    between atoms: C9_7  and  C1_11
REMARK    4  A    between atoms: C7_9  and  C6_10
REMARK    5  A    between atoms: N2_12  and  C3_13
REMARK                            x       y       z     vdW  Elec       q    Type
REMARK                         _______ _______ _______ _____ _____    ______ ____
ROOT
ATOM      6  C   UNL     1     -15.475 -22.156  25.442  0.00  0.00    -0.003 C 
ATOM      7  C   UNL     1     -16.325 -22.801  24.599  0.00  0.00    -0.020 C 
ENDROOT
BRANCH   6   5
ATOM      4  C   UNL     1     -14.717 -24.233  26.350  0.00  0.00    +0.120 C 
ATOM      5  C   UNL     1     -14.670 -22.866  26.315  0.00  0.00    +0.019 C 
BRANCH   4   2
ATOM      1  O   UNL     1     -14.042 -25.444  28.546  0.00  0.00    -0.073 OA
ATOM      2  S   UNL     1     -13.452 -25.020  27.318  0.00  0.00    +0.006 S 
ATOM      3  O   UNL     1     -12.809 -25.980  26.475  0.00  0.00    -0.073 OA
ENDBRANCH   4   2
ENDBRANCH   6   5
BRANCH   7   8
ATOM      8  C   UNL     1     -16.419 -24.211  24.608  0.00  0.00    +0.073 C 
BRANCH   8   9
ATOM      9  C   UNL     1     -17.241 -24.910  23.691  0.00  0.00    +0.077 C 
ATOM     10  N   UNL     1     -17.342 -26.220  23.637  0.00  0.00    -0.247 NA
BRANCH  10  11
ATOM     11  C   UNL     1     -16.659 -26.933  24.532  0.00  0.00    +0.094 C 
ATOM     12  C   UNL     1     -15.830 -26.406  25.509  0.00  0.00    -0.005 C 
ATOM     13  C   UNL     1     -15.292 -27.329  26.572  0.00  0.00    +0.032 C 
ENDBRANCH  10  11
ENDBRANCH   8   9
ENDBRANCH   7   8
TORSDOF 5
