REMARK  Name = 6EGD
REMARK  5 active torsions:
REMARK  status: ('A' for Active; 'I' for Inactive)
REMARK    1  A    between atoms: C10_1  and  C11_17
REMARK    2  A    between atoms: C21_4  and  N22_25
REMARK    3  A    between atoms: O02_9  and  C03_10
REMARK    4  A    between atoms: C04_11  and  N05_12
REMARK    5  A    between atoms: C06_13  and  C07_14
REMARK                            x       y       z     vdW  Elec       q    Type
REMARK                         _______ _______ _______ _____ _____    ______ ____
ROOT
ATOM      5  C   UNL     1      -2.381 -13.985 -62.665  0.00  0.00    +0.600 C 
ATOM      6  O   UNL     1      -2.390 -14.089 -63.872  0.00  0.00    -0.550 OA
ATOM      7  N   UNL     1      -1.170 -14.049 -61.925  0.00  0.00    -0.350 NA
ENDROOT
BRANCH   7   8
ATOM      8  C   UNL     1       0.157 -14.204 -62.426  0.00  0.00    +0.050 A 
ATOM      9  C   UNL     1       0.504 -14.195 -63.763  0.00  0.00    -0.130 A 
ATOM     10  C   UNL     1       1.836 -14.346 -64.116  0.00  0.00    -0.130 A 
ATOM     11  C   UNL     1       2.823 -14.488 -63.141  0.00  0.00    +0.000 A 
ATOM     18  C   UNL     1       2.468 -14.502 -61.807  0.00  0.00    -0.130 A 
ATOM     19  C   UNL     1       1.138 -14.346 -61.456  0.00  0.00    +0.185 A 
BRANCH  11  12
ATOM     12  N   UNL     1       4.186 -14.659 -63.518  0.00  0.00    -0.400 N 
ATOM     13  C   UNL     1       4.775 -15.922 -63.185  0.00  0.00    +0.100 C 
ATOM     14  C   UNL     1       6.227 -16.072 -63.607  0.00  0.00    +0.080 C 
ATOM     15  O   UNL     1       6.426 -15.558 -64.903  0.00  0.00    -0.360 OA
ATOM     16  C   UNL     1       6.078 -14.193 -64.966  0.00  0.00    +0.080 C 
ATOM     17  C   UNL     1       4.599 -14.007 -64.720  0.00  0.00    +0.100 C 
ENDBRANCH  11  12
BRANCH  19  20
ATOM     20  O   UNL     1       0.722 -14.338 -60.109  0.00  0.00    -0.365 OA
ATOM     21  C   UNL     1       1.701 -14.619 -59.133  0.00  0.00    +0.030 C 
ENDBRANCH  19  20
ENDBRANCH   7   8
BRANCH   5   3
ATOM      1  C   UNL     1      -4.939 -13.890 -59.708  0.00  0.00    +0.100 A 
ATOM      2  S   UNL     1      -3.458 -13.962 -60.242  0.00  0.00    +0.000 S 
ATOM      3  C   UNL     1      -3.622 -13.791 -61.788  0.00  0.00    +0.000 A 
ATOM      4  C   UNL     1      -5.033 -13.528 -62.061  0.00  0.00    +0.000 A 
ATOM     28  N   UNL     1      -5.812 -13.494 -60.740  0.00  0.00    -0.200 NA
BRANCH   1  22
ATOM     22  C   UNL     1      -5.124 -13.898 -58.212  0.00  0.00    +0.000 A 
ATOM     23  C   UNL     1      -6.361 -13.946 -57.627  0.00  0.00    +0.250 A 
ATOM     24  N   UNL     1      -6.497 -13.959 -56.283  0.00  0.00    -0.760 NA
ATOM     25  C   UNL     1      -5.397 -13.931 -55.479  0.00  0.00    +0.250 A 
ATOM     26  C   UNL     1      -4.123 -13.882 -56.053  0.00  0.00    -0.130 A 
ATOM     27  C   UNL     1      -4.002 -13.871 -57.423  0.00  0.00    -0.130 A 
ENDBRANCH   1  22
ENDBRANCH   5   3
TORSDOF 5
