REMARK  Name = 5O2B
REMARK  3 active torsions:
REMARK  status: ('A' for Active; 'I' for Inactive)
REMARK    1  A    between atoms: C_5  and  N_6
REMARK    2  A    between atoms: C_12  and  N_13
REMARK    3  A    between atoms: C_15  and  C_16
REMARK                            x       y       z     vdW  Elec       q    Type
REMARK                         _______ _______ _______ _____ _____    ______ ____
ROOT
ATOM      3  N   UNL     1     -57.610  -9.274 -56.922  0.00  0.00    -0.243 N 
ATOM      4  C   UNL     1     -57.821  -9.668 -58.200  0.00  0.00    +0.164 A 
ATOM      5  C   UNL     1     -56.567 -10.137 -58.693  0.00  0.00    +0.086 A 
ATOM      6  C   UNL     1     -55.652  -9.966 -57.607  0.00  0.00    +0.107 A 
ATOM     16  C   UNL     1     -56.560 -10.595 -60.049  0.00  0.00    +0.131 A 
ATOM     20  N   UNL     1     -57.701 -10.578 -60.765  0.00  0.00    -0.220 NA
ATOM     21  C   UNL     1     -58.838 -10.107 -60.172  0.00  0.00    +0.225 A 
ATOM     22  N   UNL     1     -58.986  -9.643 -58.923  0.00  0.00    -0.216 NA
ATOM     23  N   UNL     1     -56.299  -9.461 -56.550  0.00  0.00    -0.168 NA
ENDROOT
BRANCH   6   7
ATOM      7  C   UNL     1     -54.258 -10.297 -57.554  0.00  0.00    +0.022 A 
ATOM      8  C   UNL     1     -53.954 -11.684 -57.783  0.00  0.00    +0.123 A 
ATOM      9  N   UNL     1     -52.748 -12.194 -57.772  0.00  0.00    -0.235 NA
ATOM     10  C   UNL     1     -51.765 -11.269 -57.501  0.00  0.00    +0.160 A 
ATOM     11  N   UNL     1     -50.379 -11.530 -57.415  0.00  0.00    -0.236 NA
ATOM     12  C   UNL     1     -49.749 -10.298 -57.113  0.00  0.00    +0.114 A 
ATOM     13  C   UNL     1     -50.692  -9.295 -57.011  0.00  0.00    +0.031 A 
ATOM     14  C   UNL     1     -51.978  -9.874 -57.236  0.00  0.00    +0.021 A 
ATOM     15  C   UNL     1     -53.259  -9.399 -57.269  0.00  0.00    +0.023 A 
ENDBRANCH   6   7
BRANCH   3   2
ATOM      1  C   UNL     1     -58.186  -7.427 -55.274  0.00  0.00    +0.027 C 
ATOM      2  C   UNL     1     -58.665  -8.713 -56.007  0.00  0.00    +0.109 C 
ATOM     24  C   UNL     1     -59.064  -9.693 -54.902  0.00  0.00    +0.027 C 
ATOM     25  C   UNL     1     -59.371  -8.821 -53.693  0.00  0.00    +0.002 C 
ATOM     26  C   UNL     1     -58.361  -7.686 -53.777  0.00  0.00    +0.002 C 
ENDBRANCH   3   2
BRANCH  16  17
ATOM     17  N   UNL     1     -55.357 -11.086 -60.619  0.00  0.00    -0.343 N 
ATOM     18  H   UNL     1     -54.456 -11.095 -60.042  0.00  0.00    +0.144 HD
ATOM     19  H   UNL     1     -55.351 -11.447 -61.626  0.00  0.00    +0.144 HD
ENDBRANCH  16  17
TORSDOF 3
