REMARK  Name = 4ZTH
REMARK  2 active torsions:
REMARK  status: ('A' for Active; 'I' for Inactive)
REMARK    1  A    between atoms: C_6  and  C_7
REMARK    2  A    between atoms: C_13  and  C_14
REMARK                            x       y       z     vdW  Elec       q    Type
REMARK                         _______ _______ _______ _____ _____    ______ ____
ROOT
ATOM      1 CL   UNL     1      -0.531   4.315  22.354  0.00  0.00    -0.060 Cl
ATOM      2  C   UNL     1      -1.629   3.343  21.314  0.00  0.00    +0.152 A 
ATOM      3  C   UNL     1      -1.931   2.044  21.642  0.00  0.00    +0.052 A 
ATOM      4  C   UNL     1      -2.794   1.275  20.854  0.00  0.00    +0.013 A 
ATOM      5  C   UNL     1      -3.245   1.858  19.658  0.00  0.00    +0.101 A 
ATOM     12  N   UNL     1      -2.905   3.113  19.361  0.00  0.00    -0.147 NA
ATOM     19  N   UNL     1      -2.087   3.864  20.187  0.00  0.00    -0.137 NA
ENDROOT
BRANCH   5   6
ATOM      6  C   UNL     1      -4.122   1.313  18.673  0.00  0.00    +0.003 A 
ATOM      7  C   UNL     1      -3.798   1.491  17.343  0.00  0.00    +0.010 A 
ATOM      8  C   UNL     1      -4.675   1.055  16.373  0.00  0.00    +0.001 A 
ATOM      9  C   UNL     1      -5.858   0.423  16.716  0.00  0.00    +0.000 A 
ATOM     10  C   UNL     1      -6.196   0.287  18.072  0.00  0.00    +0.001 A 
ATOM     11  C   UNL     1      -5.355   0.745  19.056  0.00  0.00    +0.010 A 
ENDBRANCH   5   6
BRANCH   4  13
ATOM     13  C   UNL     1      -2.965  -0.137  21.306  0.00  0.00    -0.013 A 
ATOM     14  C   UNL     1      -2.770  -1.168  20.391  0.00  0.00    +0.028 A 
ATOM     15  C   UNL     1      -2.846  -2.494  20.854  0.00  0.00    +0.111 A 
ATOM     16  N   UNL     1      -3.051  -2.780  22.154  0.00  0.00    -0.263 NA
ATOM     17  C   UNL     1      -3.195  -1.789  23.051  0.00  0.00    +0.111 A 
ATOM     18  C   UNL     1      -3.117  -0.463  22.645  0.00  0.00    +0.028 A 
ENDBRANCH   4  13
TORSDOF 2
