REMARK  Name = 3rah_ligand
REMARK  5 active torsions:
REMARK  status: ('A' for Active; 'I' for Inactive)
REMARK    1  A    between atoms: N3_6  and  C15_20
REMARK    2  A    between atoms: O3_7  and  C11_16
REMARK    3  A    between atoms: N4_9  and  C13_18
REMARK    4  A    between atoms: C10_15  and  C11_16
REMARK    5  A    between atoms: C11_16  and  C12_17
REMARK                            x       y       z     vdW  Elec       q    Type
REMARK                         _______ _______ _______ _____ _____    ______ ____
ROOT
ATOM     10  C   UNL     1      93.070  80.380 -49.898  0.00  0.00    +0.057 A 
ATOM     11  C   UNL     1      92.763  81.071 -51.071  0.00  0.00    +0.051 A 
ATOM     15  N   UNL     1      91.865  82.074 -50.889  0.00  0.00    -0.308 NA
ATOM     16  C   UNL     1      91.496  82.153 -49.578  0.00  0.00    +0.169 A 
ATOM     17  N   UNL     1      90.581  83.076 -49.128  0.00  0.00    -0.286 N 
ATOM     18  H   UNL     1      90.308  83.871 -49.723  0.00  0.00    +0.188 HD
ATOM     25  S   UNL     1      92.241  81.018 -48.545  0.00  0.00    -0.002 S 
ENDROOT
BRANCH  17  19
ATOM     19  C   UNL     1      89.997  82.914 -47.788  0.00  0.00    +0.099 C 
ATOM     20  C   UNL     1      89.360  84.249 -47.317  0.00  0.00    +0.028 C 
ATOM     21  C   UNL     1      88.740  84.105 -45.904  0.00  0.00    +0.002 C 
ATOM     22  C   UNL     1      87.725  82.936 -45.825  0.00  0.00    +0.000 C 
ATOM     23  C   UNL     1      88.321  81.602 -46.344  0.00  0.00    +0.002 C 
ATOM     24  C   UNL     1      88.924  81.772 -47.761  0.00  0.00    +0.028 C 
ENDBRANCH  17  19
BRANCH  11  12
ATOM     12  N   UNL     1      93.281  80.785 -52.301  0.00  0.00    -0.352 N 
ATOM     13  H   UNL     1      92.993  81.336 -53.122  0.00  0.00    +0.162 HD
ATOM     14  H   UNL     1      93.960  80.018 -52.408  0.00  0.00    +0.162 HD
ENDBRANCH  11  12
BRANCH  10   9
ATOM      9  C   UNL     1      94.001  79.208 -49.753  0.00  0.00    +0.200 C 
BRANCH   9   8
ATOM      1  C   UNL     1      94.617  77.124 -46.052  0.00  0.00    -0.022 A 
ATOM      2  C   UNL     1      94.806  76.442 -44.788  0.00  0.00    +0.005 A 
ATOM      3  C   UNL     1      95.059  77.207 -43.586  0.00  0.00    -0.004 A 
ATOM      4  C   UNL     1      95.129  78.651 -43.628  0.00  0.00    -0.003 A 
ATOM      5  C   UNL     1      94.946  79.359 -44.875  0.00  0.00    +0.002 A 
ATOM      6  C   UNL     1      94.687  78.616 -46.097  0.00  0.00    -0.026 A 
ATOM      7  C   UNL     1      94.491  79.296 -47.352  0.00  0.00    +0.001 A 
ATOM      8  C   UNL     1      94.220  78.546 -48.590  0.00  0.00    -0.009 A 
ATOM     28  C   UNL     1      94.163  77.089 -48.510  0.00  0.00    +0.005 A 
ATOM     29  C   UNL     1      94.360  76.389 -47.264  0.00  0.00    +0.005 A 
ENDBRANCH   9   8
BRANCH   9  26
ATOM     26  O   UNL     1      94.608  78.762 -50.885  0.00  0.00    -0.373 OA
ATOM     27  H   UNL     1      94.364  79.319 -51.615  0.00  0.00    +0.215 HD
ENDBRANCH   9  26
ENDBRANCH  10   9
TORSDOF 5
