REMARK  Name = PXL
REMARK  2 active torsions:
REMARK  status: ('A' for Active; 'I' for Inactive)
REMARK    1  A    between atoms: C5A_2  and  C5_3
REMARK    2  A    between atoms: C4_8  and  C4A_9
REMARK                            x       y       z     vdW  Elec       q    Type
REMARK                         _______ _______ _______ _____ _____    ______ ____
ROOT
ATOM      3  C   UNL     1      29.429   5.977  39.589  0.00  0.00    +0.036 A 
ATOM      4  C   UNL     1      28.869   7.280  39.815  0.00  0.00    +0.097 A 
ATOM      5  N   UNL     1      29.284   8.375  39.003  0.00  0.00    -0.245 NA
ATOM      6  C   UNL     1      30.248   8.213  37.962  0.00  0.00    +0.098 A 
ATOM      7  C   UNL     1      30.831   6.911  37.708  0.00  0.00    +0.212 A 
ATOM      8  O   UNL     1      31.774   6.765  36.687  0.00  0.00    -0.285 OA
ATOM      9  C   UNL     1      30.651   9.431  37.126  0.00  0.00    +0.056 C 
ATOM     10  C   UNL     1      30.417   5.767  38.534  0.00  0.00    +0.082 A 
ENDROOT
BRANCH   3   2
ATOM      1  O   UNL     1      28.111   3.963  39.742  0.00  0.00    -0.215 OA
ATOM      2  C   UNL     1      28.984   4.805  40.460  0.00  0.00    +0.210 C 
ENDBRANCH   3   2
BRANCH  10  11
ATOM     11  C   UNL     1      30.994   4.326  38.329  0.00  0.00    +0.237 C 
ATOM     12  O   UNL     1      31.845   4.118  37.427  0.00  0.00    -0.283 OA
ENDBRANCH  10  11
TORSDOF 2
