REMARK  Name = 4ezj_ligand
REMARK  7 active torsions:
REMARK  status: ('A' for Active; 'I' for Inactive)
REMARK    1  A    between atoms: C17_10  and  C16_11
REMARK    2  A    between atoms: C10_26  and  C9_27
REMARK    3  A    between atoms: C9_27  and  N1_28
REMARK    4  A    between atoms: C4_33  and  C2_34
REMARK    5  A    between atoms: C2_34  and  O2_35
REMARK    6  A    between atoms: C2_34  and  C3_36
REMARK    7  A    between atoms: C2_34  and  C1_37
REMARK                            x       y       z     vdW  Elec       q    Type
REMARK                         _______ _______ _______ _____ _____    ______ ____
ROOT
ATOM      4  C   UNL     1      21.274  -6.714  19.668  0.00  0.00    +0.091 A 
ATOM      5  N   UNL     1      20.316  -7.349  20.353  0.00  0.00    -0.253 NA
ATOM      6  C   UNL     1      19.139  -6.745  20.633  0.00  0.00    +0.155 A 
ATOM      7  C   UNL     1      18.961  -5.354  20.217  0.00  0.00    +0.109 A 
ATOM      8  N   UNL     1      17.898  -4.514  20.534  0.00  0.00    -0.278 NA
ATOM      9  C   UNL     1      17.897  -3.227  20.195  0.00  0.00    +0.078 A 
ATOM     23  C   UNL     1      18.937  -2.643  19.490  0.00  0.00    +0.053 A 
ATOM     24  C   UNL     1      20.003  -3.410  19.131  0.00  0.00    +0.050 A 
ATOM     25  C   UNL     1      20.052  -4.781  19.484  0.00  0.00    +0.060 A 
ATOM     26  N   UNL     1      18.149  -7.546  21.302  0.00  0.00    -0.274 N 
ATOM     27  C   UNL     1      18.480  -8.885  21.798  0.00  0.00    +0.171 C 
ATOM     28  C   UNL     1      17.786  -9.113  23.115  0.00  0.00    +0.185 C 
ATOM     29  O   UNL     1      16.372  -8.928  23.005  0.00  0.00    -0.376 OA
ATOM     30  C   UNL     1      16.066  -7.601  22.554  0.00  0.00    +0.185 C 
ATOM     31  C   UNL     1      16.704  -7.307  21.215  0.00  0.00    +0.171 C 
ATOM     32  N   UNL     1      21.193  -5.489  19.182  0.00  0.00    -0.292 NA
ENDROOT
BRANCH   4   3
ATOM      1  F   UNL     1      22.722  -6.468  17.225  0.00  0.00    -0.187 F 
ATOM      2  C   UNL     1      23.229  -7.305  18.151  0.00  0.00    +0.133 A 
ATOM      3  C   UNL     1      22.479  -7.545  19.293  0.00  0.00    +0.035 A 
ATOM     33  C   UNL     1      23.100  -8.410  20.246  0.00  0.00    -0.015 A 
ATOM     34  C   UNL     1      22.711  -8.774  21.583  0.00  0.00    -0.032 A 
ATOM     35  C   UNL     1      23.746  -9.477  22.099  0.00  0.00    +0.119 A 
ATOM     36  N   UNL     1      24.742  -9.597  21.172  0.00  0.00    -0.279 N 
ATOM     37  H   UNL     1      25.633 -10.095  21.309  0.00  0.00    +0.227 HD
ATOM     38  C   UNL     1      24.358  -8.944  20.026  0.00  0.00    +0.066 A 
ATOM     39  C   UNL     1      25.042  -8.688  18.840  0.00  0.00    +0.020 A 
ATOM     40  C   UNL     1      24.464  -7.860  17.893  0.00  0.00    +0.020 A 
ENDBRANCH   4   3
BRANCH   9  10
ATOM     10  C   UNL     1      16.697  -2.420  20.631  0.00  0.00    +0.224 C 
BRANCH  10  11
ATOM     11  N   UNL     1      15.718  -2.229  19.555  0.00  0.00    +0.250 N 
ATOM     12  H   UNL     1      16.232  -2.037  18.709  0.00  0.00    +0.205 HD
ATOM     13  C   UNL     1      14.910  -3.419  19.339  0.00  0.00    +0.133 C 
ATOM     14  C   UNL     1      14.145  -3.288  18.025  0.00  0.00    +0.057 C 
ATOM     15  C   UNL     1      13.279  -2.019  17.929  0.00  0.00    +0.030 C 
ATOM     21  C   UNL     1      14.002  -0.794  18.539  0.00  0.00    +0.057 C 
ATOM     22  C   UNL     1      14.816  -1.104  19.806  0.00  0.00    +0.133 C 
BRANCH  15  16
ATOM     16  C   UNL     1      12.724  -1.760  16.499  0.00  0.00    +0.064 C 
ATOM     17  C   UNL     1      11.845  -0.518  16.434  0.00  0.00    +0.041 C 
ATOM     18  C   UNL     1      11.971  -2.968  15.951  0.00  0.00    +0.041 C 
BRANCH  16  19
ATOM     19  O   UNL     1      13.841  -1.533  15.612  0.00  0.00    -0.389 OA
ATOM     20  H   UNL     1      13.518  -1.373  14.733  0.00  0.00    +0.210 HD
ENDBRANCH  16  19
ENDBRANCH  15  16
ENDBRANCH  10  11
ENDBRANCH   9  10
TORSDOF 5
