REMARK  Name = 8QC
REMARK  5 active torsions:
REMARK  status: ('A' for Active; 'I' for Inactive)
REMARK    1  A    between atoms: OAU_2  and  CAP_3
REMARK    2  A    between atoms: CAO_9  and  SAL_10
REMARK    3  A    between atoms: SAL_10  and  NAK_13
REMARK    4  A    between atoms: NAK_13  and  CAB_14
REMARK    5  A    between atoms: CAA_23  and  NAJ_24
REMARK                            x       y       z     vdW  Elec       q    Type
REMARK                         _______ _______ _______ _____ _____    ______ ____
ROOT
ATOM      1  B   UNL     1      -3.330   6.000   5.000  0.00  0.00    +0.000 B 
ENDROOT
TORSDOF 0
