REMARK  Name = 4E4M
REMARK  4 active torsions:
REMARK  status: ('A' for Active; 'I' for Inactive)
REMARK    1  A    between atoms: C_1  and  C_2
REMARK    2  A    between atoms: C_2  and  N_12
REMARK    3  A    between atoms: N_5  and  S_8
REMARK    4  A    between atoms: S_8  and  C_11
REMARK                            x       y       z     vdW  Elec       q    Type
REMARK                         _______ _______ _______ _____ _____    ______ ____
ROOT
ATOM      3  N   UNL     1      10.072 -29.003 -37.018  0.00  0.00    -0.324 NA
ATOM      4  C   UNL     1       8.707 -28.799 -36.952  0.00  0.00    +0.082 C 
ATOM      5  C   UNL     1       7.844 -27.939 -36.251  0.00  0.00    +0.046 C 
ATOM      6  C   UNL     1       6.458 -28.035 -36.456  0.00  0.00    +0.162 C 
ATOM      7  N   UNL     1       5.972 -28.933 -37.306  0.00  0.00    -0.234 NA
ATOM      8  C   UNL     1       6.745 -29.764 -37.968  0.00  0.00    +0.143 C 
ATOM      9  N   UNL     1       5.866 -27.090 -35.652  0.00  0.00    -0.236 NA
ATOM     10  C   UNL     1       6.816 -26.414 -34.947  0.00  0.00    +0.114 C 
ATOM     11  C   UNL     1       8.026 -26.873 -35.267  0.00  0.00    +0.033 C 
ATOM     12  C   UNL     1       8.131 -29.733 -37.835  0.00  0.00    +0.108 C 
ATOM     13  N   UNL     1       9.147 -30.445 -38.386  0.00  0.00    -0.234 NA
ATOM     14  C   UNL     1      10.284 -30.014 -37.915  0.00  0.00    +0.201 C 
ENDROOT
BRANCH   3   2
ATOM      1  C   UNL     1      12.499 -28.816 -36.707  0.00  0.00    +0.034 C 
ATOM      2  C   UNL     1      11.119 -28.260 -36.300  0.00  0.00    +0.047 C 
ATOM     15  C   UNL     1      11.029 -26.780 -36.708  0.00  0.00    +0.045 C 
ATOM     16  C   UNL     1      12.076 -25.947 -35.974  0.00  0.00    +0.111 C 
ATOM     17  N   UNL     1      11.913 -26.173 -34.527  0.00  0.00    -0.181 NA
ATOM     22  C   UNL     1      11.910 -27.559 -34.000  0.00  0.00    +0.111 C 
ATOM     23  C   UNL     1      10.906 -28.417 -34.789  0.00  0.00    +0.045 C 
BRANCH  17  18
ATOM     18  S   UNL     1      11.796 -24.868 -33.495  0.00  0.00    +0.029 S 
ATOM     19  C   UNL     1      10.858 -23.613 -34.381  0.00  0.00    +0.214 C 
ATOM     20  O   UNL     1      13.172 -24.482 -33.360  0.00  0.00    -0.158 OA
ATOM     21  O   UNL     1      11.080 -25.355 -32.370  0.00  0.00    -0.158 OA
ENDBRANCH  17  18
ENDBRANCH   3   2
TORSDOF 2
