REMARK  Name = 3kxz_ligand
REMARK  11 active torsions:
REMARK  status: ('A' for Active; 'I' for Inactive)
REMARK    1  A    between atoms: C1_1  and  C2_4
REMARK    2  A    between atoms: N1_2  and  O1_3
REMARK    3  A    between atoms: C2_4  and  C28_37
REMARK    4  A    between atoms: N2_5  and  C4_10
REMARK    5  A    between atoms: O3_9  and  C26_35
REMARK    6  A    between atoms: C6_14  and  C7_16
REMARK    7  A    between atoms: C6_14  and  C8_17
REMARK    8  A    between atoms: N6_15  and  C21_30
REMARK    9  A    between atoms: N6_15  and  C22_31
REMARK   10  A    between atoms: C9_18  and  C10_19
REMARK   11  A    between atoms: C14_23  and  C16_25
REMARK                            x       y       z     vdW  Elec       q    Type
REMARK                         _______ _______ _______ _____ _____    ______ ____
ROOT
ATOM     13  C   UNL     1      -8.821  -1.655  -6.286  0.00  0.00    +0.050 A 
ATOM     14  C   UNL     1      -7.755  -0.924  -6.727  0.00  0.00    +0.033 A 
ATOM     15  C   UNL     1      -6.480  -1.218  -6.300  0.00  0.00    -0.011 A 
ATOM     35  C   UNL     1      -6.290  -2.264  -5.396  0.00  0.00    +0.015 A 
ATOM     36  C   UNL     1      -7.353  -3.013  -4.939  0.00  0.00    +0.007 A 
ATOM     37  C   UNL     1      -8.613  -2.688  -5.384  0.00  0.00    +0.024 A 
ENDROOT
BRANCH  15  16
ATOM     16  C   UNL     1      -5.374  -0.399  -6.782  0.00  0.00    +0.021 A 
ATOM     17  C   UNL     1      -5.381   0.587  -7.773  0.00  0.00    -0.016 A 
ATOM     18  C   UNL     1      -4.127   1.058  -7.817  0.00  0.00    +0.150 A 
ATOM     19  N   UNL     1      -3.437   0.358  -6.877  0.00  0.00    -0.110 N 
ATOM     20  C   UNL     1      -2.109   0.585  -6.615  0.00  0.00    +0.242 A 
ATOM     21  C   UNL     1      -1.482   1.503  -7.338  0.00  0.00    +0.069 A 
ATOM     22  C   UNL     1      -2.317   2.192  -8.320  0.00  0.00    +0.083 A 
ATOM     33  N   UNL     1      -3.550   1.999  -8.565  0.00  0.00    -0.294 NA
ATOM     34  N   UNL     1      -4.186  -0.499  -6.247  0.00  0.00    -0.208 NA
BRANCH  20  23
ATOM     23  N   UNL     1      -1.602  -0.204  -5.646  0.00  0.00    -0.225 N 
ATOM     24  H   UNL     1      -2.276  -0.739  -5.080  0.00  0.00    +0.226 HD
BRANCH  23  25
ATOM     25  C   UNL     1      -0.278  -0.361  -5.344  0.00  0.00    +0.063 A 
ATOM     26  C   UNL     1       0.341  -1.596  -5.477  0.00  0.00    +0.036 A 
ATOM     27  C   UNL     1       1.693  -1.749  -5.186  0.00  0.00    +0.079 A 
ATOM     28  C   UNL     1       2.443  -0.700  -4.777  0.00  0.00    +0.001 A 
ATOM     29  C   UNL     1       1.836   0.529  -4.652  0.00  0.00    -0.023 A 
ATOM     32  C   UNL     1       0.494   0.701  -4.926  0.00  0.00    -0.003 A 
BRANCH  27  30
ATOM     30  O   UNL     1       2.327  -2.912  -5.289  0.00  0.00    -0.336 OA
ATOM     31  H   UNL     1       1.717  -3.579  -5.581  0.00  0.00    +0.248 HD
ENDBRANCH  27  30
ENDBRANCH  23  25
ENDBRANCH  20  23
ENDBRANCH  15  16
BRANCH  13  12
ATOM     10  N   UNL     1     -10.310  -0.510  -7.800  0.00  0.00    -0.283 N 
ATOM     11  H   UNL     1      -9.504  -0.199  -8.304  0.00  0.00    +0.185 HD
ATOM     12  C   UNL     1     -10.184  -1.306  -6.716  0.00  0.00    +0.205 C 
ATOM     38  O   UNL     1     -11.159  -1.651  -6.092  0.00  0.00    -0.385 OA
BRANCH  10   5
ATOM      1  C   UNL     1     -13.528   3.209  -7.363  0.00  0.00    +0.068 C 
ATOM      2  C   UNL     1     -13.362   1.776  -7.940  0.00  0.00    +0.017 C 
ATOM      3  C   UNL     1     -14.464   0.936  -7.284  0.00  0.00    +0.068 C 
ATOM      4  C   UNL     1     -12.017   1.179  -7.511  0.00  0.00    +0.086 C 
ATOM      5  C   UNL     1     -11.637  -0.120  -8.212  0.00  0.00    +0.108 C 
ATOM      6  C   UNL     1     -11.716   0.048  -9.722  0.00  0.00    +0.086 C 
ATOM      7  C   UNL     1     -13.093   0.598 -10.113  0.00  0.00    +0.017 C 
ATOM      8  C   UNL     1     -13.168   0.862 -11.631  0.00  0.00    +0.068 C 
ATOM      9  C   UNL     1     -14.169  -0.443  -9.800  0.00  0.00    +0.068 C 
ATOM     39  N   UNL     1     -13.262   1.840  -9.403  0.00  0.00    +0.402 N 
ATOM     40  H   UNL     1     -12.458   2.414  -9.603  0.00  0.00    +0.238 HD
BRANCH  39  41
ATOM     41  O   UNL     1     -14.406   2.442  -9.991  0.00  0.00    -0.341 OA
ATOM     42  H   UNL     1     -14.301   2.464 -10.935  0.00  0.00    +0.270 HD
ENDBRANCH  39  41
ENDBRANCH  10   5
ENDBRANCH  13  12
TORSDOF 7
