REMARK  Name = WDR
REMARK  4 active torsions:
REMARK  status: ('A' for Active; 'I' for Inactive)
REMARK    1  A    between atoms: CAE_5  and  OAT_20
REMARK    2  A    between atoms: CAG_7  and  CAH_8
REMARK    3  A    between atoms: OAT_20  and  CAU_21
REMARK    4  A    between atoms: CAU_21  and  CAV_22
REMARK                            x       y       z     vdW  Elec       q    Type
REMARK                         _______ _______ _______ _____ _____    ______ ____
ROOT
ATOM      1  C   UNL     1      27.854  24.797  21.243  0.00  0.00    +0.329 C 
ATOM      2  N   UNL     1      28.040  25.529  22.404  0.00  0.00    -0.235 N 
ATOM      3  C   UNL     1      27.482  25.079  23.715  0.00  0.00    +0.119 C 
ATOM      4  C   UNL     1      28.850  26.762  22.373  0.00  0.00    +0.221 C 
ATOM      9  C   UNL     1      29.307  27.232  20.982  0.00  0.00    +0.040 A 
ATOM     10  C   UNL     1      29.959  28.447  20.824  0.00  0.00    +0.001 A 
ATOM     11  C   UNL     1      30.347  28.871  19.560  0.00  0.00    +0.004 A 
ATOM     19  C   UNL     1      30.122  28.069  18.453  0.00  0.00    +0.001 A 
ATOM     20  C   UNL     1      29.476  26.849  18.598  0.00  0.00    +0.017 A 
ATOM     21  C   UNL     1      29.103  26.421  19.871  0.00  0.00    +0.075 A 
ATOM     22  O   UNL     1      27.218  23.738  21.278  0.00  0.00    -0.250 OA
ATOM     23  N   UNL     1      28.429  25.211  20.008  0.00  0.00    -0.162 NA
ENDROOT
BRANCH  11  12
ATOM     12  C   UNL     1      30.986  30.117  19.438  0.00  0.00    +0.050 A 
ATOM     13  C   UNL     1      30.495  31.320  19.949  0.00  0.00    +0.154 A 
ATOM     14  C   UNL     1      29.171  31.480  20.707  0.00  0.00    +0.075 C 
ATOM     15  O   UNL     1      31.408  32.319  19.656  0.00  0.00    -0.358 OA
ATOM     16  N   UNL     1      32.495  31.681  18.923  0.00  0.00    -0.082 NA
ATOM     17  C   UNL     1      32.193  30.377  18.789  0.00  0.00    +0.101 A 
ATOM     18  C   UNL     1      33.072  29.340  18.113  0.00  0.00    +0.056 C 
ENDBRANCH  11  12
BRANCH   4   5
ATOM      5  O   UNL     1      29.938  26.398  23.276  0.00  0.00    -0.331 OA
BRANCH   5   6
ATOM      6  C   UNL     1      30.938  25.497  22.746  0.00  0.00    +0.180 C 
BRANCH   6   7
ATOM      7  C   UNL     1      31.872  25.235  23.940  0.00  0.00    +0.214 C 
ATOM      8  O   UNL     1      31.055  24.906  25.060  0.00  0.00    -0.218 OA
ENDBRANCH   6   7
ENDBRANCH   5   6
ENDBRANCH   4   5
TORSDOF 4
