REMARK  Name = 5JQ5
REMARK  9 active torsions:
REMARK  status: ('A' for Active; 'I' for Inactive)
REMARK    1  A    between atoms: O_1  and  C_2
REMARK    2  A    between atoms: C_7  and  C_8
REMARK    3  A    between atoms: C_8  and  N_9
REMARK    4  A    between atoms: C_12  and  N_22
REMARK    5  A    between atoms: C_16  and  C_17
REMARK    6  A    between atoms: C_17  and  C_18
REMARK    7  A    between atoms: C_17  and  C_19
REMARK    8  A    between atoms: N_22  and  C_23
REMARK    9  A    between atoms: C_23  and  C_24
REMARK                            x       y       z     vdW  Elec       q    Type
REMARK                         _______ _______ _______ _____ _____    ______ ____
ROOT
ATOM      6  N   UNL     1       0.497  -9.755 -27.623  0.00  0.00    -0.233 N 
ATOM      7  H   UNL     1       1.164 -10.592 -27.631  0.00  0.00    +0.291 HD
ATOM      8  C   UNL     1       0.946  -8.560 -28.154  0.00  0.00    +0.319 C 
ATOM      9  N   UNL     1       0.142  -7.464 -28.103  0.00  0.00    -0.017 NA
ATOM     10  C   UNL     1       0.575  -6.289 -28.628  0.00  0.00    +0.416 C 
ATOM     11  C   UNL     1      -0.006  -5.013 -28.698  0.00  0.00    +0.055 C 
ATOM     15  C   UNL     1       0.890  -4.133 -29.328  0.00  0.00    +0.119 C 
ATOM     16  N   UNL     1       1.979  -4.873 -29.690  0.00  0.00    -0.196 N 
ATOM     17  H   UNL     1       2.851  -4.527 -30.204  0.00  0.00    +0.194 HD
ATOM     18  N   UNL     1       1.723  -6.166 -29.255  0.00  0.00    -0.069 N 
ATOM     19  C   UNL     1       2.601  -7.216 -29.314  0.00  0.00    +0.291 C 
ATOM     29  C   UNL     1       2.205  -8.469 -28.781  0.00  0.00    +0.193 C 
ENDROOT
BRANCH  11  12
ATOM     12  C   UNL     1      -1.337  -4.536 -28.164  0.00  0.00    +0.019 C 
ATOM     13  C   UNL     1      -1.294  -4.406 -26.617  0.00  0.00    +0.012 C 
ATOM     14  C   UNL     1      -2.537  -5.456 -28.444  0.00  0.00    +0.012 C 
ENDBRANCH  11  12
BRANCH  19  20
ATOM     20  N   UNL     1       3.774  -7.046 -29.914  0.00  0.00    -0.233 N 
ATOM     21  H   UNL     1       3.887  -6.283 -30.656  0.00  0.00    +0.291 HD
BRANCH  20  22
ATOM     22  C   UNL     1       4.913  -7.898 -29.565  0.00  0.00    +0.259 C 
BRANCH  22  23
ATOM     23  C   UNL     1       5.017  -8.948 -30.635  0.00  0.00    -0.008 A 
ATOM     24  C   UNL     1       5.177  -8.572 -31.982  0.00  0.00    +0.007 A 
ATOM     25  C   UNL     1       5.250  -9.526 -32.996  0.00  0.00    +0.000 A 
ATOM     26  C   UNL     1       5.190 -10.878 -32.625  0.00  0.00    +0.000 A 
ATOM     27  C   UNL     1       5.026 -11.241 -31.269  0.00  0.00    +0.000 A 
ATOM     28  C   UNL     1       4.942 -10.285 -30.271  0.00  0.00    +0.007 A 
ENDBRANCH  22  23
ENDBRANCH  20  22
ENDBRANCH  19  20
BRANCH   6   5
ATOM      5  C   UNL     1      -0.826  -9.941 -27.055  0.00  0.00    +0.229 C 
BRANCH   5   4
ATOM      3  C   UNL     1      -0.839 -10.383 -24.550  0.00  0.00    +0.135 C 
ATOM      4  C   UNL     1      -0.707  -9.354 -25.658  0.00  0.00    +0.060 C 
ATOM     30  C   UNL     1      -1.527  -8.047 -25.527  0.00  0.00    +0.025 C 
ATOM     31  C   UNL     1      -1.499  -7.560 -24.073  0.00  0.00    +0.081 C 
ATOM     32  N   UNL     1      -1.567  -8.601 -23.070  0.00  0.00    -0.314 NA
ATOM     33  H   UNL     1      -1.369  -8.135 -22.128  0.00  0.00    +0.122 HD
ATOM     34  C   UNL     1      -0.680  -9.769 -23.159  0.00  0.00    +0.112 C 
BRANCH   3   1
ATOM      1  O   UNL     1       0.268 -11.224 -24.790  0.00  0.00    -0.390 OA
ATOM      2  H   UNL     1       1.153 -10.661 -24.744  0.00  0.00    +0.210 HD
ENDBRANCH   3   1
ENDBRANCH   5   4
ENDBRANCH   6   5
TORSDOF 7
