REMARK  Name = AD4Q
REMARK  1 active torsions:
REMARK  status: ('A' for Active; 'I' for Inactive)
REMARK    1  A    between atoms: C2_2  and  C6_10
REMARK                            x       y       z     vdW  Elec       q    Type
REMARK                         _______ _______ _______ _____ _____    ______ ____
ROOT
ATOM      1  C   UNL     1      -0.919  -2.116  38.785  0.00  0.00    +0.001 A 
ATOM      2  C   UNL     1      -0.521  -1.361  39.889  0.00  0.00    +0.008 A 
ATOM      8  C   UNL     1      -1.281  -0.253  40.267  0.00  0.00    +0.030 A 
ATOM      9  C   UNL     1      -2.403   0.058  39.530  0.00  0.00    +0.140 A 
ATOM     10  F   UNL     1      -3.125   1.156  39.893  0.00  0.00    -0.204 F 
ATOM     11  C   UNL     1      -2.810  -0.658  38.434  0.00  0.00    +0.030 A 
ATOM     12  C   UNL     1      -2.057  -1.767  38.067  0.00  0.00    +0.002 A 
ENDROOT
BRANCH   2   3
ATOM      3  C   UNL     1       0.692  -1.714  40.645  0.00  0.00    +0.030 A 
ATOM      4  S   UNL     1       1.139  -0.768  42.045  0.00  0.00    -0.086 S 
ATOM      5  C   UNL     1       2.584  -1.683  42.278  0.00  0.00    +0.035 A 
ATOM      6  C   UNL     1       2.730  -2.667  41.283  0.00  0.00    +0.007 A 
ATOM      7  C   UNL     1       1.631  -2.651  40.358  0.00  0.00    +0.007 A 
ENDBRANCH   2   3
TORSDOF 1
