REMARK  Name = 5CU0
REMARK  8 active torsions:
REMARK  status: ('A' for Active; 'I' for Inactive)
REMARK    1  A    between atoms: C_1  and  C_22
REMARK    2  A    between atoms: C_2  and  C_3
REMARK    3  A    between atoms: C_2  and  C_19
REMARK    4  A    between atoms: C_3  and  N_18
REMARK    5  A    between atoms: C_4  and  C_17
REMARK    6  A    between atoms: C_4  and  N_18
REMARK    7  A    between atoms: C_7  and  C_10
REMARK    8  A    between atoms: C_19  and  N_20
REMARK                            x       y       z     vdW  Elec       q    Type
REMARK                         _______ _______ _______ _____ _____    ______ ____
ROOT
ATOM     12  C   UNL     1      68.700 139.184 353.591  0.00  0.00    -0.032 A 
ATOM     13  C   UNL     1      69.907 139.868 353.594  0.00  0.00    +0.025 A 
ATOM     14  C   UNL     1      69.939 141.228 353.359  0.00  0.00    +0.049 A 
ATOM     15 CL   UNL     1      71.481 142.021 353.356  0.00  0.00    -0.083 Cl
ATOM     16  C   UNL     1      68.778 141.956 353.115  0.00  0.00    +0.001 A 
ATOM     23  C   UNL     1      67.572 141.260 353.113  0.00  0.00    +0.010 A 
ATOM     24  C   UNL     1      67.539 139.898 353.348  0.00  0.00    +0.005 A 
ENDROOT
BRANCH  16  17
ATOM     17  C   UNL     1      68.768 143.423 352.855  0.00  0.00    -0.017 A 
ATOM     18  C   UNL     1      67.770 144.237 353.384  0.00  0.00    +0.008 A 
ATOM     19  C   UNL     1      67.769 145.601 353.151  0.00  0.00    +0.001 A 
ATOM     20  C   UNL     1      68.759 146.173 352.382  0.00  0.00    +0.000 A 
ATOM     21  C   UNL     1      69.750 145.382 351.847  0.00  0.00    +0.001 A 
ATOM     22  C   UNL     1      69.758 144.018 352.079  0.00  0.00    +0.008 A 
ENDBRANCH  16  17
BRANCH  12  11
ATOM     11  C   UNL     1      68.649 137.697 353.839  0.00  0.00    +0.116 C 
BRANCH  11   9
ATOM      9  N   UNL     1      69.958 137.108 354.123  0.00  0.00    -0.312 NA
ATOM     10  H   UNL     1      70.392 136.774 353.204  0.00  0.00    +0.122 HD
BRANCH   9   8
ATOM      8  C   UNL     1      69.867 135.970 355.042  0.00  0.00    +0.083 C 
BRANCH   8   7
ATOM      7  C   UNL     1      71.201 135.286 355.255  0.00  0.00    +0.034 C 
BRANCH   7   6
ATOM      6  C   UNL     1      71.085 133.935 355.928  0.00  0.00    +0.105 C 
BRANCH   6   4
ATOM      1  C   UNL     1      72.315 132.569 357.545  0.00  0.00    +0.210 C 
ATOM      2  C   UNL     1      73.623 132.345 358.250  0.00  0.00    +0.109 C 
ATOM      3  O   UNL     1      71.347 131.839 357.727  0.00  0.00    -0.276 OA
ATOM      4  N   UNL     1      72.267 133.608 356.711  0.00  0.00    -0.316 N 
ATOM      5  H   UNL     1      73.134 134.227 356.613  0.00  0.00    +0.149 HD
ENDBRANCH   6   4
ENDBRANCH   7   6
ENDBRANCH   8   7
ENDBRANCH   9   8
ENDBRANCH  11   9
ENDBRANCH  12  11
TORSDOF 7
