REMARK  Name = 1YXV
REMARK  3 active torsions:
REMARK  status: ('A' for Active; 'I' for Inactive)
REMARK    1  A    between atoms: C_4  and  O_11
REMARK    2  A    between atoms: C_5  and  O_8
REMARK    3  A    between atoms: N_9  and  C_10
REMARK                            x       y       z     vdW  Elec       q    Type
REMARK                         _______ _______ _______ _____ _____    ______ ____
ROOT
ATOM      1  C   UNL     1      74.087  37.530  -1.275  0.00  0.00    +0.026 A 
ATOM      2  C   UNL     1      73.930  38.476  -0.265  0.00  0.00    +0.002 A 
ATOM      3  C   UNL     1      74.255  38.194   1.063  0.00  0.00    +0.001 A 
ATOM      4  C   UNL     1      74.746  36.949   1.432  0.00  0.00    +0.013 A 
ATOM      5  C   UNL     1      74.919  35.972   0.458  0.00  0.00    +0.044 A 
ATOM      6  C   UNL     1      75.437  34.636   0.823  0.00  0.00    +0.173 C 
ATOM      9  C   UNL     1      75.613  33.614  -0.233  0.00  0.00    +0.225 C 
ATOM     12  C   UNL     1      75.253  33.968  -1.635  0.00  0.00    +0.297 C 
ATOM     13  N   UNL     1      74.749  35.260  -1.948  0.00  0.00    -0.308 N 
ATOM     14  C   UNL     1      74.395  35.592  -3.327  0.00  0.00    +0.153 C 
ATOM     15  O   UNL     1      75.393  33.096  -2.526  0.00  0.00    -0.264 OA
ATOM     16  C   UNL     1      74.579  36.260  -0.960  0.00  0.00    +0.055 A 
ENDROOT
BRANCH   6   7
ATOM      7  O   UNL     1      75.744  34.370   2.083  0.00  0.00    -0.503 OA
ATOM      8  H   UNL     1      76.492  35.031   2.409  0.00  0.00    +0.292 HD
ENDBRANCH   6   7
BRANCH   9  10
ATOM     10  O   UNL     1      76.081  32.399   0.078  0.00  0.00    -0.500 OA
ATOM     11  H   UNL     1      77.037  32.490   0.502  0.00  0.00    +0.292 HD
ENDBRANCH   9  10
TORSDOF 2
