REMARK  Name = 2brm_ligand
REMARK  5 active torsions:
REMARK  status: ('A' for Active; 'I' for Inactive)
REMARK    1  A    between atoms: C10_2  and  C11_3
REMARK    2  A    between atoms: N9_16  and  C8_24
REMARK    3  A    between atoms: C1_21  and  C18_22
REMARK    4  A    between atoms: C23_23  and  C8_24
REMARK    5  A    between atoms: C23_23  and  O24_25
REMARK                            x       y       z     vdW  Elec       q    Type
REMARK                         _______ _______ _______ _____ _____    ______ ____
ROOT
ATOM      1  C   UNL     1       6.069  -2.285  19.491  0.00  0.00    +0.150 A 
ATOM      2  N   UNL     1       6.412  -3.344  18.782  0.00  0.00    -0.272 NA
ATOM      3  C   UNL     1       5.539  -4.334  18.517  0.00  0.00    +0.122 A 
ATOM      4  N   UNL     1       5.972  -5.362  17.782  0.00  0.00    -0.299 N 
ATOM      5  H   UNL     1       5.318  -6.122  17.545  0.00  0.00    +0.187 HD
ATOM     10  C   UNL     1       4.235  -4.230  19.021  0.00  0.00    +0.060 A 
ATOM     11  C   UNL     1       3.059  -4.983  18.995  0.00  0.00    +0.007 A 
ATOM     18  C   UNL     1       2.093  -4.281  19.729  0.00  0.00    +0.083 A 
ATOM     19  N   UNL     1       2.661  -3.161  20.165  0.00  0.00    -0.256 N 
ATOM     20  H   UNL     1       2.186  -2.443  20.730  0.00  0.00    +0.231 HD
ATOM     27  C   UNL     1       3.926  -3.099  19.770  0.00  0.00    +0.140 A 
ATOM     28  N   UNL     1       4.852  -2.156  19.981  0.00  0.00    -0.274 NA
ENDROOT
BRANCH  11  12
ATOM     12  C   UNL     1       2.910  -6.219  18.360  0.00  0.00    -0.035 A 
ATOM     13  C   UNL     1       3.510  -7.350  18.916  0.00  0.00    -0.004 A 
ATOM     14  C   UNL     1       3.388  -8.596  18.304  0.00  0.00    -0.006 A 
ATOM     15  C   UNL     1       2.656  -8.720  17.126  0.00  0.00    -0.009 A 
ATOM     16  C   UNL     1       2.055  -7.592  16.567  0.00  0.00    -0.006 A 
ATOM     17  C   UNL     1       2.182  -6.343  17.179  0.00  0.00    -0.004 A 
ENDBRANCH  11  12
BRANCH  18  21
ATOM     21  C   UNL     1       0.762  -4.643  19.974  0.00  0.00    +0.008 A 
ATOM     22  C   UNL     1      -0.098  -3.688  20.517  0.00  0.00    +0.010 A 
ATOM     23  C   UNL     1      -1.434  -3.984  20.786  0.00  0.00    -0.000 A 
ATOM     24  C   UNL     1      -1.930  -5.253  20.509  0.00  0.00    -0.001 A 
ATOM     25  C   UNL     1      -1.081  -6.213  19.965  0.00  0.00    -0.000 A 
ATOM     26  C   UNL     1       0.253  -5.909  19.701  0.00  0.00    +0.010 A 
ENDBRANCH  18  21
BRANCH   4   6
ATOM      6  C   UNL     1       7.364  -5.435  17.302  0.00  0.00    +0.163 C 
BRANCH   6   7
ATOM      7  C   UNL     1       7.592  -4.399  16.192  0.00  0.00    +0.180 C 
BRANCH   7   8
ATOM      8  O   UNL     1       8.406  -3.325  16.689  0.00  0.00    -0.393 OA
ATOM      9  H   UNL     1       7.967  -2.910  17.422  0.00  0.00    +0.209 HD
ENDBRANCH   7   8
ENDBRANCH   6   7
ENDBRANCH   4   6
TORSDOF 5
