REMARK  Name = 4gz3_ligand
REMARK  8 active torsions:
REMARK  status: ('A' for Active; 'I' for Inactive)
REMARK    1  A    between atoms: N1_1  and  C1'_9
REMARK    2  A    between atoms: C2'_10  and  O2'_11
REMARK    3  A    between atoms: C3'_12  and  O3'_15
REMARK    4  A    between atoms: C4'_13  and  C5'_16
REMARK    5  A    between atoms: C5'_16  and  O5'_17
REMARK    6  A    between atoms: O5'_17  and  PA_18
REMARK    7  A    between atoms: PA_18  and  O3A_21
REMARK    8  A    between atoms: O3A_21  and  PB_22
REMARK                            x       y       z     vdW  Elec       q    Type
REMARK                         _______ _______ _______ _____ _____    ______ ____
ROOT
ATOM      2  C   UNL     1     -15.835  26.912  13.349  0.00  0.00    +0.306 C 
ATOM      3  O   UNL     1     -15.719  27.737  12.199  0.00  0.00    -0.336 OA
ATOM      4  C   UNL     1     -16.767  27.457  11.306  0.00  0.00    +0.184 C 
ATOM     15  C   UNL     1     -17.657  26.432  11.990  0.00  0.00    +0.180 C 
ATOM     18  C   UNL     1     -17.305  26.568  13.462  0.00  0.00    +0.206 C 
ENDROOT
BRANCH   2   1
ATOM      1  N   UNL     1     -15.268  27.693  14.453  0.00  0.00    -0.159 N 
ATOM     21  C   UNL     1     -15.838  28.886  14.817  0.00  0.00    +0.177 A 
ATOM     22  C   UNL     1     -15.241  29.669  15.801  0.00  0.00    +0.032 A 
ATOM     23  C   UNL     1     -14.105  29.184  16.443  0.00  0.00    +0.182 A 
ATOM     24  O   UNL     1     -13.577  29.844  17.334  0.00  0.00    -0.412 OA
ATOM     25  N   UNL     1     -13.557  27.967  16.073  0.00  0.00    -0.187 N 
ATOM     26  H   UNL     1     -12.738  27.629  16.536  0.00  0.00    +0.226 HD
ATOM     27  C   UNL     1     -14.135  27.222  15.072  0.00  0.00    +0.333 A 
ATOM     28  O   UNL     1     -13.656  26.133  14.733  0.00  0.00    -0.382 OA
ENDBRANCH   2   1
BRANCH  15  16
ATOM     16  O   UNL     1     -17.312  25.156  11.504  0.00  0.00    -0.386 OA
ATOM     17  H   UNL     1     -17.859  24.501  11.921  0.00  0.00    +0.210 HD
ENDBRANCH  15  16
BRANCH  18  19
ATOM     19  O   UNL     1     -17.528  25.374  14.188  0.00  0.00    -0.384 OA
ATOM     20  H   UNL     1     -17.091  24.653  13.751  0.00  0.00    +0.210 HD
ENDBRANCH  18  19
BRANCH   4   5
ATOM      5  C   UNL     1     -17.529  28.739  10.997  0.00  0.00    +0.243 C 
BRANCH   5   6
ATOM      6  O   UNL     1     -18.012  28.669   9.680  0.00  0.00    -0.244 OA
BRANCH   6   7
ATOM      7  P   UNL     1     -19.228  29.603   9.183  0.00  0.00    +0.328 P 
ATOM     13  O   UNL     1     -19.006  31.003   9.591  0.00  0.00    -0.556 OA
ATOM     14  O   UNL     1     -19.410  29.429   7.730  0.00  0.00    -0.556 OA
BRANCH   7   8
ATOM      8  O   UNL     1     -20.411  28.926  10.048  0.00  0.00    -0.155 OA
BRANCH   8   9
ATOM      9  P   UNL     1     -21.995  29.024   9.784  0.00  0.00    +0.207 P 
ATOM     10  O   UNL     1     -22.595  29.279  11.111  0.00  0.00    -0.589 OA
ATOM     11  O   UNL     1     -22.453  27.735   9.239  0.00  0.00    -0.589 OA
ATOM     12  O   UNL     1     -22.373  30.109   8.840  0.00  0.00    -0.589 OA
ENDBRANCH   8   9
ENDBRANCH   7   8
ENDBRANCH   6   7
ENDBRANCH   5   6
ENDBRANCH   4   5
TORSDOF 8
