REMARK  Name = 3pa3_ligand
REMARK  3 active torsions:
REMARK  status: ('A' for Active; 'I' for Inactive)
REMARK    1  A    between atoms: C02_2  and  C11_11
REMARK    2  A    between atoms: C06_6  and  C12_12
REMARK    3  A    between atoms: N10_10  and  C13_13
REMARK                            x       y       z     vdW  Elec       q    Type
REMARK                         _______ _______ _______ _____ _____    ______ ____
ROOT
ATOM      1  C   UNL     1      18.705  -2.968  10.439  0.00  0.00    +0.026 A 
ATOM      2  C   UNL     1      17.337  -2.704  10.740  0.00  0.00    +0.055 A 
ATOM      3  C   UNL     1      16.475  -3.375  11.667  0.00  0.00    +0.122 A 
ATOM      4  N   UNL     1      16.949  -4.426  12.428  0.00  0.00    -0.287 N 
ATOM      5  H   UNL     1      17.822  -4.905  12.163  0.00  0.00    +0.191 HD
ATOM     14  N   UNL     1      15.230  -2.948  11.776  0.00  0.00    -0.278 NA
ATOM     15  N   UNL     1      14.748  -1.908  11.065  0.00  0.00    -0.264 NA
ATOM     16  C   UNL     1      15.554  -1.223  10.196  0.00  0.00    +0.147 A 
ATOM     22  C   UNL     1      16.821  -1.610  10.037  0.00  0.00    +0.105 A 
ATOM     23  S   UNL     1      18.040  -0.913   9.041  0.00  0.00    -0.004 S 
ATOM     24  C   UNL     1      19.221  -2.043   9.533  0.00  0.00    +0.057 A 
ENDROOT
BRANCH   4   6
ATOM      6  C   UNL     1      16.210  -4.851  13.603  0.00  0.00    +0.146 C 
ATOM      7  C   UNL     1      16.655  -6.270  13.955  0.00  0.00    +0.039 C 
ATOM      8  C   UNL     1      15.974  -6.704  15.275  0.00  0.00    +0.053 C 
ATOM      9  C   UNL     1      16.414  -5.744  16.402  0.00  0.00    +0.129 C 
ATOM     10  N   UNL     1      15.971  -4.376  16.076  0.00  0.00    +0.229 N 
ATOM     11  H   UNL     1      16.236  -3.752  16.822  0.00  0.00    +0.201 HD
ATOM     12  H   UNL     1      14.969  -4.366  15.970  0.00  0.00    +0.201 HD
ATOM     13  C   UNL     1      16.607  -3.923  14.804  0.00  0.00    +0.158 C 
ENDBRANCH   4   6
BRANCH  24  25
ATOM     25  C   UNL     1      20.539  -2.044   8.938  0.00  0.00    +0.002 A 
ATOM     26  C   UNL     1      20.927  -0.913   8.208  0.00  0.00    +0.014 A 
ATOM     27  C   UNL     1      22.176  -0.921   7.572  0.00  0.00    +0.017 A 
ATOM     28  C   UNL     1      23.006  -2.045   7.678  0.00  0.00    +0.042 A 
ATOM     29 CL   UNL     1      24.551  -2.056   6.836  0.00  0.00    -0.069 Cl
ATOM     30  C   UNL     1      22.620  -3.173   8.383  0.00  0.00    +0.017 A 
ATOM     31  C   UNL     1      21.384  -3.177   9.030  0.00  0.00    +0.014 A 
ENDBRANCH  24  25
BRANCH  16  17
ATOM     17  C   UNL     1      15.055  -0.050   9.555  0.00  0.00    +0.235 C 
ATOM     18  O   UNL     1      15.731   0.590   8.736  0.00  0.00    -0.369 OA
ATOM     19  N   UNL     1      13.832   0.367   9.899  0.00  0.00    -0.295 N 
ATOM     20  H   UNL     1      13.305  -0.139  10.582  0.00  0.00    +0.182 HD
ATOM     21  H   UNL     1      13.445   1.185   9.474  0.00  0.00    +0.182 HD
ENDBRANCH  16  17
TORSDOF 3
