REMARK  Name = GVJ
REMARK  3 active torsions:
REMARK  status: ('A' for Active; 'I' for Inactive)
REMARK    1  A    between atoms: C2_2  and  C3_3
REMARK    2  A    between atoms: C2_2  and  C9_9
REMARK    3  A    between atoms: C12_12  and  C15_15
REMARK                            x       y       z     vdW  Elec       q    Type
REMARK                         _______ _______ _______ _____ _____    ______ ____
ROOT
ATOM      3  C   UNL     1       9.924   9.069   3.640  0.00  0.00    -0.001 A 
ATOM      4  C   UNL     1       9.305   9.615   4.756  0.00  0.00    -0.003 A 
ATOM      5  C   UNL     1       7.943   9.839   4.762  0.00  0.00    +0.001 A 
ATOM      6  C   UNL     1       7.171   9.531   3.647  0.00  0.00    +0.019 A 
ATOM     16  C   UNL     1       7.791   8.963   2.540  0.00  0.00    +0.001 A 
ATOM     17  C   UNL     1       9.153   8.747   2.532  0.00  0.00    -0.003 A 
ENDROOT
BRANCH   6   7
ATOM      7  C   UNL     1       5.693   9.707   3.678  0.00  0.00    +0.104 A 
ATOM      8  N   UNL     1       5.124   9.788   4.895  0.00  0.00    -0.222 NA
ATOM      9  C   UNL     1       3.792   9.894   4.956  0.00  0.00    +0.200 A 
ATOM     10  N   UNL     1       2.909   9.897   3.955  0.00  0.00    -0.203 NA
ATOM     11  C   UNL     1       3.511   9.780   2.761  0.00  0.00    +0.185 A 
ATOM     12  N   UNL     1       2.941   9.746   1.523  0.00  0.00    -0.203 NA
ATOM     13  C   UNL     1       3.936   9.618   0.610  0.00  0.00    +0.200 A 
ATOM     14  N   UNL     1       5.140   9.567   1.182  0.00  0.00    -0.219 NA
ATOM     15  C   UNL     1       4.875   9.663   2.550  0.00  0.00    +0.136 A 
ENDBRANCH   6   7
BRANCH   3   2
ATOM      1  N   UNL     1      11.714   7.517   2.913  0.00  0.00    -0.123 NA
ATOM      2  C   UNL     1      11.422   8.823   3.633  0.00  0.00    +0.136 C 
BRANCH   2  18
ATOM     18  C   UNL     1      12.191   9.989   3.039  0.00  0.00    -0.001 A 
ATOM     19  C   UNL     1      13.332  10.466   3.669  0.00  0.00    -0.003 A 
ATOM     20  C   UNL     1      14.031  11.529   3.135  0.00  0.00    -0.000 A 
ATOM     21  C   UNL     1      13.599  12.124   1.969  0.00  0.00    -0.000 A 
ATOM     22  C   UNL     1      12.473  11.655   1.331  0.00  0.00    -0.000 A 
ATOM     23  C   UNL     1      11.772  10.593   1.860  0.00  0.00    -0.003 A 
ENDBRANCH   2  18
ENDBRANCH   3   2
TORSDOF 3
