REMARK  Name = PAU
REMARK  6 active torsions:
REMARK  status: ('A' for Active; 'I' for Inactive)
REMARK    1  A    between atoms: C1_2  and  C2_3
REMARK    2  A    between atoms: C1_2  and  C5_6
REMARK    3  A    between atoms: C5_6  and  C6_8
REMARK    4  A    between atoms: C6_8  and  N_10
REMARK    5  A    between atoms: C8_11  and  C9_12
REMARK    6  A    between atoms: C9_12  and  C_13
REMARK                            x       y       z     vdW  Elec       q    Type
REMARK                         _______ _______ _______ _____ _____    ______ ____
ROOT
ATOM      7  C   UNL     1      19.027  63.388  41.470  0.00  0.00    +0.276 C 
ATOM     14  O   UNL     1      19.211  62.183  41.404  0.00  0.00    -0.270 OA
ENDROOT
BRANCH   7   6
ATOM      6  C   UNL     1      17.626  63.937  41.226  0.00  0.00    +0.232 C 
ATOM     15  O   UNL     1      17.635  65.379  41.140  0.00  0.00    -0.213 OA
BRANCH   6   3
ATOM      3  C   UNL     1      16.592  63.499  42.293  0.00  0.00    +0.067 C 
ATOM      4  C   UNL     1      17.002  63.978  43.681  0.00  0.00    +0.006 C 
ATOM      5  C   UNL     1      16.440  61.980  42.305  0.00  0.00    +0.006 C 
BRANCH   3   2
ATOM      1  O   UNL     1      14.778  63.713  40.684  0.00  0.00    -0.220 OA
ATOM      2  C   UNL     1      15.231  64.130  41.978  0.00  0.00    +0.185 C 
ENDBRANCH   3   2
ENDBRANCH   6   3
ENDBRANCH   7   6
BRANCH   7   8
ATOM      8  N   UNL     1      19.977  64.294  41.758  0.00  0.00    -0.180 NA
ATOM      9  C   UNL     1      21.381  64.088  42.091  0.00  0.00    +0.074 C 
BRANCH   9  10
ATOM     10  C   UNL     1      21.769  62.666  42.414  0.00  0.00    +0.158 C 
BRANCH  10  11
ATOM     11  C   UNL     1      23.119  62.391  43.026  0.00  0.00    +0.371 C 
ATOM     12  O   UNL     1      23.790  63.272  43.619  0.00  0.00    -0.245 OA
ATOM     13  O   UNL     1      23.482  61.201  42.915  0.00  0.00    -0.245 OA
ENDBRANCH  10  11
ENDBRANCH   9  10
ENDBRANCH   7   8
TORSDOF 6
