REMARK  Name = 4RPV
REMARK  4 active torsions:
REMARK  status: ('A' for Active; 'I' for Inactive)
REMARK    1  A    between atoms: C_5  and  C_21
REMARK    2  A    between atoms: C_10  and  N_15
REMARK    3  A    between atoms: C_12  and  C_27
REMARK    4  A    between atoms: C_17  and  N_30
REMARK                            x       y       z     vdW  Elec       q    Type
REMARK                         _______ _______ _______ _____ _____    ______ ____
ROOT
ATOM      5  C   UNL     1     -20.624 -39.463   0.071  0.00  0.00    -0.012 A 
ATOM      6  C   UNL     1     -21.506 -40.293  -0.850  0.00  0.00    +0.011 A 
ATOM      7  C   UNL     1     -21.396 -40.222  -2.338  0.00  0.00    +0.028 A 
ATOM      8  C   UNL     1     -20.404 -39.319  -2.882  0.00  0.00    +0.066 A 
ATOM      9  N   UNL     1     -20.023 -39.031  -4.112  0.00  0.00    -0.276 N 
ATOM     10  H   UNL     1     -20.457 -39.469  -4.986  0.00  0.00    +0.189 HD
ATOM     11  N   UNL     1     -18.979 -38.080  -4.147  0.00  0.00    -0.171 NA
ATOM     12  C   UNL     1     -18.656 -37.724  -2.852  0.00  0.00    +0.120 A 
ATOM     28  C   UNL     1     -19.553 -38.506  -2.063  0.00  0.00    +0.029 A 
ATOM     29  C   UNL     1     -19.677 -38.588  -0.615  0.00  0.00    +0.021 A 
ENDROOT
BRANCH   5   4
ATOM      1  C   UNL     1     -20.694 -40.839   3.835  0.00  0.00    +0.039 A 
ATOM      2  C   UNL     1     -20.753 -40.740   2.403  0.00  0.00    +0.134 A 
ATOM      3  F   UNL     1     -20.965 -41.970   1.919  0.00  0.00    -0.205 F 
ATOM      4  C   UNL     1     -20.541 -39.507   1.637  0.00  0.00    +0.052 A 
ATOM     30  C   UNL     1     -20.239 -38.376   2.477  0.00  0.00    +0.134 A 
ATOM     31  F   UNL     1     -19.935 -37.160   2.030  0.00  0.00    -0.205 F 
ATOM     32  C   UNL     1     -20.178 -38.488   3.939  0.00  0.00    +0.039 A 
ATOM     33  C   UNL     1     -20.409 -39.729   4.649  0.00  0.00    +0.006 A 
ENDBRANCH   5   4
BRANCH  12  13
ATOM     13  C   UNL     1     -17.600 -36.729  -2.484  0.00  0.00    +0.112 A 
ATOM     14  C   UNL     1     -16.770 -35.992  -3.383  0.00  0.00    +0.140 A 
ATOM     15  N   UNL     1     -15.830 -35.085  -2.883  0.00  0.00    -0.258 NA
ATOM     16  C   UNL     1     -15.567 -34.788  -1.561  0.00  0.00    +0.154 A 
ATOM     17  C   UNL     1     -16.382 -35.539  -0.612  0.00  0.00    +0.140 A 
ATOM     27  N   UNL     1     -17.320 -36.420  -1.129  0.00  0.00    -0.227 NA
BRANCH  17  18
ATOM     18  N   UNL     1     -16.174 -35.548   0.731  0.00  0.00    -0.313 N 
ATOM     19  C   UNL     1     -17.049 -36.221   1.687  0.00  0.00    +0.106 C 
ATOM     20  C   UNL     1     -16.253 -37.384   2.211  0.00  0.00    +0.020 C 
ATOM     21  C   UNL     1     -14.891 -36.878   2.699  0.00  0.00    +0.021 C 
ATOM     22  C   UNL     1     -14.028 -35.920   1.864  0.00  0.00    +0.068 C 
ATOM     26  C   UNL     1     -14.965 -34.895   1.244  0.00  0.00    +0.125 C 
BRANCH  22  23
ATOM     23  N   UNL     1     -13.136 -35.021   2.589  0.00  0.00    -0.326 NA
ATOM     24  H   UNL     1     -12.663 -34.354   1.899  0.00  0.00    +0.118 HD
ATOM     25  H   UNL     1     -13.700 -34.455   3.301  0.00  0.00    +0.118 HD
ENDBRANCH  22  23
ENDBRANCH  17  18
ENDBRANCH  12  13
TORSDOF 4
