REMARK  Name = 6HRT
REMARK  4 active torsions:
REMARK  status: ('A' for Active; 'I' for Inactive)
REMARK    1  A    between atoms: C3_3  and  C8_18
REMARK    2  A    between atoms: C26_13  and  N7_17
REMARK    3  A    between atoms: C20_25  and  N29_29
REMARK    4  A    between atoms: C38_38  and  C44_44
REMARK                            x       y       z     vdW  Elec       q    Type
REMARK                         _______ _______ _______ _____ _____    ______ ____
ROOT
ATOM      4  C   UNL     1      22.790   6.052   0.504  0.00  0.00    +0.000 A 
ATOM      5  C   UNL     1      23.877   6.530   1.188  0.00  0.00    -0.100 A 
ATOM      6  C   UNL     1      23.711   6.642   2.627  0.00  0.00    +0.000 A 
ATOM      7  C   UNL     1      22.527   6.277   3.197  0.00  0.00    +0.050 A 
ATOM      8  C   UNL     1      22.418   6.294   4.729  0.00  0.00    -0.100 C 
ATOM      9  C   UNL     1      22.202   7.744   5.297  0.00  0.00    +0.200 C 
ATOM     10  O   UNL     1      22.465   7.678   6.663  0.00  0.00    -0.650 OA
ATOM     11  C   UNL     1      23.269   8.667   4.682  0.00  0.00    -0.100 C 
ATOM     12  C   UNL     1      24.652   8.088   4.427  0.00  0.00    +0.000 A 
ATOM     13  C   UNL     1      25.825   8.505   5.070  0.00  0.00    +0.050 A 
ATOM     30  C   UNL     1      27.076   8.034   4.788  0.00  0.00    -0.130 A 
ATOM     31  C   UNL     1      27.230   7.143   3.735  0.00  0.00    -0.130 A 
ATOM     32  C   UNL     1      26.125   6.675   3.095  0.00  0.00    -0.130 A 
ATOM     33  N   UNL     1      21.432   5.897   2.488  0.00  0.00    -0.200 N 
ATOM     34  C   UNL     1      20.114   5.665   3.117  0.00  0.00    -0.050 C 
ATOM     35  C   UNL     1      24.875   7.139   3.396  0.00  0.00    +0.000 A 
ATOM     36  C   UNL     1      21.505   5.729   1.089  0.00  0.00    +0.600 A 
ATOM     37  O   UNL     1      20.498   5.335   0.489  0.00  0.00    -0.550 OA
ENDROOT
BRANCH  13  14
ATOM     14  N   UNL     1      25.679   9.441   6.161  0.00  0.00    -0.100 N 
ATOM     15  N   UNL     1      25.401  10.784   5.799  0.00  0.00    -0.050 NA
ATOM     16  C   UNL     1      25.093  11.709   6.679  0.00  0.00    -0.150 A 
ATOM     17  C   UNL     1      25.109  11.355   8.087  0.00  0.00    +0.000 A 
ATOM     18  C   UNL     1      24.851  12.396   9.019  0.00  0.00    -0.130 A 
ATOM     19  C   UNL     1      24.810  12.039  10.374  0.00  0.00    +0.000 A 
ATOM     24  C   UNL     1      25.016  10.749  10.771  0.00  0.00    -0.130 A 
ATOM     25  C   UNL     1      25.265   9.806   9.850  0.00  0.00    +0.300 A 
ATOM     26  F   UNL     1      25.457   8.529  10.276  0.00  0.00    -0.300 F 
ATOM     27  C   UNL     1      25.325  10.016   8.469  0.00  0.00    +0.000 A 
ATOM     28  C   UNL     1      25.586   8.979   7.471  0.00  0.00    +0.600 A 
ATOM     29  O   UNL     1      25.778   7.790   7.685  0.00  0.00    -0.550 OA
BRANCH  19  20
ATOM     20  C   UNL     1      24.636  13.109  11.409  0.00  0.00    +0.000 C 
ATOM     21  C   UNL     1      23.679  14.208  11.010  0.00  0.00    -0.150 C 
ATOM     22  C   UNL     1      26.014  13.714  11.690  0.00  0.00    -0.150 C 
ATOM     23  C   UNL     1      23.922  12.572  12.665  0.00  0.00    -0.150 C 
ENDBRANCH  19  20
ENDBRANCH  13  14
BRANCH   4   3
ATOM      1  C   UNL     1      23.313   5.638  -3.190  0.00  0.00    -0.130 A 
ATOM      2  C   UNL     1      23.738   5.985  -1.843  0.00  0.00    +0.430 A 
ATOM      3  N   UNL     1      22.702   5.870  -0.933  0.00  0.00    -0.300 NA
ATOM     38  N   UNL     1      24.958   6.348  -1.540  0.00  0.00    -0.760 NA
ATOM     39  C   UNL     1      25.920   6.443  -2.494  0.00  0.00    +0.250 A 
ATOM     40  C   UNL     1      25.594   6.139  -3.834  0.00  0.00    +0.000 A 
ATOM     49  C   UNL     1      24.298   5.717  -4.133  0.00  0.00    -0.130 A 
BRANCH  40  41
ATOM     41  C   UNL     1      26.690   6.264  -4.868  0.00  0.00    +0.600 C 
ATOM     42  O   UNL     1      27.763   5.781  -4.577  0.00  0.00    -0.550 OA
ATOM     43  N   UNL     1      26.483   6.950  -6.050  0.00  0.00    -0.250 N 
ATOM     44  C   UNL     1      27.567   7.069  -7.086  0.00  0.00    +0.000 C 
ATOM     45  C   UNL     1      27.484   8.440  -7.802  0.00  0.00    +0.080 C 
ATOM     46  O   UNL     1      26.155   8.693  -8.318  0.00  0.00    -0.360 OA
ATOM     47  C   UNL     1      25.272   8.908  -7.211  0.00  0.00    +0.080 C 
ATOM     48  C   UNL     1      25.155   7.588  -6.405  0.00  0.00    +0.000 C 
ENDBRANCH  40  41
ENDBRANCH   4   3
TORSDOF 4
