REMARK  Name = 2bmc_ligand
REMARK  9 active torsions:
REMARK  status: ('A' for Active; 'I' for Inactive)
REMARK    1  A    between atoms: C3_3  and  N5_5
REMARK    2  A    between atoms: C6_6  and  C7_7
REMARK    3  A    between atoms: N17_17  and  C24_24
REMARK    4  A    between atoms: N20_20  and  C23_23
REMARK    5  A    between atoms: C27_27  and  N30_30
REMARK    6  A    between atoms: C28_28  and  C32_32
REMARK    7  A    between atoms: C29_29  and  C34_34
REMARK    8  A    between atoms: C32_32  and  C36_36
REMARK    9  A    between atoms: C34_34  and  C37_37
REMARK                            x       y       z     vdW  Elec       q    Type
REMARK                         _______ _______ _______ _____ _____    ______ ____
ROOT
ATOM      1  N   UNL     1       5.462  -7.602   6.910  0.00  0.00    -0.197 N 
ATOM      2  C   UNL     1       4.136  -7.237   7.100  0.00  0.00    +0.357 C 
ATOM      3  N   UNL     1       3.878  -6.168   7.994  0.00  0.00    -0.210 N 
ATOM      4  H   UNL     1       4.671  -5.824   8.496  0.00  0.00    +0.224 HD
ATOM     15  O   UNL     1       3.223  -7.802   6.519  0.00  0.00    -0.358 OA
ATOM     16  C   UNL     1       5.785  -8.547   5.802  0.00  0.00    +0.112 A 
ATOM     17  C   UNL     1       7.212  -8.242   5.681  0.00  0.00    +0.057 A 
ATOM     18  C   UNL     1       7.738  -7.311   6.513  0.00  0.00    +0.026 A 
ATOM     19  C   UNL     1       9.112  -7.253   6.138  0.00  0.00    +0.220 C 
ATOM     38  N   UNL     1       9.351  -8.115   5.129  0.00  0.00    +0.372 N 
ATOM     39  H   UNL     1      10.037  -8.799   5.407  0.00  0.00    +0.229 HD
ATOM     40  H   UNL     1       9.681  -7.620   4.315  0.00  0.00    +0.229 HD
ATOM     41  N   UNL     1       8.179  -8.708   4.871  0.00  0.00    -0.320 N 
ATOM     42  H   UNL     1       8.037  -9.427   4.147  0.00  0.00    +0.213 HD
ATOM     43  C   UNL     1       6.632  -6.843   7.369  0.00  0.00    +0.109 A 
ENDROOT
BRANCH   3   5
ATOM      5  C   UNL     1       2.637  -5.513   8.276  0.00  0.00    +0.073 A 
ATOM      6  C   UNL     1       1.845  -5.806   9.451  0.00  0.00    -0.028 A 
ATOM      9  C   UNL     1       0.623  -5.103   9.641  0.00  0.00    -0.034 A 
ATOM     10  C   UNL     1       0.166  -4.139   8.728  0.00  0.00    -0.045 A 
ATOM     11  C   UNL     1       0.936  -3.855   7.582  0.00  0.00    -0.034 A 
ATOM     12  C   UNL     1       2.173  -4.518   7.318  0.00  0.00    -0.028 A 
BRANCH   6   7
ATOM      7  C   UNL     1       2.204  -6.820  10.523  0.00  0.00    +0.051 C 
ATOM      8  C   UNL     1       3.171  -6.241  11.563  0.00  0.00    +0.017 C 
ENDBRANCH   6   7
BRANCH  12  13
ATOM     13  C   UNL     1       2.927  -4.133   6.034  0.00  0.00    +0.051 C 
ATOM     14  C   UNL     1       4.155  -3.267   6.346  0.00  0.00    +0.017 C 
ENDBRANCH  12  13
ENDBRANCH   3   5
BRANCH  19  20
ATOM     20  N   UNL     1      10.143  -6.449   6.655  0.00  0.00    -0.242 N 
ATOM     21  H   UNL     1      11.043  -6.554   6.232  0.00  0.00    +0.191 HD
ATOM     22  C   UNL     1      10.048  -5.499   7.718  0.00  0.00    +0.200 C 
ATOM     23  O   UNL     1       9.018  -5.285   8.339  0.00  0.00    -0.391 OA
BRANCH  22  24
ATOM     24  C   UNL     1      11.307  -4.707   8.058  0.00  0.00    +0.036 A 
ATOM     25  C   UNL     1      12.551  -4.878   7.383  0.00  0.00    +0.010 A 
ATOM     26  C   UNL     1      13.689  -4.108   7.717  0.00  0.00    +0.015 A 
ATOM     27  C   UNL     1      13.652  -3.105   8.759  0.00  0.00    +0.046 A 
ATOM     36  C   UNL     1      12.399  -2.945   9.436  0.00  0.00    +0.015 A 
ATOM     37  C   UNL     1      11.279  -3.718   9.094  0.00  0.00    +0.010 A 
BRANCH  27  28
ATOM     28  N   UNL     1      14.813  -2.300   9.109  0.00  0.00    -0.296 N 
ATOM     29  C   UNL     1      16.173  -2.545   8.518  0.00  0.00    +0.182 C 
ATOM     30  C   UNL     1      17.022  -1.256   8.315  0.00  0.00    +0.155 C 
ATOM     31  N   UNL     1      17.013  -0.289   9.480  0.00  0.00    +0.236 N 
ATOM     32  H   UNL     1      16.705   0.590   9.094  0.00  0.00    +0.203 HD
ATOM     33  C   UNL     1      18.355  -0.060  10.025  0.00  0.00    +0.190 C 
ATOM     34  C   UNL     1      16.073  -0.597  10.586  0.00  0.00    +0.155 C 
ATOM     35  C   UNL     1      14.708  -1.164  10.105  0.00  0.00    +0.182 C 
ENDBRANCH  27  28
ENDBRANCH  22  24
ENDBRANCH  19  20
TORSDOF 6
