REMARK  Name = 3VS2
REMARK  7 active torsions:
REMARK  status: ('A' for Active; 'I' for Inactive)
REMARK    1  A    between atoms: N_3  and  C_4
REMARK    2  A    between atoms: N_7  and  C_8
REMARK    3  A    between atoms: C_13  and  N_14
REMARK    4  A    between atoms: C_20  and  N_21
REMARK    5  A    between atoms: C_23  and  C_24
REMARK    6  A    between atoms: C_29  and  O_30
REMARK    7  A    between atoms: O_30  and  C_31
REMARK                            x       y       z     vdW  Elec       q    Type
REMARK                         _______ _______ _______ _____ _____    ______ ____
ROOT
ATOM      7  N   UNL     1       4.055  -7.095  12.383  0.00  0.00    -0.328 N 
ATOM      8  C   UNL     1       4.574  -5.832  12.187  0.00  0.00    +0.147 A 
ATOM      9  C   UNL     1       3.622  -4.865  12.517  0.00  0.00    +0.066 A 
ATOM     10  C   UNL     1       2.503  -5.619  12.914  0.00  0.00    +0.012 A 
ATOM     24  C   UNL     1       3.897  -3.475  12.346  0.00  0.00    +0.129 A 
ATOM     28  N   UNL     1       5.079  -3.066  11.850  0.00  0.00    -0.220 NA
ATOM     29  C   UNL     1       5.959  -4.000  11.527  0.00  0.00    +0.225 A 
ATOM     30  N   UNL     1       5.723  -5.316  11.679  0.00  0.00    -0.218 NA
ATOM     31  C   UNL     1       2.911  -6.888  12.999  0.00  0.00    +0.097 A 
ENDROOT
BRANCH   7   6
ATOM      3  C   UNL     1       4.311 -10.487  12.589  0.00  0.00    +0.057 C 
ATOM      4  C   UNL     1       4.274  -9.880  11.036  0.00  0.00    +0.021 C 
ATOM      5  C   UNL     1       3.574  -8.782  11.234  0.00  0.00    +0.027 C 
ATOM      6  C   UNL     1       4.889  -8.334  12.142  0.00  0.00    +0.089 C 
ATOM     32  C   UNL     1       5.561  -9.219  13.324  0.00  0.00    +0.027 C 
ATOM     33  C   UNL     1       4.560  -9.723  14.053  0.00  0.00    +0.021 C 
BRANCH   3   2
ATOM      1  C   UNL     1       2.507 -11.469  14.462  0.00  0.00    +0.100 C 
ATOM      2  N   UNL     1       3.193 -10.920  13.442  0.00  0.00    -0.297 NA
ATOM     34  C   UNL     1       2.114 -11.865  12.826  0.00  0.00    +0.100 C 
ATOM     35  C   UNL     1       0.737 -12.747  13.081  0.00  0.00    +0.099 C 
ATOM     36  N   UNL     1       1.656 -13.369  13.978  0.00  0.00    -0.303 NA
ATOM     37  C   UNL     1       2.198 -14.605  13.529  0.00  0.00    +0.105 C 
ATOM     38  C   UNL     1       2.210 -12.680  15.167  0.00  0.00    +0.099 C 
ENDBRANCH   3   2
ENDBRANCH   7   6
BRANCH  10  11
ATOM     11  C   UNL     1       1.295  -5.155  13.496  0.00  0.00    -0.016 A 
ATOM     12  C   UNL     1       0.593  -4.100  12.934  0.00  0.00    +0.012 A 
ATOM     13  C   UNL     1      -0.609  -3.635  13.443  0.00  0.00    +0.047 A 
ATOM     14  C   UNL     1      -1.056  -4.052  14.680  0.00  0.00    +0.129 A 
ATOM     22  C   UNL     1      -0.279  -4.993  15.362  0.00  0.00    +0.047 A 
ATOM     23  C   UNL     1       0.888  -5.522  14.781  0.00  0.00    +0.012 A 
BRANCH  14  15
ATOM     15  O   UNL     1      -2.219  -3.468  15.122  0.00  0.00    -0.456 OA
BRANCH  15  16
ATOM     16  C   UNL     1      -2.449  -3.003  16.375  0.00  0.00    +0.128 A 
ATOM     17  C   UNL     1      -3.720  -3.090  16.939  0.00  0.00    +0.046 A 
ATOM     18  C   UNL     1      -3.952  -2.572  18.209  0.00  0.00    +0.004 A 
ATOM     19  C   UNL     1      -2.925  -1.933  18.895  0.00  0.00    +0.000 A 
ATOM     20  C   UNL     1      -1.669  -1.819  18.314  0.00  0.00    +0.004 A 
ATOM     21  C   UNL     1      -1.436  -2.341  17.049  0.00  0.00    +0.046 A 
ENDBRANCH  15  16
ENDBRANCH  14  15
ENDBRANCH  10  11
BRANCH  24  25
ATOM     25  N   UNL     1       3.028  -2.501  12.668  0.00  0.00    -0.343 N 
ATOM     26  H   UNL     1       2.068  -2.752  13.068  0.00  0.00    +0.144 HD
ATOM     27  H   UNL     1       3.297  -1.475  12.524  0.00  0.00    +0.144 HD
ENDBRANCH  24  25
TORSDOF 6
