REMARK  Name = 3r01_ligand
REMARK  3 active torsions:
REMARK  status: ('A' for Active; 'I' for Inactive)
REMARK    1  A    between atoms: C02_2  and  C13_13
REMARK    2  A    between atoms: C06_6  and  O11_11
REMARK    3  A    between atoms: O11_11  and  C12_12
REMARK                            x       y       z     vdW  Elec       q    Type
REMARK                         _______ _______ _______ _____ _____    ______ ____
ROOT
ATOM      1  O   UNL     1      22.200  33.444   0.657  0.00  0.00    -0.246 OA
ATOM      2  C   UNL     1      22.524  34.771   0.430  0.00  0.00    +0.160 A 
ATOM      3  C   UNL     1      22.289  35.508  -0.724  0.00  0.00    +0.126 A 
ATOM      6  C   UNL     1      22.667  36.849  -0.702  0.00  0.00    +0.013 A 
ATOM      7  C   UNL     1      23.291  37.354   0.454  0.00  0.00    -0.011 A 
ATOM      8 BR   UNL     1      23.768  39.175   0.157  0.00  0.00    -0.062 Br
ATOM      9  C   UNL     1      23.559  36.682   1.608  0.00  0.00    -0.022 A 
ATOM     10  C   UNL     1      23.124  35.270   1.560  0.00  0.00    -0.010 A 
ATOM     11  C   UNL     1      23.187  34.231   2.516  0.00  0.00    +0.009 A 
ATOM     12  C   UNL     1      22.621  33.126   1.911  0.00  0.00    +0.152 A 
ENDROOT
BRANCH  12  13
ATOM     13  C   UNL     1      22.432  31.780   2.433  0.00  0.00    +0.099 C 
ATOM     14  O   UNL     1      22.894  31.517   3.689  0.00  0.00    -0.558 OA
ATOM     15  O   UNL     1      21.866  30.971   1.698  0.00  0.00    -0.558 OA
ENDBRANCH  12  13
BRANCH   3   4
ATOM      4  O   UNL     1      21.680  34.984  -1.839  0.00  0.00    -0.322 OA
ATOM      5  C   UNL     1      21.689  35.718  -3.025  0.00  0.00    +0.230 C 
ENDBRANCH   3   4
TORSDOF 2
