REMARK  Name = 6OAC
REMARK  2 active torsions:
REMARK  status: ('A' for Active; 'I' for Inactive)
REMARK    1  A    between atoms: C10_1  and  C11_14
REMARK    2  A    between atoms: C04_11  and  C05_12
REMARK                            x       y       z     vdW  Elec       q    Type
REMARK                         _______ _______ _______ _____ _____    ______ ____
ROOT
ATOM      2  C   UNL     1     -17.276   9.542  27.597  0.00  0.00    +0.200 A 
ATOM      3  N   UNL     1     -16.547  10.650  27.991  0.00  0.00    -0.480 NA
ATOM      4  C   UNL     1     -17.126  11.614  28.731  0.00  0.00    +0.810 A 
ATOM      5  N   UNL     1     -16.350  12.810  29.168  0.00  0.00    -0.250 N 
ATOM      6  C   UNL     1     -16.751  13.536  30.366  0.00  0.00    +0.050 C 
ATOM      7  C   UNL     1     -16.520  12.618  31.597  0.00  0.00    -0.150 C 
ATOM      8  C   UNL     1     -16.000  14.886  30.588  0.00  0.00    +0.080 C 
ATOM      9  O   UNL     1     -14.624  14.809  30.387  0.00  0.00    -0.360 OA
ATOM     10  C   UNL     1     -14.303  14.250  29.165  0.00  0.00    +0.080 C 
ATOM     11  C   UNL     1     -14.876  12.824  29.043  0.00  0.00    +0.000 C 
ATOM     12  N   UNL     1     -18.406  11.499  29.080  0.00  0.00    -0.760 NA
ATOM     13  C   UNL     1     -19.139  10.395  28.688  0.00  0.00    +0.810 A 
ATOM     14  N   UNL     1     -20.526  10.308  29.084  0.00  0.00    -0.250 N 
ATOM     15  C   UNL     1     -21.555  10.595  28.080  0.00  0.00    +0.000 C 
ATOM     16  C   UNL     1     -23.058  10.626  28.571  0.00  0.00    +0.080 C 
ATOM     17  O   UNL     1     -23.257  11.132  29.868  0.00  0.00    -0.360 OA
ATOM     18  C   UNL     1     -22.163  11.818  30.346  0.00  0.00    +0.080 C 
ATOM     19  C   UNL     1     -20.916  10.870  30.411  0.00  0.00    +0.000 C 
ATOM     20  N   UNL     1     -18.564   9.428  27.944  0.00  0.00    -0.480 NA
ENDROOT
BRANCH   2   1
ATOM      1  C   UNL     1     -16.576   8.463  26.741  0.00  0.00    +0.000 A 
ATOM     21  C   UNL     1     -15.841   8.887  25.677  0.00  0.00    +0.250 A 
ATOM     22  N   UNL     1     -15.214   8.063  24.899  0.00  0.00    -0.760 NA
ATOM     23  C   UNL     1     -15.263   6.745  25.101  0.00  0.00    +0.430 A 
ATOM     24  N   UNL     1     -14.513   5.816  24.158  0.00  0.00    -0.550 NA
ATOM     25  C   UNL     1     -15.967   6.241  26.132  0.00  0.00    -0.130 A 
ATOM     26  C   UNL     1     -16.652   7.085  26.993  0.00  0.00    +0.000 A 
BRANCH  26  27
ATOM     27  C   UNL     1     -17.461   6.457  28.184  0.00  0.00    +0.550 C 
ATOM     28  F   UNL     1     -17.413   7.264  29.314  0.00  0.00    -0.300 F 
ATOM     29  F   UNL     1     -18.770   6.281  27.816  0.00  0.00    -0.300 F 
ENDBRANCH  26  27
ENDBRANCH   2   1
TORSDOF 2
