REMARK  Name = 5E1S
REMARK  10 active torsions:
REMARK  status: ('A' for Active; 'I' for Inactive)
REMARK    1  A    between atoms: C_7  and  N_23
REMARK    2  A    between atoms: C_7  and  C_24
REMARK    3  A    between atoms: C_12  and  C_18
REMARK    4  A    between atoms: C_14  and  C_19
REMARK    5  A    between atoms: N_22  and  C_27
REMARK    6  A    between atoms: C_24  and  N_25
REMARK    7  A    between atoms: N_33  and  C_36
REMARK    8  A    between atoms: C_36  and  C_37
REMARK    9  A    between atoms: C_37  and  O_38
REMARK   10  A    between atoms: O_38  and  C_39
REMARK                            x       y       z     vdW  Elec       q    Type
REMARK                         _______ _______ _______ _____ _____    ______ ____
ROOT
ATOM      1  N   UNL     1       5.483  21.311  18.169  0.00  0.00    -0.214 NA
ATOM      2  C   UNL     1       4.562  20.504  17.642  0.00  0.00    +0.221 A 
ATOM      3  N   UNL     1       4.575  19.997  16.413  0.00  0.00    -0.222 NA
ATOM      4  C   UNL     1       5.606  20.350  15.660  0.00  0.00    +0.120 A 
ATOM      5  C   UNL     1       6.613  21.172  16.088  0.00  0.00    +0.000 A 
ATOM      6  C   UNL     1       7.775  21.523  15.211  0.00  0.00    +0.025 C 
ATOM      7  C   UNL     1       8.893  20.496  15.323  0.00  0.00    +0.013 C 
ATOM      8  C   UNL     1       8.385  22.887  15.483  0.00  0.00    +0.066 C 
ATOM      9  C   UNL     1       8.435  23.189  16.939  0.00  0.00    +0.073 A 
ATOM     10  N   UNL     1       9.248  23.967  17.484  0.00  0.00    -0.175 NA
ATOM     11  N   UNL     1       8.974  23.951  18.772  0.00  0.00    -0.266 N 
ATOM     12  C   UNL     1       9.775  24.769  19.667  0.00  0.00    +0.173 C 
ATOM     13  C   UNL     1       7.946  23.140  19.061  0.00  0.00    +0.078 A 
ATOM     20  C   UNL     1       7.560  22.562  17.864  0.00  0.00    +0.049 A 
ATOM     21  N   UNL     1       3.491  20.135  18.430  0.00  0.00    -0.267 N 
ATOM     22  H   UNL     1       2.781  19.474  17.979  0.00  0.00    +0.157 HD
ATOM     23  C   UNL     1       3.228  20.514  19.722  0.00  0.00    +0.147 A 
ATOM     24  N   UNL     1       2.123  20.080  20.359  0.00  0.00    -0.156 NA
ATOM     25  N   UNL     1       2.208  20.616  21.598  0.00  0.00    -0.268 N 
ATOM     26  C   UNL     1       3.295  21.379  21.741  0.00  0.00    +0.110 A 
ATOM     39  C   UNL     1       3.968  21.328  20.574  0.00  0.00    +0.065 A 
ATOM     40  C   UNL     1       6.521  21.649  17.399  0.00  0.00    +0.083 A 
ENDROOT
BRANCH  13  14
ATOM     14  C   UNL     1       7.432  22.921  20.424  0.00  0.00    +0.001 A 
ATOM     15  C   UNL     1       6.678  23.895  21.055  0.00  0.00    +0.010 A 
ATOM     16  C   UNL     1       6.210  23.693  22.333  0.00  0.00    +0.001 A 
ATOM     17  C   UNL     1       6.494  22.535  23.002  0.00  0.00    +0.000 A 
ATOM     18  C   UNL     1       7.243  21.569  22.398  0.00  0.00    +0.001 A 
ATOM     19  C   UNL     1       7.720  21.757  21.116  0.00  0.00    +0.010 A 
ENDBRANCH  13  14
BRANCH  25  27
ATOM     27  C   UNL     1       1.196  20.456  22.633  0.00  0.00    +0.159 C 
BRANCH  27  28
ATOM     28  C   UNL     1       1.091  19.098  23.084  0.00  0.00    +0.108 C 
BRANCH  28  29
ATOM     29  N   UNL     1      -0.137  18.895  23.843  0.00  0.00    -0.298 NA
ATOM     30  C   UNL     1      -0.446  17.470  23.889  0.00  0.00    +0.100 C 
ATOM     31  C   UNL     1      -1.705  17.224  24.683  0.00  0.00    +0.100 C 
ATOM     32  N   UNL     1      -1.545  17.721  26.043  0.00  0.00    -0.298 NA
ATOM     37  C   UNL     1      -1.266  19.160  26.017  0.00  0.00    +0.100 C 
ATOM     38  C   UNL     1      -0.015  19.446  25.201  0.00  0.00    +0.100 C 
BRANCH  32  33
ATOM     33  C   UNL     1      -2.708  17.392  26.874  0.00  0.00    +0.112 C 
BRANCH  33  34
ATOM     34  C   UNL     1      -2.368  17.127  28.323  0.00  0.00    +0.174 C 
BRANCH  34  35
ATOM     35  O   UNL     1      -1.891  15.808  28.453  0.00  0.00    -0.382 OA
ATOM     36  C   UNL     1      -2.903  14.885  28.757  0.00  0.00    +0.193 C 
ENDBRANCH  34  35
ENDBRANCH  33  34
ENDBRANCH  32  33
ENDBRANCH  28  29
ENDBRANCH  27  28
ENDBRANCH  25  27
TORSDOF 7
