REMARK  Name = 5KBR
REMARK  4 active torsions:
REMARK  status: ('A' for Active; 'I' for Inactive)
REMARK    1  A    between atoms: C_4  and  C_21
REMARK    2  A    between atoms: C_9  and  C_11
REMARK    3  A    between atoms: C_19  and  C_21
REMARK    4  A    between atoms: N_25  and  C_27
REMARK                            x       y       z     vdW  Elec       q    Type
REMARK                         _______ _______ _______ _____ _____    ______ ____
ROOT
ATOM      6  C   UNL     1       4.062 -33.214  18.165  0.00  0.00    +0.051 A 
ATOM      7  C   UNL     1       5.123 -33.259  17.185  0.00  0.00    +0.032 A 
ATOM      8  C   UNL     1       6.338 -32.604  16.979  0.00  0.00    +0.022 A 
ATOM      9  C   UNL     1       7.108 -32.921  15.860  0.00  0.00    +0.004 A 
ATOM     22  C   UNL     1       6.607 -33.858  14.963  0.00  0.00    +0.121 A 
ATOM     23  N   UNL     1       5.434 -34.489  15.102  0.00  0.00    -0.235 NA
ATOM     24  C   UNL     1       4.730 -34.185  16.204  0.00  0.00    +0.161 A 
ATOM     25  N   UNL     1       3.518 -34.699  16.564  0.00  0.00    -0.235 NA
ATOM     26  C   UNL     1       3.114 -34.114  17.735  0.00  0.00    +0.125 A 
ENDROOT
BRANCH   9  10
ATOM     10  C   UNL     1       8.409 -32.258  15.563  0.00  0.00    +0.021 A 
ATOM     11  C   UNL     1       9.024 -31.284  16.310  0.00  0.00    +0.117 A 
ATOM     12  N   UNL     1      10.191 -30.991  15.714  0.00  0.00    -0.268 N 
ATOM     20  N   UNL     1      10.373 -31.717  14.580  0.00  0.00    -0.179 NA
ATOM     21  C   UNL     1       9.304 -32.481  14.449  0.00  0.00    +0.143 A 
BRANCH  12  13
ATOM     13  C   UNL     1      11.241 -29.974  16.177  0.00  0.00    +0.110 C 
ATOM     14  C   UNL     1      10.764 -29.190  17.402  0.00  0.00    +0.042 C 
ATOM     15  C   UNL     1      11.813 -28.167  17.794  0.00  0.00    +0.083 C 
ATOM     16  N   UNL     1      13.093 -28.843  18.101  0.00  0.00    -0.316 NA
ATOM     17  H   UNL     1      12.940 -29.532  18.906  0.00  0.00    +0.122 HD
ATOM     18  C   UNL     1      13.600 -29.579  16.927  0.00  0.00    +0.083 C 
ATOM     19  C   UNL     1      12.618 -30.609  16.400  0.00  0.00    +0.042 C 
ENDBRANCH  12  13
ENDBRANCH   9  10
BRANCH   6   4
ATOM      4  C   UNL     1       3.972 -32.343  19.348  0.00  0.00    +0.195 C 
ATOM      5  O   UNL     1       4.795 -31.466  19.601  0.00  0.00    -0.287 OA
BRANCH   4   3
ATOM      1  C   UNL     1       1.777 -33.512  22.194  0.00  0.00    +0.021 A 
ATOM      2  C   UNL     1       2.869 -33.353  21.359  0.00  0.00    +0.013 A 
ATOM      3  C   UNL     1       2.796 -32.522  20.243  0.00  0.00    +0.022 A 
ATOM     27  C   UNL     1       1.612 -31.830  19.996  0.00  0.00    +0.013 A 
ATOM     28  C   UNL     1       0.522 -31.970  20.836  0.00  0.00    +0.021 A 
ATOM     29  C   UNL     1       0.621 -32.801  21.935  0.00  0.00    +0.041 A 
ATOM     30 CL   UNL     1      -0.745 -32.972  23.004  0.00  0.00    -0.084 Cl
ENDBRANCH   4   3
ENDBRANCH   6   4
TORSDOF 4
