REMARK  Name = 3WZD
REMARK  7 active torsions:
REMARK  status: ('A' for Active; 'I' for Inactive)
REMARK    1  A    between atoms: C_1  and  O_2
REMARK    2  A    between atoms: O_2  and  C_3
REMARK    3  A    between atoms: C_9  and  O_16
REMARK    4  A    between atoms: C_12  and  C_13
REMARK    5  A    between atoms: O_16  and  C_17
REMARK    6  A    between atoms: C_20  and  N_23
REMARK    7  A    between atoms: N_26  and  C_27
REMARK                            x       y       z     vdW  Elec       q    Type
REMARK                         _______ _______ _______ _____ _____    ______ ____
ROOT
ATOM      3  C   UNL     1       0.488  -8.670  21.250  0.00  0.00    +0.134 A 
ATOM      4  C   UNL     1      -0.168  -7.590  20.597  0.00  0.00    +0.079 A 
ATOM     10  C   UNL     1      -0.003  -7.392  19.224  0.00  0.00    +0.030 A 
ATOM     11  C   UNL     1       0.823  -8.238  18.468  0.00  0.00    +0.044 A 
ATOM     12  C   UNL     1       1.027  -8.023  17.073  0.00  0.00    +0.139 A 
ATOM     30  C   UNL     1       1.896  -8.872  16.428  0.00  0.00    +0.066 A 
ATOM     31  C   UNL     1       2.552  -9.865  17.152  0.00  0.00    +0.115 A 
ATOM     32  N   UNL     1       2.333 -10.105  18.427  0.00  0.00    -0.255 NA
ATOM     33  C   UNL     1       1.508  -9.294  19.128  0.00  0.00    +0.078 A 
ATOM     34  C   UNL     1       1.311  -9.498  20.503  0.00  0.00    +0.074 A 
ENDROOT
BRANCH   4   5
ATOM      5  C   UNL     1      -0.967  -6.594  21.345  0.00  0.00    +0.245 C 
ATOM      6  N   UNL     1      -1.312  -6.741  22.638  0.00  0.00    -0.325 N 
ATOM      7  H   UNL     1      -1.892  -5.986  23.126  0.00  0.00    +0.145 HD
ATOM      8  H   UNL     1      -1.006  -7.613  23.177  0.00  0.00    +0.145 HD
ATOM      9  O   UNL     1      -1.154  -5.496  20.825  0.00  0.00    -0.270 OA
ENDBRANCH   4   5
BRANCH   3   2
ATOM      1  C   UNL     1       0.653 -10.059  23.249  0.00  0.00    +0.277 C 
ATOM      2  O   UNL     1       0.263  -8.849  22.591  0.00  0.00    -0.494 OA
ENDBRANCH   3   2
BRANCH  12  13
ATOM     13  O   UNL     1       0.306  -7.035  16.472  0.00  0.00    -0.455 OA
BRANCH  13  14
ATOM     14  C   UNL     1       0.542  -6.678  15.165  0.00  0.00    +0.130 A 
ATOM     15  C   UNL     1       1.221  -5.508  14.960  0.00  0.00    +0.048 A 
ATOM     16  C   UNL     1       1.442  -5.047  13.672  0.00  0.00    +0.028 A 
ATOM     17  C   UNL     1       1.051  -5.829  12.590  0.00  0.00    +0.053 A 
ATOM     27  C   UNL     1       0.281  -6.986  12.795  0.00  0.00    +0.066 A 
ATOM     28 CL   UNL     1      -0.283  -7.918  11.465  0.00  0.00    -0.082 Cl
ATOM     29  C   UNL     1       0.059  -7.430  14.107  0.00  0.00    +0.068 A 
BRANCH  17  18
ATOM     18  N   UNL     1       1.210  -5.356  11.264  0.00  0.00    -0.268 N 
ATOM     19  H   UNL     1       0.445  -5.588  10.553  0.00  0.00    +0.156 HD
ATOM     20  C   UNL     1       2.285  -4.618  10.834  0.00  0.00    +0.304 C 
ATOM     21  N   UNL     1       2.118  -4.148   9.563  0.00  0.00    -0.296 N 
ATOM     22  H   UNL     1       1.262  -4.481   9.014  0.00  0.00    +0.150 HD
ATOM     26  O   UNL     1       3.267  -4.422  11.524  0.00  0.00    -0.253 OA
BRANCH  21  23
ATOM     23  C   UNL     1       3.038  -3.216   8.903  0.00  0.00    +0.075 C 
ATOM     24  C   UNL     1       3.304  -3.462   7.428  0.00  0.00    +0.024 C 
ATOM     25  C   UNL     1       4.385  -3.708   8.468  0.00  0.00    +0.024 C 
ENDBRANCH  21  23
ENDBRANCH  17  18
ENDBRANCH  13  14
ENDBRANCH  12  13
TORSDOF 6
