REMARK  Name = 5MO4
REMARK  8 active torsions:
REMARK  status: ('A' for Active; 'I' for Inactive)
REMARK    1  A    between atoms: C_2  and  C_20
REMARK    2  A    between atoms: N_3  and  C_4
REMARK    3  A    between atoms: C_6  and  N_7
REMARK    4  A    between atoms: C_9  and  C_10
REMARK    5  A    between atoms: C_15  and  C_16
REMARK    6  A    between atoms: C_23  and  C_24
REMARK    7  A    between atoms: C_25  and  N_27
REMARK    8  A    between atoms: C_32  and  C_34
REMARK                            x       y       z     vdW  Elec       q    Type
REMARK                         _______ _______ _______ _____ _____    ______ ____
ROOT
ATOM      3  C   UNL     1     -44.142  22.463 -20.544  0.00  0.00    +0.039 A 
ATOM      4  C   UNL     1     -44.474  21.290 -19.845  0.00  0.00    +0.036 A 
ATOM      5  C   UNL     1     -44.855  20.128 -20.534  0.00  0.00    +0.037 A 
ATOM     20  C   UNL     1     -44.764  20.078 -21.935  0.00  0.00    -0.029 A 
ATOM     21  C   UNL     1     -45.100  18.798 -22.712  0.00  0.00    +0.045 C 
ATOM     22  C   UNL     1     -44.382  21.229 -22.636  0.00  0.00    +0.006 A 
ATOM     23  C   UNL     1     -44.079  22.410 -21.946  0.00  0.00    +0.013 A 
ENDROOT
BRANCH   5   6
ATOM      6  N   UNL     1     -45.148  18.995 -19.854  0.00  0.00    -0.283 N 
ATOM      7  H   UNL     1     -44.523  18.150 -20.052  0.00  0.00    +0.155 HD
ATOM      8  C   UNL     1     -46.130  18.809 -18.962  0.00  0.00    +0.220 A 
ATOM      9  N   UNL     1     -46.018  17.699 -18.213  0.00  0.00    -0.214 NA
ATOM     10  C   UNL     1     -46.942  17.368 -17.283  0.00  0.00    +0.077 A 
ATOM     17  C   UNL     1     -48.039  18.227 -17.065  0.00  0.00    +0.048 A 
ATOM     18  C   UNL     1     -48.151  19.361 -17.890  0.00  0.00    +0.116 A 
ATOM     19  N   UNL     1     -47.173  19.657 -18.792  0.00  0.00    -0.223 NA
BRANCH  10  11
ATOM     11  C   UNL     1     -46.757  16.086 -16.570  0.00  0.00    +0.019 A 
ATOM     12  C   UNL     1     -45.570  15.353 -16.710  0.00  0.00    +0.120 A 
ATOM     13  N   UNL     1     -45.421  14.183 -16.043  0.00  0.00    -0.263 NA
ATOM     14  C   UNL     1     -46.421  13.665 -15.281  0.00  0.00    +0.111 A 
ATOM     15  C   UNL     1     -47.616  14.366 -15.079  0.00  0.00    +0.020 A 
ATOM     16  C   UNL     1     -47.781  15.586 -15.743  0.00  0.00    +0.013 A 
ENDBRANCH  10  11
ENDBRANCH   5   6
BRANCH   3   2
ATOM      1  O   UNL     1     -43.717  23.632 -18.549  0.00  0.00    -0.270 OA
ATOM      2  C   UNL     1     -43.714  23.695 -19.773  0.00  0.00    +0.248 C 
ATOM     24  N   UNL     1     -43.261  24.776 -20.480  0.00  0.00    -0.281 N 
ATOM     25  H   UNL     1     -43.287  24.683 -21.546  0.00  0.00    +0.155 HD
BRANCH  24  26
ATOM     26  C   UNL     1     -42.764  25.997 -19.978  0.00  0.00    +0.036 A 
ATOM     27  C   UNL     1     -41.918  26.011 -18.855  0.00  0.00    +0.035 A 
ATOM     28  C   UNL     1     -41.360  27.212 -18.375  0.00  0.00    +0.059 A 
ATOM     33  C   UNL     1     -41.606  28.405 -19.094  0.00  0.00    +0.038 A 
ATOM     34  C   UNL     1     -42.433  28.406 -20.249  0.00  0.00    +0.050 A 
ATOM     41  C   UNL     1     -42.998  27.185 -20.687  0.00  0.00    +0.049 A 
BRANCH  34  35
ATOM     35  N   UNL     1     -42.719  29.564 -20.929  0.00  0.00    -0.305 N 
ATOM     36  C   UNL     1     -42.966  30.722 -20.378  0.00  0.00    +0.204 A 
ATOM     37  N   UNL     1     -43.210  31.576 -21.258  0.00  0.00    -0.241 NA
ATOM     38  C   UNL     1     -43.136  30.963 -22.552  0.00  0.00    +0.056 A 
ATOM     39  C   UNL     1     -43.371  31.624 -23.884  0.00  0.00    +0.067 C 
ATOM     40  C   UNL     1     -42.817  29.691 -22.244  0.00  0.00    +0.115 A 
ENDBRANCH  34  35
BRANCH  28  29
ATOM     29  C   UNL     1     -40.484  27.200 -17.105  0.00  0.00    +0.417 C 
ATOM     30  F   UNL     1     -39.687  26.095 -17.112  0.00  0.00    -0.166 F 
ATOM     31  F   UNL     1     -41.264  27.111 -16.001  0.00  0.00    -0.166 F 
ATOM     32  F   UNL     1     -39.731  28.319 -16.953  0.00  0.00    -0.166 F 
ENDBRANCH  28  29
ENDBRANCH  24  26
ENDBRANCH   3   2
TORSDOF 6
