REMARK  Name = 6B8J
REMARK  7 active torsions:
REMARK  status: ('A' for Active; 'I' for Inactive)
REMARK    1  A    between atoms: C_2  and  C_3
REMARK    2  A    between atoms: C_4  and  C_20
REMARK    3  A    between atoms: C_9  and  C_12
REMARK    4  A    between atoms: C_25  and  C_26
REMARK    5  A    between atoms: N_27  and  C_28
REMARK    6  A    between atoms: C_28  and  C_29
REMARK    7  A    between atoms: C_29  and  N_30
REMARK                            x       y       z     vdW  Elec       q    Type
REMARK                         _______ _______ _______ _____ _____    ______ ____
ROOT
ATOM      7  C   UNL     1      -2.613  44.724  17.329  0.00  0.00    +0.059 A 
ATOM      8  C   UNL     1      -2.553  45.485  18.419  0.00  0.00    +0.099 A 
ATOM      9  N   UNL     1      -2.230  45.046  19.565  0.00  0.00    -0.330 N 
ATOM     10  H   UNL     1      -2.201  45.689  20.420  0.00  0.00    +0.168 HD
ATOM     11  C   UNL     1      -1.941  43.805  19.657  0.00  0.00    +0.224 A 
ATOM     12  N   UNL     1      -1.599  43.399  20.887  0.00  0.00    -0.246 NA
ATOM     24  N   UNL     1      -1.940  42.925  18.694  0.00  0.00    -0.212 NA
ATOM     25  C   UNL     1      -2.268  43.331  17.497  0.00  0.00    +0.088 A 
ENDROOT
BRANCH  25  26
ATOM     26  C   UNL     1      -2.244  42.264  16.442  0.00  0.00    +0.020 A 
ATOM     27  C   UNL     1      -3.398  41.864  15.742  0.00  0.00    +0.051 A 
ATOM     28 CL   UNL     1      -4.942  42.626  16.099  0.00  0.00    -0.083 Cl
ATOM     29  C   UNL     1      -3.349  40.877  14.778  0.00  0.00    +0.040 A 
ATOM     30  C   UNL     1      -2.130  40.315  14.533  0.00  0.00    +0.042 A 
ATOM     31  C   UNL     1      -0.971  40.687  15.206  0.00  0.00    +0.021 A 
ATOM     32 CL   UNL     1      -2.010  39.062  13.325  0.00  0.00    -0.084 Cl
ATOM     33  C   UNL     1      -1.043  41.668  16.159  0.00  0.00    +0.013 A 
ENDBRANCH  25  26
BRANCH   7   6
ATOM      1  C   UNL     1      -3.074  45.791  13.925  0.00  0.00    +0.134 A 
ATOM      2  C   UNL     1      -4.117  46.409  14.604  0.00  0.00    +0.033 A 
ATOM      3  C   UNL     1      -5.126  47.293  14.057  0.00  0.00    +0.065 C 
ATOM      4  N   UNL     1      -4.089  46.100  15.914  0.00  0.00    -0.342 N 
ATOM      5  H   UNL     1      -4.769  46.427  16.672  0.00  0.00    +0.167 HD
ATOM      6  C   UNL     1      -2.999  45.274  16.071  0.00  0.00    +0.142 A 
ATOM     34  N   UNL     1      -2.367  45.060  14.883  0.00  0.00    -0.236 NA
ENDBRANCH   7   6
BRANCH  12  13
ATOM     13  C   UNL     1      -1.245  42.074  21.118  0.00  0.00    +0.195 C 
BRANCH  13  14
ATOM     14  C   UNL     1      -2.424  41.310  21.749  0.00  0.00    +0.314 C 
BRANCH  14  15
ATOM     15  N   UNL     1      -2.099  39.943  21.886  0.00  0.00    -0.076 NA
ATOM     16  C   UNL     1      -2.059  39.084  20.832  0.00  0.00    +0.360 C 
ATOM     17  N   UNL     1      -1.704  37.802  21.111  0.00  0.00    -0.047 NA
ATOM     18  C   UNL     1      -1.642  36.952  20.101  0.00  0.00    +0.254 C 
ATOM     19  C   UNL     1      -1.935  37.289  18.782  0.00  0.00    +0.163 C 
ATOM     22  C   UNL     1      -2.305  38.602  18.486  0.00  0.00    +0.013 C 
ATOM     23  C   UNL     1      -2.371  39.526  19.507  0.00  0.00    +0.103 C 
BRANCH  19  20
ATOM     20  C   UNL     1      -1.852  36.319  17.776  0.00  0.00    +0.084 C 
ATOM     21  N   UNL     1      -1.780  35.525  16.945  0.00  0.00    -0.195 NA
ENDBRANCH  19  20
ENDBRANCH  14  15
ENDBRANCH  13  14
ENDBRANCH  12  13
TORSDOF 6
