REMARK  Name = 5GTZ
REMARK  14 active torsions:
REMARK  status: ('A' for Active; 'I' for Inactive)
REMARK    1  A    between atoms: C_7  and  C_17
REMARK    2  A    between atoms: C_8  and  O_40
REMARK    3  A    between atoms: C_9  and  C_31
REMARK    4  A    between atoms: C_10  and  C_31
REMARK    5  A    between atoms: C_17  and  N_35
REMARK    6  A    between atoms: C_18  and  C_19
REMARK    7  A    between atoms: C_19  and  C_24
REMARK    8  A    between atoms: C_25  and  N_34
REMARK    9  A    between atoms: C_26  and  N_33
REMARK   10  A    between atoms: C_27  and  N_32
REMARK   11  A    between atoms: C_28  and  O_40
REMARK   12  A    between atoms: C_29  and  N_36
REMARK   13  A    between atoms: C_30  and  S_41
REMARK   14  A    between atoms: C_31  and  S_41
REMARK                            x       y       z     vdW  Elec       q    Type
REMARK                         _______ _______ _______ _____ _____    ______ ____
ROOT
ATOM      1  C   UNL     1     -52.734   0.148 -22.690  0.00  0.00    +0.154 A 
ATOM      2  N   UNL     1     -51.788  -0.465 -23.420  0.00  0.00    -0.227 NA
ATOM     15  N   UNL     1     -52.813   0.103 -21.348  0.00  0.00    -0.311 N 
ATOM     16  H   UNL     1     -52.077  -0.456 -20.809  0.00  0.00    +0.170 HD
ATOM     17  C   UNL     1     -53.778   0.731 -20.656  0.00  0.00    +0.199 A 
ATOM     18  N   UNL     1     -53.844   0.665 -19.316  0.00  0.00    -0.282 N 
ATOM     19  H   UNL     1     -54.700   1.077 -18.823  0.00  0.00    +0.155 HD
ATOM     42  N   UNL     1     -54.721   1.448 -21.316  0.00  0.00    -0.223 NA
ATOM     43  C   UNL     1     -54.702   1.528 -22.718  0.00  0.00    +0.138 A 
ATOM     44  C   UNL     1     -53.688   0.866 -23.412  0.00  0.00    +0.101 A 
ATOM     45 CL   UNL     1     -53.649   0.954 -25.182  0.00  0.00    -0.078 Cl
ENDROOT
BRANCH   2   3
ATOM      3  C   UNL     1     -50.760  -1.094 -22.840  0.00  0.00    +0.091 A 
ATOM      4  C   UNL     1     -50.186  -2.139 -23.552  0.00  0.00    +0.114 A 
ATOM     11  C   UNL     1     -49.125  -2.833 -22.990  0.00  0.00    +0.029 A 
ATOM     12  C   UNL     1     -48.606  -2.496 -21.754  0.00  0.00    +0.002 A 
ATOM     13  C   UNL     1     -49.163  -1.447 -21.036  0.00  0.00    +0.002 A 
ATOM     14  C   UNL     1     -50.224  -0.746 -21.596  0.00  0.00    +0.029 A 
BRANCH   4   5
ATOM      5  S   UNL     1     -50.716  -2.724 -25.101  0.00  0.00    +0.001 S 
ATOM      6  O   UNL     1     -49.455  -3.200 -25.831  0.00  0.00    -0.169 OA
ATOM      7  O   UNL     1     -51.725  -3.869 -24.897  0.00  0.00    -0.169 OA
BRANCH   5   8
ATOM      8  C   UNL     1     -51.470  -1.425 -26.326  0.00  0.00    +0.130 C 
ATOM      9  C   UNL     1     -52.099  -2.105 -27.573  0.00  0.00    +0.032 C 
ATOM     10  C   UNL     1     -50.276  -0.565 -26.709  0.00  0.00    +0.032 C 
ENDBRANCH   5   8
ENDBRANCH   4   5
ENDBRANCH   2   3
BRANCH  18  20
ATOM     20  C   UNL     1     -52.877   0.102 -18.569  0.00  0.00    +0.078 A 
ATOM     21  C   UNL     1     -52.480   0.854 -17.485  0.00  0.00    +0.143 A 
ATOM     24  C   UNL     1     -51.504   0.404 -16.624  0.00  0.00    +0.072 A 
ATOM     25  C   UNL     1     -50.911  -0.832 -16.820  0.00  0.00    +0.055 A 
ATOM     34  C   UNL     1     -51.310  -1.626 -17.906  0.00  0.00    +0.057 A 
ATOM     41  C   UNL     1     -52.300  -1.146 -18.771  0.00  0.00    +0.052 A 
BRANCH  25  26
ATOM     26  N   UNL     1     -49.949  -1.193 -15.949  0.00  0.00    -0.326 N 
ATOM     27  C   UNL     1     -50.175  -1.013 -14.479  0.00  0.00    +0.120 C 
ATOM     28  C   UNL     1     -49.246  -1.893 -13.632  0.00  0.00    +0.103 C 
ATOM     29  N   UNL     1     -47.872  -1.933 -14.202  0.00  0.00    -0.300 NA
ATOM     30  C   UNL     1     -47.922  -2.565 -15.527  0.00  0.00    +0.103 C 
ATOM     33  C   UNL     1     -48.609  -1.620 -16.466  0.00  0.00    +0.120 C 
BRANCH  29  31
ATOM     31  C   UNL     1     -46.893  -2.679 -13.383  0.00  0.00    +0.081 C 
ATOM     32  C   UNL     1     -45.529  -2.770 -14.093  0.00  0.00    +0.020 C 
ENDBRANCH  29  31
ENDBRANCH  25  26
BRANCH  34  35
ATOM     35  N   UNL     1     -50.686  -2.815 -18.050  0.00  0.00    -0.284 N 
ATOM     36  H   UNL     1     -49.828  -3.003 -17.438  0.00  0.00    +0.155 HD
ATOM     37  C   UNL     1     -51.067  -3.786 -18.912  0.00  0.00    +0.217 C 
ATOM     38  O   UNL     1     -52.036  -3.765 -19.664  0.00  0.00    -0.276 OA
BRANCH  37  39
ATOM     39  C   UNL     1     -50.160  -5.016 -18.911  0.00  0.00    +0.093 C 
ATOM     40  C   UNL     1     -50.774  -6.123 -18.062  0.00  0.00    +0.013 C 
ENDBRANCH  37  39
ENDBRANCH  34  35
BRANCH  21  22
ATOM     22  O   UNL     1     -53.108   2.051 -17.337  0.00  0.00    -0.493 OA
ATOM     23  C   UNL     1     -52.762   2.657 -16.092  0.00  0.00    +0.277 C 
ENDBRANCH  21  22
ENDBRANCH  18  20
TORSDOF 9
