REMARK  Name = 3hng_ligand
REMARK  5 active torsions:
REMARK  status: ('A' for Active; 'I' for Inactive)
REMARK    1  A    between atoms: C10_7  and  N9_8
REMARK    2  A    between atoms: C7_9  and  C2_11
REMARK    3  A    between atoms: C3_12  and  N17_17
REMARK    4  A    between atoms: N17_17  and  C18_18
REMARK    5  A    between atoms: C18_18  and  C19_19
REMARK                            x       y       z     vdW  Elec       q    Type
REMARK                         _______ _______ _______ _____ _____    ______ ____
ROOT
ATOM      9  C   UNL     1       5.774  17.904  34.514  0.00  0.00    +0.073 A 
ATOM     10  C   UNL     1       5.989  18.769  35.684  0.00  0.00    +0.010 A 
ATOM     11  C   UNL     1       5.939  18.223  36.984  0.00  0.00    -0.017 A 
ATOM     12  C   UNL     1       5.634  16.819  37.168  0.00  0.00    -0.007 A 
ATOM     13  C   UNL     1       5.323  15.994  36.029  0.00  0.00    +0.015 A 
ATOM     14  C   UNL     1       5.418  16.566  34.725  0.00  0.00    +0.062 A 
ENDROOT
BRANCH   9   8
ATOM      6  N   UNL     1       6.191  19.947  33.176  0.00  0.00    -0.235 N 
ATOM      7  H   UNL     1       6.607  20.317  34.007  0.00  0.00    +0.225 HD
ATOM      8  C   UNL     1       5.650  18.614  33.160  0.00  0.00    +0.225 C 
ATOM     24  O   UNL     1       5.161  18.174  32.177  0.00  0.00    -0.380 OA
BRANCH   6   5
ATOM      1 CL   UNL     1       5.595  23.556  28.545  0.00  0.00    -0.085 Cl
ATOM      2  C   UNL     1       5.857  22.535  29.948  0.00  0.00    +0.024 A 
ATOM      3  C   UNL     1       4.644  21.801  30.444  0.00  0.00    -0.003 A 
ATOM      4  C   UNL     1       4.800  20.979  31.549  0.00  0.00    +0.010 A 
ATOM      5  C   UNL     1       6.124  20.731  31.990  0.00  0.00    +0.066 A 
ATOM     25  C   UNL     1       7.276  21.526  31.603  0.00  0.00    +0.010 A 
ATOM     26  C   UNL     1       7.132  22.427  30.491  0.00  0.00    -0.003 A 
ENDBRANCH   6   5
ENDBRANCH   9   8
BRANCH  14  15
ATOM     15  N   UNL     1       5.038  15.659  33.708  0.00  0.00    -0.305 N 
ATOM     16  H   UNL     1       5.077  16.186  32.824  0.00  0.00    +0.181 HD
BRANCH  15  17
ATOM     17  C   UNL     1       4.618  14.317  33.360  0.00  0.00    +0.207 C 
BRANCH  17  18
ATOM     18  C   UNL     1       3.240  13.976  33.939  0.00  0.00    -0.002 A 
ATOM     19  C   UNL     1       2.269  15.070  33.983  0.00  0.00    +0.035 A 
ATOM     20  C   UNL     1       0.973  14.824  34.380  0.00  0.00    +0.083 A 
ATOM     21  N   UNL     1       0.546  13.492  34.496  0.00  0.00    -0.307 NA
ATOM     22  C   UNL     1       1.491  12.434  34.418  0.00  0.00    +0.083 A 
ATOM     23  C   UNL     1       2.825  12.696  33.988  0.00  0.00    +0.035 A 
ENDBRANCH  17  18
ENDBRANCH  15  17
ENDBRANCH  14  15
TORSDOF 5
