REMARK  Name = 1nvs_ligand
REMARK  0 active torsions:
REMARK  status: ('A' for Active; 'I' for Inactive)
REMARK                            x       y       z     vdW  Elec       q    Type
REMARK                         _______ _______ _______ _____ _____    ______ ____
ROOT
ATOM      1  N   UNL     1       6.337  10.263  19.453  0.00  0.00    -0.203 N 
ATOM      2  H   UNL     1       6.679  11.100  19.880  0.00  0.00    +0.221 HD
ATOM      3  C   UNL     1       7.098   9.256  18.615  0.00  0.00    +0.225 A 
ATOM      4  O   UNL     1       8.280   9.347  18.344  0.00  0.00    -0.373 OA
ATOM      5  C   UNL     1       6.208   8.180  18.189  0.00  0.00    +0.053 A 
ATOM      6  C   UNL     1       6.474   7.015  17.386  0.00  0.00    +0.012 A 
ATOM      7  C   UNL     1       7.602   6.439  16.708  0.00  0.00    -0.003 A 
ATOM      8  C   UNL     1       8.995   6.787  16.534  0.00  0.00    -0.010 A 
ATOM      9  C   UNL     1       9.890   5.978  15.776  0.00  0.00    -0.023 A 
ATOM     10  C   UNL     1       9.412   4.783  15.167  0.00  0.00    -0.016 A 
ATOM     11  C   UNL     1       8.042   4.413  15.319  0.00  0.00    +0.015 A 
ATOM     12  C   UNL     1       7.148   5.239  16.086  0.00  0.00    +0.071 A 
ATOM     13  N   UNL     1       5.800   5.103  16.376  0.00  0.00    -0.232 N 
ATOM     14  C   UNL     1       4.959   3.974  15.906  0.00  0.00    +0.256 C 
ATOM     15  C   UNL     1       4.119   4.391  14.692  0.00  0.00    +0.069 C 
ATOM     16  C   UNL     1       2.722   4.673  15.246  0.00  0.00    +0.069 C 
ATOM     17  C   UNL     1       2.814   4.402  16.753  0.00  0.00    +0.256 C 
ATOM     18  N   UNL     1       2.928   5.675  17.519  0.00  0.00    -0.232 N 
ATOM     19  C   UNL     1       4.093   6.417  17.669  0.00  0.00    +0.106 A 
ATOM     20  C   UNL     1       3.783   7.553  18.464  0.00  0.00    +0.012 A 
ATOM     21  C   UNL     1       2.387   7.476  18.799  0.00  0.00    -0.003 A 
ATOM     22  C   UNL     1       1.460   8.287  19.560  0.00  0.00    -0.010 A 
ATOM     23  C   UNL     1       0.085   7.928  19.709  0.00  0.00    -0.023 A 
ATOM     24  C   UNL     1      -0.405   6.739  19.091  0.00  0.00    -0.016 A 
ATOM     25  C   UNL     1       0.490   5.922  18.335  0.00  0.00    +0.015 A 
ATOM     26  C   UNL     1       1.874   6.292  18.193  0.00  0.00    +0.071 A 
ATOM     27  O   UNL     1       3.999   3.600  16.907  0.00  0.00    -0.320 OA
ATOM     28  C   UNL     1       5.364   6.165  17.160  0.00  0.00    +0.106 A 
ATOM     29  C   UNL     1       4.880   8.445  18.722  0.00  0.00    +0.053 A 
ATOM     30  C   UNL     1       4.927   9.693  19.487  0.00  0.00    +0.225 A 
ATOM     31  O   UNL     1       3.987  10.213  20.068  0.00  0.00    -0.373 OA
ENDROOT
TORSDOF 0
