REMARK  Name = 4CFE
REMARK  5 active torsions:
REMARK  status: ('A' for Active; 'I' for Inactive)
REMARK    1  A    between atoms: C_4  and  N_34
REMARK    2  A    between atoms: C_5  and  O_32
REMARK    3  A    between atoms: C_6  and  C_7
REMARK    4  A    between atoms: O_32  and  C_33
REMARK    5  A    between atoms: N_34  and  C_35
REMARK                            x       y       z     vdW  Elec       q    Type
REMARK                         _______ _______ _______ _____ _____    ______ ____
ROOT
ATOM      1  O   UNL     1     474.451  28.912 990.014  0.00  0.00    -0.328 OA
ATOM      2  C   UNL     1     475.423  28.668 990.989  0.00  0.00    +0.174 C 
ATOM      3  N   UNL     1     476.776  28.428 990.450  0.00  0.00    -0.307 N 
ATOM      4  C   UNL     1     478.023  28.717 991.000  0.00  0.00    +0.053 A 
ATOM      5  C   UNL     1     478.423  29.333 992.192  0.00  0.00    +0.026 A 
ATOM      6  C   UNL     1     479.773  29.490 992.445  0.00  0.00    +0.002 A 
ATOM      7  C   UNL     1     480.736  29.050 991.563  0.00  0.00    +0.001 A 
ATOM      8  C   UNL     1     480.386  28.433 990.377  0.00  0.00    +0.010 A 
ATOM      9  C   UNL     1     479.027  28.274 990.110  0.00  0.00    +0.008 A 
ATOM     10  C   UNL     1     478.353  27.674 988.967  0.00  0.00    +0.015 A 
ATOM     11  C   UNL     1     478.798  27.077 987.795  0.00  0.00    -0.008 A 
ATOM     12  C   UNL     1     480.179  26.815 987.249  0.00  0.00    +0.141 C 
ATOM     13  N   UNL     1     479.982  26.146 985.959  0.00  0.00    -0.307 N 
ATOM     14  H   UNL     1     480.760  25.817 985.302  0.00  0.00    +0.149 HD
ATOM     15  C   UNL     1     478.663  26.014 985.739  0.00  0.00    +0.245 C 
ATOM     16  O   UNL     1     478.176  25.498 984.753  0.00  0.00    -0.270 OA
ATOM     17  C   UNL     1     477.896  26.584 986.860  0.00  0.00    +0.052 A 
ATOM     18  C   UNL     1     476.507  26.688 987.110  0.00  0.00    +0.022 A 
ATOM     19  C   UNL     1     475.302  26.294 986.382  0.00  0.00    +0.009 A 
ATOM     20  C   UNL     1     475.115  25.658 985.154  0.00  0.00    +0.010 A 
ATOM     21  C   UNL     1     473.808  25.433 984.756  0.00  0.00    +0.001 A 
ATOM     22  C   UNL     1     472.731  25.818 985.534  0.00  0.00    +0.002 A 
ATOM     23  C   UNL     1     472.893  26.450 986.753  0.00  0.00    +0.026 A 
ATOM     24  C   UNL     1     474.199  26.686 987.174  0.00  0.00    +0.052 A 
ATOM     25  N   UNL     1     474.708  27.284 988.320  0.00  0.00    -0.312 N 
ATOM     26  C   UNL     1     476.062  27.291 988.291  0.00  0.00    +0.077 A 
ATOM     27  C   UNL     1     476.981  27.789 989.226  0.00  0.00    +0.077 A 
ATOM     28  C   UNL     1     475.343  29.955 991.811  0.00  0.00    +0.069 C 
ATOM     29  C   UNL     1     475.068  27.541 991.945  0.00  0.00    +0.187 C 
ATOM     32  C   UNL     1     473.582  27.216 991.768  0.00  0.00    +0.091 C 
ATOM     36  C   UNL     1     473.400  26.723 990.328  0.00  0.00    +0.076 C 
ATOM     37  C   UNL     1     473.866  27.818 989.380  0.00  0.00    +0.224 C 
ENDROOT
BRANCH  32  33
ATOM     33  N   UNL     1     473.170  26.180 992.726  0.00  0.00    -0.314 NA
ATOM     34  H   UNL     1     473.791  25.315 992.623  0.00  0.00    +0.122 HD
ATOM     35  C   UNL     1     473.327  26.758 994.068  0.00  0.00    +0.101 C 
ENDBRANCH  32  33
BRANCH  29  30
ATOM     30  O   UNL     1     475.799  26.380 991.538  0.00  0.00    -0.374 OA
ATOM     31  C   UNL     1     476.590  25.930 992.638  0.00  0.00    +0.194 C 
ENDBRANCH  29  30
TORSDOF 2
