REMARK  Name = 5A4E
REMARK  3 active torsions:
REMARK  status: ('A' for Active; 'I' for Inactive)
REMARK    1  A    between atoms: C_1  and  C_2
REMARK    2  A    between atoms: C_13  and  O_14
REMARK    3  A    between atoms: O_14  and  C_15
REMARK                            x       y       z     vdW  Elec       q    Type
REMARK                         _______ _______ _______ _____ _____    ______ ____
ROOT
ATOM      1  C   UNL     1       3.504  18.231 -43.844  0.00  0.00    +0.109 C 
ATOM      2  C   UNL     1       2.913  17.678 -42.546  0.00  0.00    +0.216 C 
ATOM      3  N   UNL     1       3.189  16.389 -42.306  0.00  0.00    -0.265 N 
ATOM      4  H   UNL     1       2.830  15.895 -41.428  0.00  0.00    +0.157 HD
ATOM      5  C   UNL     1       3.930  15.750 -43.209  0.00  0.00    +0.165 A 
ATOM      6  N   UNL     1       4.970  16.247 -43.884  0.00  0.00    -0.225 NA
ATOM      7  C   UNL     1       5.537  15.364 -44.737  0.00  0.00    +0.084 A 
ATOM      8  C   UNL     1       4.918  14.165 -44.716  0.00  0.00    +0.041 A 
ATOM      9  C   UNL     1       5.312  13.148 -45.481  0.00  0.00    +0.021 A 
ATOM     10  C   UNL     1       6.391  13.294 -46.336  0.00  0.00    +0.047 A 
ATOM     11  C   UNL     1       7.039  14.517 -46.374  0.00  0.00    +0.122 A 
ATOM     14  C   UNL     1       6.584  15.545 -45.552  0.00  0.00    +0.074 A 
ATOM     15  S   UNL     1       3.698  14.254 -43.641  0.00  0.00    -0.052 S 
ATOM     16  O   UNL     1       2.238  18.388 -41.799  0.00  0.00    -0.276 OA
ENDROOT
BRANCH  11  12
ATOM     12  O   UNL     1       8.106  14.682 -47.207  0.00  0.00    -0.495 OA
ATOM     13  C   UNL     1       8.372  16.064 -47.456  0.00  0.00    +0.277 C 
ENDBRANCH  11  12
TORSDOF 1
