REMARK  Name = 4I41
REMARK  16 active torsions:
REMARK  status: ('A' for Active; 'I' for Inactive)
REMARK    1  A    between atoms: O_1  and  C_2
REMARK    2  A    between atoms: C_2  and  C_3
REMARK    3  A    between atoms: C_3  and  N_4
REMARK    4  A    between atoms: N_4  and  C_5
REMARK    5  A    between atoms: C_5  and  C_6
REMARK    6  A    between atoms: C_6  and  N_7
REMARK    7  A    between atoms: N_7  and  C_8
REMARK    8  A    between atoms: C_15  and  O_16
REMARK    9  A    between atoms: C_19  and  O_20
REMARK   10  A    between atoms: C_25  and  N_26
REMARK   11  A    between atoms: N_26  and  C_27
REMARK   12  A    between atoms: C_27  and  C_28
REMARK   13  A    between atoms: C_28  and  N_29
REMARK   14  A    between atoms: N_29  and  C_30
REMARK   15  A    between atoms: C_30  and  C_31
REMARK   16  A    between atoms: C_31  and  O_32
REMARK                            x       y       z     vdW  Elec       q    Type
REMARK                         _______ _______ _______ _____ _____    ______ ____
ROOT
ATOM     11  C   UNL     1     -17.128 -35.189   2.681  0.00  0.00    +0.039 A 
ATOM     12  C   UNL     1     -17.910 -36.091   1.782  0.00  0.00    +0.056 A 
ATOM     13  C   UNL     1     -18.943 -36.961   2.409  0.00  0.00    +0.056 A 
ATOM     14  C   UNL     1     -19.157 -36.892   3.882  0.00  0.00    +0.039 A 
ATOM     25  C   UNL     1     -18.386 -36.027   4.660  0.00  0.00    +0.025 A 
ATOM     26  C   UNL     1     -19.739 -37.878   1.562  0.00  0.00    +0.200 C 
ATOM     27  O   UNL     1     -20.607 -38.596   2.081  0.00  0.00    -0.286 OA
ATOM     28  C   UNL     1     -19.502 -37.942   0.099  0.00  0.00    +0.078 A 
ATOM     29  C   UNL     1     -20.297 -38.846  -0.748  0.00  0.00    +0.129 A 
ATOM     32  C   UNL     1     -20.068 -38.904  -2.119  0.00  0.00    +0.050 A 
ATOM     33  C   UNL     1     -19.097 -38.096  -2.736  0.00  0.00    +0.050 A 
ATOM     34  C   UNL     1     -18.298 -37.191  -2.016  0.00  0.00    +0.129 A 
ATOM     37  C   UNL     1     -18.473 -37.086  -0.534  0.00  0.00    +0.078 A 
ATOM     38  C   UNL     1     -17.669 -36.145   0.311  0.00  0.00    +0.200 C 
ATOM     39  O   UNL     1     -16.799 -35.407  -0.204  0.00  0.00    -0.286 OA
ATOM     40  C   UNL     1     -17.411 -35.203   4.075  0.00  0.00    +0.025 A 
ENDROOT
BRANCH  11   9
ATOM      9  N   UNL     1     -16.167 -34.377   2.152  0.00  0.00    -0.342 N 
ATOM     10  H   UNL     1     -16.438 -33.460   1.672  0.00  0.00    +0.146 HD
BRANCH   9   8
ATOM      8  C   UNL     1     -14.764 -34.773   2.248  0.00  0.00    +0.116 C 
BRANCH   8   7
ATOM      7  C   UNL     1     -14.128 -34.510   3.617  0.00  0.00    +0.099 C 
BRANCH   7   5
ATOM      5  N   UNL     1     -12.691 -34.385   3.543  0.00  0.00    -0.312 NA
ATOM      6  H   UNL     1     -12.294 -35.379   3.533  0.00  0.00    +0.122 HD
BRANCH   5   4
ATOM      4  C   UNL     1     -11.979 -33.662   4.569  0.00  0.00    +0.108 C 
BRANCH   4   3
ATOM      3  C   UNL     1     -10.684 -33.109   3.999  0.00  0.00    +0.171 C 
BRANCH   3   1
ATOM      1  O   UNL     1      -9.567 -33.651   4.717  0.00  0.00    -0.394 OA
ATOM      2  H   UNL     1      -9.640 -33.387   5.731  0.00  0.00    +0.209 HD
ENDBRANCH   3   1
ENDBRANCH   4   3
ENDBRANCH   5   4
ENDBRANCH   7   5
ENDBRANCH   8   7
ENDBRANCH   9   8
ENDBRANCH  11   9
BRANCH  14  15
ATOM     15  N   UNL     1     -20.079 -37.693   4.458  0.00  0.00    -0.342 N 
ATOM     16  H   UNL     1     -20.999 -37.307   4.845  0.00  0.00    +0.146 HD
BRANCH  15  17
ATOM     17  C   UNL     1     -19.752 -39.114   4.524  0.00  0.00    +0.116 C 
BRANCH  17  18
ATOM     18  C   UNL     1     -20.585 -39.903   5.511  0.00  0.00    +0.099 C 
BRANCH  18  19
ATOM     19  N   UNL     1     -19.950 -39.882   6.821  0.00  0.00    -0.312 NA
ATOM     20  H   UNL     1     -19.831 -38.856   7.100  0.00  0.00    +0.122 HD
BRANCH  19  21
ATOM     21  C   UNL     1     -20.625 -40.552   7.921  0.00  0.00    +0.108 C 
BRANCH  21  22
ATOM     22  C   UNL     1     -20.493 -42.063   7.812  0.00  0.00    +0.171 C 
BRANCH  22  23
ATOM     23  O   UNL     1     -19.098 -42.333   7.966  0.00  0.00    -0.394 OA
ATOM     24  H   UNL     1     -18.561 -41.844   7.208  0.00  0.00    +0.209 HD
ENDBRANCH  22  23
ENDBRANCH  21  22
ENDBRANCH  19  21
ENDBRANCH  18  19
ENDBRANCH  17  18
ENDBRANCH  15  17
ENDBRANCH  14  15
BRANCH  29  30
ATOM     30  O   UNL     1     -21.223 -39.638  -0.163  0.00  0.00    -0.506 OA
ATOM     31  H   UNL     1     -22.167 -39.438  -0.577  0.00  0.00    +0.292 HD
ENDBRANCH  29  30
BRANCH  34  35
ATOM     35  O   UNL     1     -17.354 -36.415  -2.660  0.00  0.00    -0.506 OA
ATOM     36  H   UNL     1     -17.569 -35.399  -2.503  0.00  0.00    +0.292 HD
ENDBRANCH  34  35
TORSDOF 16
