REMARK  Name = 2baj_ligand
REMARK  7 active torsions:
REMARK  status: ('A' for Active; 'I' for Inactive)
REMARK    1  A    between atoms: N18_3  and  C19_4
REMARK    2  A    between atoms: N16_12  and  C11_13
REMARK    3  A    between atoms: C9_15  and  C12_16
REMARK    4  A    between atoms: C12_16  and  C15_17
REMARK    5  A    between atoms: C12_16  and  C14_18
REMARK    6  A    between atoms: C12_16  and  C13_19
REMARK    7  A    between atoms: N7_21  and  C5_22
REMARK                            x       y       z     vdW  Elec       q    Type
REMARK                         _______ _______ _______ _____ _____    ______ ____
ROOT
ATOM      5  C   UNL     1      11.377   0.056  30.312  0.00  0.00    +0.220 A 
ATOM      6  N   UNL     1      10.626   0.580  31.308  0.00  0.00    -0.103 N 
ATOM     13  N   UNL     1       9.910   1.704  30.855  0.00  0.00    -0.165 NA
ATOM     14  C   UNL     1      10.272   1.772  29.565  0.00  0.00    -0.002 A 
ATOM     19  C   UNL     1      11.157   0.774  29.130  0.00  0.00    +0.003 A 
ENDROOT
BRANCH   5   3
ATOM      1  O   UNL     1      13.816  -0.500  29.214  0.00  0.00    -0.379 OA
ATOM      2  C   UNL     1      13.286  -1.299  29.974  0.00  0.00    +0.324 C 
ATOM      3  N   UNL     1      12.100  -1.055  30.537  0.00  0.00    -0.179 N 
ATOM      4  H   UNL     1      11.727  -1.740  31.163  0.00  0.00    +0.234 HD
ATOM     20  N   UNL     1      13.873  -2.458  30.284  0.00  0.00    -0.212 N 
ATOM     21  H   UNL     1      13.402  -3.070  30.919  0.00  0.00    +0.227 HD
BRANCH  20  22
ATOM     22  C   UNL     1      15.072  -2.853  29.787  0.00  0.00    +0.082 A 
ATOM     23  C   UNL     1      16.147  -1.988  29.549  0.00  0.00    +0.010 A 
ATOM     24  C   UNL     1      17.360  -2.473  29.037  0.00  0.00    -0.017 A 
ATOM     25  C   UNL     1      17.551  -3.832  28.716  0.00  0.00    -0.014 A 
ATOM     26  C   UNL     1      16.486  -4.709  28.928  0.00  0.00    +0.041 A 
ATOM     27 CL   UNL     1      16.583  -6.468  28.608  0.00  0.00    -0.074 Cl
ATOM     28  C   UNL     1      15.219  -4.180  29.492  0.00  0.00    +0.073 A 
ATOM     29 CL   UNL     1      13.877  -5.305  29.743  0.00  0.00    -0.083 Cl
ENDBRANCH  20  22
ENDBRANCH   5   3
BRANCH   6   7
ATOM      7  C   UNL     1      10.551   0.234  32.644  0.00  0.00    +0.129 A 
ATOM      8  C   UNL     1       9.347   0.221  33.377  0.00  0.00    +0.040 A 
ATOM      9  C   UNL     1       9.229  -0.101  34.770  0.00  0.00    -0.002 A 
ATOM     10  C   UNL     1      10.376  -0.419  35.521  0.00  0.00    -0.008 A 
ATOM     11  C   UNL     1      11.606  -0.387  34.828  0.00  0.00    -0.002 A 
ATOM     12  C   UNL     1      11.652  -0.118  33.426  0.00  0.00    +0.040 A 
ENDBRANCH   6   7
BRANCH  14  15
ATOM     15  C   UNL     1       9.691   2.845  28.666  0.00  0.00    -0.045 C 
ATOM     16  C   UNL     1       9.055   3.933  29.531  0.00  0.00    -0.045 C 
ATOM     17  C   UNL     1      10.808   3.461  27.824  0.00  0.00    -0.045 C 
ATOM     18  C   UNL     1       8.620   2.156  27.820  0.00  0.00    -0.045 C 
ENDBRANCH  14  15
TORSDOF 4
