REMARK  Name = 3R8L
REMARK  6 active torsions:
REMARK  status: ('A' for Active; 'I' for Inactive)
REMARK    1  A    between atoms: C_6  and  C_7
REMARK    2  A    between atoms: C_7  and  C_8
REMARK    3  A    between atoms: C_7  and  C_9
REMARK    4  A    between atoms: C_7  and  C_10
REMARK    5  A    between atoms: C_13  and  C_14
REMARK    6  A    between atoms: C_14  and  N_15
REMARK                            x       y       z     vdW  Elec       q    Type
REMARK                         _______ _______ _______ _____ _____    ______ ____
ROOT
ATOM      1  N   UNL     1     104.119 138.374 100.054  0.00  0.00    -0.169 NA
ATOM      2  C   UNL     1     104.273 137.104  99.603  0.00  0.00    +0.154 A 
ATOM      8  C   UNL     1     105.432 137.064  98.813  0.00  0.00    +0.006 A 
ATOM      9  C   UNL     1     106.103 135.934  98.057  0.00  0.00    +0.043 C 
ATOM     10  C   UNL     1     106.994 136.468  96.850  0.00  0.00    -0.001 C 
ATOM     15  C   UNL     1     107.926 137.644  97.376  0.00  0.00    +0.010 C 
ATOM     16  C   UNL     1     107.170 138.797  98.112  0.00  0.00    +0.055 C 
ATOM     17  C   UNL     1     105.924 138.349  98.832  0.00  0.00    +0.040 A 
ATOM     18  N   UNL     1     105.119 139.120  99.581  0.00  0.00    -0.281 N 
ATOM     19  H   UNL     1     105.257 140.164  99.768  0.00  0.00    +0.189 HD
ENDROOT
BRANCH  10  11
ATOM     11  C   UNL     1     107.747 135.281  96.069  0.00  0.00    -0.035 C 
ATOM     12  C   UNL     1     109.282 135.497  95.993  0.00  0.00    +0.011 C 
ATOM     13  C   UNL     1     107.478 133.855  96.637  0.00  0.00    +0.011 C 
ATOM     14  C   UNL     1     107.246 135.282  94.614  0.00  0.00    +0.011 C 
ENDBRANCH  10  11
BRANCH   2   3
ATOM      3  C   UNL     1     103.320 135.994  99.934  0.00  0.00    +0.305 C 
ATOM      4  O   UNL     1     103.510 134.751  99.461  0.00  0.00    -0.265 OA
BRANCH   3   5
ATOM      5  N   UNL     1     102.241 136.244 100.729  0.00  0.00    -0.082 NA
ATOM      6  N   UNL     1     101.599 135.162 101.352  0.00  0.00    -0.211 NA
ATOM      7  H   UNL     1     100.750 135.333 101.981  0.00  0.00    +0.209 HD
ENDBRANCH   3   5
ENDBRANCH   2   3
TORSDOF 3
