REMARK  Name = 5HO8
REMARK  5 active torsions:
REMARK  status: ('A' for Active; 'I' for Inactive)
REMARK    1  A    between atoms: C_4  and  C_5
REMARK    2  A    between atoms: C_7  and  C_19
REMARK    3  A    between atoms: C_9  and  C_10
REMARK    4  A    between atoms: C_9  and  C_20
REMARK    5  A    between atoms: C_19  and  C_20
REMARK                            x       y       z     vdW  Elec       q    Type
REMARK                         _______ _______ _______ _____ _____    ______ ____
ROOT
ATOM      9  C   UNL     1      42.535  16.434   3.968  0.00  0.00    +0.078 A 
ATOM     10  N   UNL     1      43.777  16.298   4.485  0.00  0.00    -0.215 NA
ATOM     11  C   UNL     1      44.617  17.327   4.564  0.00  0.00    +0.213 A 
ATOM     12  N   UNL     1      45.886  17.126   5.083  0.00  0.00    -0.328 N 
ATOM     13  H   UNL     1      46.166  16.162   5.455  0.00  0.00    +0.145 HD
ATOM     14  H   UNL     1      46.586  17.935   5.112  0.00  0.00    +0.145 HD
ATOM     15  N   UNL     1      44.263  18.531   4.098  0.00  0.00    -0.220 NA
ATOM     16  C   UNL     1      43.060  18.752   3.547  0.00  0.00    +0.047 A 
ATOM     21  C   UNL     1      42.138  17.695   3.456  0.00  0.00    +0.052 A 
ENDROOT
BRANCH   9   8
ATOM      1  C   UNL     1      38.077  15.461   2.574  0.00  0.00    +0.020 A 
ATOM      2  C   UNL     1      39.317  15.972   2.946  0.00  0.00    +0.014 A 
ATOM      3  C   UNL     1      40.302  15.082   3.392  0.00  0.00    +0.030 A 
ATOM      4  C   UNL     1      40.000  13.703   3.457  0.00  0.00    +0.160 A 
ATOM      5  N   UNL     1      41.112  13.061   3.935  0.00  0.00    -0.235 NA
ATOM      6  C   UNL     1      42.110  13.949   4.159  0.00  0.00    +0.124 A 
ATOM      7  N   UNL     1      38.788  13.270   3.106  0.00  0.00    -0.236 NA
ATOM      8  C   UNL     1      41.692  15.213   3.866  0.00  0.00    +0.029 A 
ATOM     22  C   UNL     1      37.843  14.094   2.681  0.00  0.00    +0.113 A 
ENDBRANCH   9   8
BRANCH  16  17
ATOM     17  C   UNL     1      42.706  20.155   3.102  0.00  0.00    +0.055 C 
BRANCH  17  18
ATOM     18  C   UNL     1      42.360  20.986   4.355  0.00  0.00    +0.006 C 
BRANCH  18  19
ATOM     19  C   UNL     1      42.432  22.491   4.041  0.00  0.00    -0.003 C 
ATOM     20  C   UNL     1      43.296  23.268   5.049  0.00  0.00    +0.004 C 
ENDBRANCH  18  19
ENDBRANCH  17  18
ENDBRANCH  16  17
TORSDOF 4
