REMARK  Name = 6QAT
REMARK  8 active torsions:
REMARK  status: ('A' for Active; 'I' for Inactive)
REMARK    1  A    between atoms: C11_5  and  C10_9
REMARK    2  A    between atoms: C9_8  and  C10_9
REMARK    3  A    between atoms: N2_13  and  C17_26
REMARK    4  A    between atoms: N3_15  and  C23_32
REMARK    5  A    between atoms: C2_17  and  N_18
REMARK    6  A    between atoms: N_18  and  S_19
REMARK    7  A    between atoms: S_19  and  C1_22
REMARK    8  A    between atoms: C20_29  and  C23_32
REMARK                            x       y       z     vdW  Elec       q    Type
REMARK                         _______ _______ _______ _____ _____    ______ ____
ROOT
ATOM     13  C   UNL     1     -32.215   8.043 -74.484  0.00  0.00    +0.050 C 
ATOM     14  N   UNL     1     -32.041   6.738 -74.673  0.00  0.00    -0.100 NA
ENDROOT
BRANCH  13  12
ATOM      1  C   UNL     1     -31.760  10.337 -75.347  0.00  0.00    +0.000 A 
ATOM      2  C   UNL     1     -32.557  11.156 -74.636  0.00  0.00    -0.100 A 
ATOM      3  C   UNL     1     -32.297  12.499 -74.563  0.00  0.00    +0.000 A 
ATOM     10  C   UNL     1     -31.255  13.059 -75.326  0.00  0.00    -0.100 A 
ATOM     11  C   UNL     1     -30.467  12.243 -76.143  0.00  0.00    -0.100 A 
ATOM     12  C   UNL     1     -31.625   8.927 -75.367  0.00  0.00    +0.000 C 
ATOM     34  C   UNL     1     -30.520   8.644 -76.265  0.00  0.00    +0.600 C 
ATOM     35  O   UNL     1     -30.086   7.555 -76.576  0.00  0.00    -0.550 OA
ATOM     36  N   UNL     1     -30.031   9.839 -76.678  0.00  0.00    -0.100 NA
ATOM     37  C   UNL     1     -30.725  10.879 -76.123  0.00  0.00    +0.050 A 
BRANCH   3   4
ATOM      4  N   UNL     1     -33.067  13.162 -73.576  0.00  0.00    -0.470 NA
BRANCH   4   5
ATOM      5  S   UNL     1     -32.875  14.564 -73.015  0.00  0.00    +1.360 S 
ATOM      8  O   UNL     1     -31.798  15.171 -73.749  0.00  0.00    -0.650 OA
ATOM      9  O   UNL     1     -34.171  15.172 -73.030  0.00  0.00    -0.650 OA
BRANCH   5   6
ATOM      6  C   UNL     1     -32.384  14.332 -71.338  0.00  0.00    -0.040 C 
ATOM      7  C   UNL     1     -31.192  13.420 -71.228  0.00  0.00    -0.150 C 
ENDBRANCH   5   6
ENDBRANCH   4   5
ENDBRANCH   3   4
ENDBRANCH  13  12
BRANCH  14  15
ATOM     15  C   UNL     1     -32.672   5.663 -73.998  0.00  0.00    +0.050 A 
ATOM     16  C   UNL     1     -32.240   4.364 -74.232  0.00  0.00    -0.130 A 
ATOM     17  C   UNL     1     -32.812   3.308 -73.548  0.00  0.00    -0.130 A 
ATOM     18  C   UNL     1     -33.843   3.515 -72.641  0.00  0.00    +0.000 A 
ATOM     26  C   UNL     1     -34.267   4.815 -72.411  0.00  0.00    -0.130 A 
ATOM     27  C   UNL     1     -33.703   5.880 -73.087  0.00  0.00    -0.130 A 
BRANCH  18  19
ATOM     19  C   UNL     1     -34.553   2.349 -72.003  0.00  0.00    +0.100 C 
BRANCH  19  20
ATOM     20  N   UNL     1     -33.635   1.358 -71.429  0.00  0.00    -0.600 NA
ATOM     21  C   UNL     1     -34.341   0.102 -71.129  0.00  0.00    +0.100 C 
ATOM     22  C   UNL     1     -33.603  -0.735 -70.086  0.00  0.00    -0.100 C 
ATOM     23  C   UNL     1     -32.111  -0.440 -70.101  0.00  0.00    -0.100 C 
ATOM     24  C   UNL     1     -31.853   1.011 -69.787  0.00  0.00    -0.100 C 
ATOM     25  C   UNL     1     -33.019   1.866 -70.197  0.00  0.00    +0.100 C 
ENDBRANCH  19  20
ENDBRANCH  18  19
ENDBRANCH  14  15
BRANCH  13  28
ATOM     28  C   UNL     1     -33.052   8.517 -73.353  0.00  0.00    +0.000 A 
ATOM     29  C   UNL     1     -32.476   8.754 -72.111  0.00  0.00    -0.130 A 
ATOM     30  C   UNL     1     -33.124   9.547 -71.174  0.00  0.00    -0.130 A 
ATOM     31  C   UNL     1     -34.350  10.103 -71.461  0.00  0.00    -0.130 A 
ATOM     32  C   UNL     1     -34.959   9.824 -72.656  0.00  0.00    -0.130 A 
ATOM     33  C   UNL     1     -34.330   9.012 -73.592  0.00  0.00    -0.130 A 
ENDBRANCH  13  28
TORSDOF 8
