REMARK  Name = 1Y8Y
REMARK  3 active torsions:
REMARK  status: ('A' for Active; 'I' for Inactive)
REMARK    1  A    between atoms: S_2  and  C_4
REMARK    2  A    between atoms: S_2  and  C_21
REMARK    3  A    between atoms: C_9  and  N_10
REMARK                            x       y       z     vdW  Elec       q    Type
REMARK                         _______ _______ _______ _____ _____    ______ ____
ROOT
ATOM      8  N   UNL     1      23.635  28.974  29.262  0.00  0.00    -0.299 N 
ATOM      9  H   UNL     1      23.471  29.705  30.026  0.00  0.00    +0.154 HD
ATOM     10  C   UNL     1      24.757  29.090  28.514  0.00  0.00    +0.130 A 
ATOM     11  C   UNL     1      25.360  27.986  27.900  0.00  0.00    +0.084 A 
ATOM     12  C   UNL     1      26.523  28.172  27.140  0.00  0.00    +0.135 A 
ATOM     13 CL   UNL     1      27.196  26.994  26.387  0.00  0.00    -0.062 Cl
ATOM     14  N   UNL     1      27.044  29.405  27.017  0.00  0.00    -0.216 NA
ATOM     15  C   UNL     1      26.485  30.455  27.710  0.00  0.00    +0.159 A 
ATOM     16  C   UNL     1      26.866  31.779  27.765  0.00  0.00    +0.069 A 
ATOM     17  C   UNL     1      25.889  32.408  28.547  0.00  0.00    +0.137 A 
ATOM     18  N   UNL     1      24.988  31.452  28.948  0.00  0.00    -0.172 NA
ATOM     19  N   UNL     1      25.362  30.301  28.437  0.00  0.00    -0.200 N 
ENDROOT
BRANCH   8   7
ATOM      4  C   UNL     1      20.754  26.082  28.821  0.00  0.00    +0.088 A 
ATOM      5  C   UNL     1      21.444  26.496  27.667  0.00  0.00    +0.029 A 
ATOM      6  C   UNL     1      22.430  27.444  27.840  0.00  0.00    +0.025 A 
ATOM      7  C   UNL     1      22.690  27.987  29.113  0.00  0.00    +0.033 A 
ATOM     20  C   UNL     1      21.948  27.578  30.264  0.00  0.00    +0.025 A 
ATOM     21  C   UNL     1      20.959  26.627  30.105  0.00  0.00    +0.029 A 
BRANCH   4   2
ATOM      1  O   UNL     1      18.987  24.495  29.948  0.00  0.00    -0.170 OA
ATOM      2  S   UNL     1      19.496  24.901  28.621  0.00  0.00    -0.006 S 
ATOM      3  C   UNL     1      20.079  23.329  27.961  0.00  0.00    +0.200 C 
ATOM     22  O   UNL     1      18.420  25.472  27.847  0.00  0.00    -0.170 OA
ENDBRANCH   4   2
ENDBRANCH   8   7
TORSDOF 2
