REMARK  Name = 3que_ligand
REMARK  8 active torsions:
REMARK  status: ('A' for Active; 'I' for Inactive)
REMARK    1  A    between atoms: OAB_2  and  CAO_15
REMARK    2  A    between atoms: OAC_3  and  CBE_31
REMARK    3  A    between atoms: CAO_15  and  CBE_31
REMARK    4  A    between atoms: CAR_18  and  OAT_20
REMARK    5  A    between atoms: CAR_18  and  CBE_31
REMARK    6  A    between atoms: NAS_19  and  CAW_23
REMARK    7  A    between atoms: NAS_19  and  CBB_28
REMARK    8  A    between atoms: OAT_20  and  CAY_25
REMARK                            x       y       z     vdW  Elec       q    Type
REMARK                         _______ _______ _______ _____ _____    ______ ____
ROOT
ATOM      1  O   UNL     1       2.318   3.946  23.019  0.00  0.00    -0.382 OA
ATOM      2  C   UNL     1       2.072   2.762  23.255  0.00  0.00    +0.139 C 
ATOM      3  C   UNL     1       1.761   2.311  24.683  0.00  0.00    +0.024 A 
ATOM      4  C   UNL     1       0.841   1.345  25.064  0.00  0.00    -0.033 A 
ATOM      5  C   UNL     1      -0.014   0.561  24.113  0.00  0.00    +0.079 C 
ATOM      6  C   UNL     1       1.008  -0.334  23.413  0.00  0.00    +0.083 C 
ATOM      7  C   UNL     1       1.873   0.346  22.327  0.00  0.00    -0.033 A 
ATOM      8  C   UNL     1       2.209  -0.556  21.326  0.00  0.00    +0.015 A 
ATOM      9  C   UNL     1       2.973  -0.155  20.239  0.00  0.00    +0.055 A 
ATOM     20  C   UNL     1       3.389   1.164  20.150  0.00  0.00    +0.008 A 
ATOM     21  C   UNL     1       3.075   2.075  21.138  0.00  0.00    +0.002 A 
ATOM     22  C   UNL     1       0.665   0.999  26.407  0.00  0.00    -0.008 A 
ATOM     23  C   UNL     1       1.444   1.666  27.369  0.00  0.00    +0.022 A 
ATOM     24  C   UNL     1       2.378   2.624  26.972  0.00  0.00    +0.089 A 
ATOM     33  C   UNL     1       2.535   2.943  25.632  0.00  0.00    +0.036 A 
ATOM     34  C   UNL     1       2.307   1.667  22.220  0.00  0.00    +0.021 A 
ENDROOT
BRANCH   9  10
ATOM     10  N   UNL     1       3.284  -1.043  19.280  0.00  0.00    -0.276 N 
ATOM     11  H   UNL     1       2.977  -2.013  19.356  0.00  0.00    +0.208 HD
BRANCH  10  12
ATOM     12  C   UNL     1       3.997  -0.645  18.230  0.00  0.00    +0.090 A 
ATOM     13  C   UNL     1       5.296  -0.106  18.342  0.00  0.00    +0.152 A 
ATOM     14  C   UNL     1       5.968   0.302  17.205  0.00  0.00    +0.051 A 
ATOM     15  C   UNL     1       5.373   0.189  15.949  0.00  0.00    +0.118 A 
ATOM     16  C   UNL     1       4.094  -0.352  15.831  0.00  0.00    +0.012 A 
ATOM     17  F   UNL     1       6.059   0.614  14.861  0.00  0.00    -0.195 F 
ATOM     18  F   UNL     1       5.952   0.061  19.523  0.00  0.00    -0.192 F 
ATOM     19  C   UNL     1       3.413  -0.755  16.986  0.00  0.00    +0.009 A 
ENDBRANCH  10  12
ENDBRANCH   9  10
BRANCH  24  25
ATOM     25  O   UNL     1       3.161   3.318  27.847  0.00  0.00    -0.319 OA
BRANCH  25  26
ATOM     26  C   UNL     1       3.460   2.809  29.176  0.00  0.00    +0.224 C 
BRANCH  26  27
ATOM     27  C   UNL     1       4.564   3.707  29.812  0.00  0.00    +0.170 C 
BRANCH  27  31
ATOM     31  O   UNL     1       4.664   3.405  31.201  0.00  0.00    -0.387 OA
ATOM     32  H   UNL     1       3.850   3.660  31.642  0.00  0.00    +0.210 HD
ENDBRANCH  27  31
BRANCH  27  28
ATOM     28  C   UNL     1       4.333   5.226  29.651  0.00  0.00    +0.190 C 
BRANCH  28  29
ATOM     29  O   UNL     1       3.305   5.650  30.564  0.00  0.00    -0.392 OA
ATOM     30  H   UNL     1       3.580   5.460  31.464  0.00  0.00    +0.209 HD
ENDBRANCH  28  29
ENDBRANCH  27  28
ENDBRANCH  26  27
ENDBRANCH  25  26
ENDBRANCH  24  25
TORSDOF 8
