REMARK  Name = M02
REMARK  0 active torsions:
REMARK  status: ('A' for Active; 'I' for Inactive)
REMARK                            x       y       z     vdW  Elec       q    Type
REMARK                         _______ _______ _______ _____ _____    ______ ____
ROOT
ATOM      1  C   UNL     1       9.013   8.285   2.821  0.00  0.00    +0.041 C 
ATOM      2  C   UNL     1       9.777   8.441   4.138  0.00  0.00    +0.095 C 
ATOM      3  C   UNL     1       8.863   9.023   5.213  0.00  0.00    +0.041 C 
ATOM      4  C   UNL     1       8.178  10.284   4.721  0.00  0.00    +0.094 C 
ATOM      5  N   UNL     1       7.378   9.990   3.528  0.00  0.00    -0.292 N 
ATOM      6  C   UNL     1       5.960   9.904   3.572  0.00  0.00    +0.154 A 
ATOM      7  N   UNL     1       5.392   9.918   4.804  0.00  0.00    -0.207 NA
ATOM      8  C   UNL     1       4.058   9.849   4.883  0.00  0.00    +0.202 A 
ATOM      9  N   UNL     1       3.169   9.738   3.894  0.00  0.00    -0.203 NA
ATOM     10  C   UNL     1       3.767   9.733   2.690  0.00  0.00    +0.186 A 
ATOM     11  N   UNL     1       3.173   9.651   1.468  0.00  0.00    -0.203 NA
ATOM     12  C   UNL     1       4.148   9.660   0.531  0.00  0.00    +0.201 A 
ATOM     13  N   UNL     1       5.363   9.776   1.078  0.00  0.00    -0.218 NA
ATOM     14  C   UNL     1       5.119   9.812   2.453  0.00  0.00    +0.150 A 
ATOM     15  N   UNL     1      10.264   7.081   4.547  0.00  0.00    -0.133 NA
ATOM     16  C   UNL     1       8.248   9.536   2.438  0.00  0.00    +0.094 C 
ENDROOT
TORSDOF 0
