REMARK  Name = 1E2G
REMARK  7 active torsions:
REMARK  status: ('A' for Active; 'I' for Inactive)
REMARK    1  A    between atoms: P_1  and  O_5
REMARK    2  A    between atoms: O_5  and  C_6
REMARK    3  A    between atoms: C_6  and  C_7
REMARK    4  A    between atoms: C_9  and  O_10
REMARK    5  A    between atoms: C_12  and  N_13
REMARK    6  A    between atoms: C_17  and  O_18
REMARK    7  A    between atoms: C_19  and  C_20
REMARK                            x       y       z     vdW  Elec       q    Type
REMARK                         _______ _______ _______ _____ _____    ______ ____
ROOT
ATOM      4  C   UNL     1      14.620  75.164  26.319  0.00  0.00    +0.175 C 
ATOM      5  C   UNL     1      13.466  75.650  27.176  0.00  0.00    +0.150 C 
ATOM      6  C   UNL     1      12.632  76.438  26.137  0.00  0.00    +0.085 C 
ATOM      7  C   UNL     1      13.695  76.955  25.163  0.00  0.00    +0.213 C 
ATOM     21  O   UNL     1      14.713  75.987  25.167  0.00  0.00    -0.350 OA
ENDROOT
BRANCH   7   8
ATOM      8  N   UNL     1      13.437  77.445  23.821  0.00  0.00    -0.255 N 
ATOM      9  C   UNL     1      12.691  76.603  23.094  0.00  0.00    +0.147 C 
ATOM     10  C   UNL     1      12.198  76.954  21.871  0.00  0.00    +0.002 C 
ATOM     11  C   UNL     1      11.377  76.038  21.061  0.00  0.00    +0.046 C 
ATOM     12  C   UNL     1      12.521  78.332  21.383  0.00  0.00    +0.185 C 
ATOM     15  N   UNL     1      13.303  79.138  22.198  0.00  0.00    -0.240 N 
ATOM     16  H   UNL     1      13.533  80.123  21.850  0.00  0.00    +0.159 HD
ATOM     17  C   UNL     1      13.805  78.759  23.425  0.00  0.00    +0.311 C 
ATOM     18  O   UNL     1      14.488  79.514  24.133  0.00  0.00    -0.252 OA
BRANCH  12  13
ATOM     13  O   UNL     1      12.024  78.714  20.134  0.00  0.00    -0.495 OA
ATOM     14  H   UNL     1      11.410  79.558  20.244  0.00  0.00    +0.293 HD
ENDBRANCH  12  13
ENDBRANCH   7   8
BRANCH   5  19
ATOM     19  O   UNL     1      13.910  76.535  28.187  0.00  0.00    -0.389 OA
ATOM     20  H   UNL     1      14.600  76.042  28.806  0.00  0.00    +0.210 HD
ENDBRANCH   5  19
BRANCH   4   3
ATOM      3  C   UNL     1      14.666  73.628  26.205  0.00  0.00    +0.197 C 
BRANCH   3   2
ATOM      2  O   UNL     1      13.361  73.196  25.722  0.00  0.00    -0.365 OA
BRANCH   2   1
ATOM      1  P   UNL     1      12.552  71.984  26.349  0.00  0.00    -0.015 P 
ATOM     22  O   UNL     1      13.629  70.798  26.224  0.00  0.00    -0.577 OA
ATOM     23  O   UNL     1      11.379  71.708  25.506  0.00  0.00    -0.638 OA
ATOM     24  O   UNL     1      12.286  72.257  27.803  0.00  0.00    -0.577 OA
ENDBRANCH   2   1
ENDBRANCH   3   2
ENDBRANCH   4   3
TORSDOF 6
