REMARK  Name = 2uzn_ligand
REMARK  5 active torsions:
REMARK  status: ('A' for Active; 'I' for Inactive)
REMARK    1  A    between atoms: S2_2  and  N6_4
REMARK    2  A    between atoms: S2_2  and  C16_5
REMARK    3  A    between atoms: C13_8  and  C4_11
REMARK    4  A    between atoms: C1_15  and  C6_16
REMARK    5  A    between atoms: C6_16  and  C20_23
REMARK                            x       y       z     vdW  Elec       q    Type
REMARK                         _______ _______ _______ _____ _____    ______ ____
ROOT
ATOM      7  C   UNL     1       2.138  64.762   7.570  0.00  0.00    +0.124 A 
ATOM      8  C   UNL     1       2.146  65.903   6.774  0.00  0.00    -0.005 A 
ATOM      9  C   UNL     1       1.028  66.657   7.118  0.00  0.00    -0.005 A 
ATOM     10  C   UNL     1       0.348  65.965   8.119  0.00  0.00    +0.124 A 
ATOM     22  O   UNL     1       1.023  64.801   8.359  0.00  0.00    -0.254 OA
ENDROOT
BRANCH  10  11
ATOM     11  C   UNL     1      -0.917  66.364   8.780  0.00  0.00    +0.016 C 
ATOM     12  C   UNL     1      -1.587  67.656   8.397  0.00  0.00    +0.089 C 
ATOM     13  C   UNL     1      -1.389  65.636   9.809  0.00  0.00    +0.114 C 
ATOM     14  C   UNL     1      -2.590  65.873  10.473  0.00  0.00    +0.238 C 
ATOM     15  O   UNL     1      -3.400  66.739  10.155  0.00  0.00    -0.383 OA
ATOM     16  N   UNL     1      -2.766  65.029  11.498  0.00  0.00    -0.194 N 
ATOM     17  H   UNL     1      -3.574  65.040  12.087  0.00  0.00    +0.243 HD
ATOM     18  C   UNL     1      -1.753  64.170  11.656  0.00  0.00    +0.188 C 
ATOM     19  N   UNL     1      -1.706  63.288  12.569  0.00  0.00    -0.386 NA
ATOM     20  H   UNL     1      -2.466  63.202  13.226  0.00  0.00    +0.054 HD
ATOM     21  S   UNL     1      -0.558  64.395  10.527  0.00  0.00    +0.021 S 
ENDBRANCH  10  11
BRANCH   7   6
ATOM      3  C   UNL     1       4.931  61.528   7.570  0.00  0.00    +0.106 A 
ATOM      4  C   UNL     1       5.063  62.548   6.631  0.00  0.00    +0.026 A 
ATOM      5  C   UNL     1       4.164  63.612   6.628  0.00  0.00    +0.008 A 
ATOM      6  C   UNL     1       3.132  63.643   7.560  0.00  0.00    +0.012 A 
ATOM     23  C   UNL     1       2.994  62.613   8.484  0.00  0.00    +0.008 A 
ATOM     24  C   UNL     1       3.893  61.559   8.493  0.00  0.00    +0.026 A 
BRANCH   3   2
ATOM      1  O   UNL     1       7.148  60.453   6.683  0.00  0.00    -0.151 OA
ATOM      2  S   UNL     1       6.047  60.167   7.564  0.00  0.00    +0.065 S 
ATOM     28  O   UNL     1       5.360  58.990   7.104  0.00  0.00    -0.151 OA
BRANCH   2  25
ATOM     25  N   UNL     1       6.597  59.918   9.046  0.00  0.00    -0.261 NA
ATOM     26  H   UNL     1       6.435  59.041   9.499  0.00  0.00    +0.163 HD
ATOM     27  H   UNL     1       7.102  60.639   9.520  0.00  0.00    +0.163 HD
ENDBRANCH   2  25
ENDBRANCH   3   2
ENDBRANCH   7   6
TORSDOF 4
