REMARK  Name = 5AAG
REMARK  8 active torsions:
REMARK  status: ('A' for Active; 'I' for Inactive)
REMARK    1  A    between atoms: C_1  and  N_2
REMARK    2  A    between atoms: C_6  and  C_8
REMARK    3  A    between atoms: C_12  and  C_13
REMARK    4  A    between atoms: C_13  and  N_14
REMARK    5  A    between atoms: C_16  and  C_17
REMARK    6  A    between atoms: C_24  and  C_25
REMARK    7  A    between atoms: N_27  and  C_28
REMARK    8  A    between atoms: C_30  and  C_31
REMARK                            x       y       z     vdW  Elec       q    Type
REMARK                         _______ _______ _______ _____ _____    ______ ____
ROOT
ATOM     11  N   UNL     1      -5.885  29.081  -4.083  0.00  0.00    -0.267 N 
ATOM     12  N   UNL     1      -6.993  29.038  -4.849  0.00  0.00    -0.179 NA
ATOM     13  C   UNL     1      -6.730  29.636  -6.056  0.00  0.00    +0.143 A 
ATOM     14  C   UNL     1      -5.412  30.056  -6.039  0.00  0.00    +0.023 A 
ATOM     33  C   UNL     1      -4.903  29.702  -4.770  0.00  0.00    +0.117 A 
ENDROOT
BRANCH  14  15
ATOM     15  C   UNL     1      -4.711  30.728  -7.064  0.00  0.00    +0.034 A 
ATOM     16  C   UNL     1      -3.814  31.791  -6.741  0.00  0.00    +0.117 A 
ATOM     17  N   UNL     1      -3.429  32.369  -5.531  0.00  0.00    -0.225 NA
ATOM     18  C   UNL     1      -2.536  33.358  -5.783  0.00  0.00    +0.144 A 
ATOM     26  N   UNL     1      -2.345  33.423  -7.129  0.00  0.00    -0.323 N 
ATOM     27  H   UNL     1      -1.786  34.006  -7.561  0.00  0.00    +0.169 HD
ATOM     28  C   UNL     1      -3.127  32.458  -7.738  0.00  0.00    +0.159 A 
ATOM     29  N   UNL     1      -3.301  32.105  -9.067  0.00  0.00    -0.234 NA
ATOM     30  C   UNL     1      -4.137  31.114  -9.403  0.00  0.00    +0.133 A 
ATOM     31  C   UNL     1      -4.863  30.397  -8.426  0.00  0.00    +0.069 A 
ATOM     32 CL   UNL     1      -5.923  29.127  -8.962  0.00  0.00    -0.081 Cl
BRANCH  18  19
ATOM     19  C   UNL     1      -1.881  34.210  -4.854  0.00  0.00    +0.058 A 
ATOM     20  C   UNL     1      -1.933  34.210  -3.462  0.00  0.00    +0.071 A 
ATOM     21  C   UNL     1      -2.726  33.278  -2.569  0.00  0.00    +0.068 C 
ATOM     22  N   UNL     1      -1.133  35.209  -3.018  0.00  0.00    -0.176 NA
ATOM     23  N   UNL     1      -0.577  35.840  -4.083  0.00  0.00    -0.274 N 
ATOM     24  C   UNL     1       0.334  36.959  -4.023  0.00  0.00    +0.172 C 
ATOM     25  C   UNL     1      -1.012  35.254  -5.208  0.00  0.00    +0.119 A 
ENDBRANCH  18  19
ENDBRANCH  14  15
BRANCH  11  10
ATOM     10  C   UNL     1      -5.752  28.557  -2.685  0.00  0.00    +0.178 C 
BRANCH  10   9
ATOM      7  C   UNL     1      -6.558  31.213  -0.070  0.00  0.00    +0.037 A 
ATOM      8  C   UNL     1      -5.848  30.331  -0.894  0.00  0.00    +0.018 A 
ATOM      9  C   UNL     1      -6.533  29.498  -1.790  0.00  0.00    -0.025 A 
ATOM     34  C   UNL     1      -7.914  29.559  -1.877  0.00  0.00    +0.005 A 
ATOM     35  C   UNL     1      -8.628  30.439  -1.048  0.00  0.00    +0.001 A 
ATOM     36  C   UNL     1      -7.944  31.267  -0.146  0.00  0.00    +0.013 A 
BRANCH   7   6
ATOM      1  C   UNL     1      -6.639  31.855   6.142  0.00  0.00    +0.105 C 
ATOM      2  N   UNL     1      -6.052  31.635   5.079  0.00  0.00    -0.302 NA
ATOM      3  C   UNL     1      -6.839  30.881   4.201  0.00  0.00    +0.103 C 
ATOM      4  C   UNL     1      -6.117  30.634   2.877  0.00  0.00    +0.123 C 
ATOM      5  N   UNL     1      -5.617  31.769   2.299  0.00  0.00    -0.295 N 
ATOM      6  C   UNL     1      -5.787  32.107   0.902  0.00  0.00    +0.247 C 
ATOM     37  O   UNL     1      -5.301  33.128   0.463  0.00  0.00    -0.270 OA
ATOM     38  C   UNL     1      -4.910  32.569   3.160  0.00  0.00    +0.123 C 
ATOM     39  C   UNL     1      -5.636  32.826   4.472  0.00  0.00    +0.103 C 
ENDBRANCH   7   6
ENDBRANCH  10   9
ENDBRANCH  11  10
TORSDOF 5
