REMARK  Name = M77
REMARK  2 active torsions:
REMARK  status: ('A' for Active; 'I' for Inactive)
REMARK    1  A    between atoms: S1_2  and  N4_4
REMARK    2  A    between atoms: S1_2  and  C5_11
REMARK                            x       y       z     vdW  Elec       q    Type
REMARK                         _______ _______ _______ _____ _____    ______ ____
ROOT
ATOM      1  O   UNL     1     -13.087 -25.994  26.539  0.00  0.00    -0.153 OA
ATOM      2  S   UNL     1     -13.663 -24.930  27.296  0.00  0.00    +0.063 S 
ATOM      3  O   UNL     1     -14.193 -25.197  28.594  0.00  0.00    -0.153 OA
ENDROOT
BRANCH   2  11
ATOM     11  C   UNL     1     -14.904 -24.156  26.304  0.00  0.00    +0.122 A 
ATOM     12  C   UNL     1     -14.964 -22.788  26.324  0.00  0.00    +0.020 A 
ATOM     13  C   UNL     1     -15.834 -22.115  25.480  0.00  0.00    +0.001 A 
ATOM     14  C   UNL     1     -16.630 -22.800  24.612  0.00  0.00    +0.002 A 
ATOM     15  C   UNL     1     -16.601 -24.217  24.564  0.00  0.00    +0.021 A 
ATOM     16  C   UNL     1     -17.364 -24.981  23.653  0.00  0.00    +0.099 A 
ATOM     17  N   UNL     1     -17.350 -26.309  23.599  0.00  0.00    -0.242 NA
ATOM     18  C   UNL     1     -16.582 -26.958  24.486  0.00  0.00    +0.099 A 
ATOM     19  C   UNL     1     -15.777 -26.340  25.398  0.00  0.00    +0.022 A 
ATOM     20  C   UNL     1     -15.748 -24.926  25.450  0.00  0.00    +0.022 A 
ENDBRANCH   2  11
BRANCH   2   4
ATOM      4  N   UNL     1     -12.493 -23.806  27.481  0.00  0.00    -0.154 NA
ATOM      5  C   UNL     1     -12.386 -23.033  28.731  0.00  0.00    +0.097 C 
ATOM      6  C   UNL     1     -11.038 -22.338  28.885  0.00  0.00    +0.038 C 
ATOM      7  C   UNL     1      -9.796 -23.079  28.426  0.00  0.00    +0.090 C 
ATOM      8  N   UNL     1      -9.524 -22.917  26.967  0.00  0.00    -0.217 NA
ATOM      9  C   UNL     1     -10.435 -23.695  26.075  0.00  0.00    +0.108 C 
ATOM     10  C   UNL     1     -11.880 -23.295  26.243  0.00  0.00    +0.115 C 
ENDBRANCH   2   4
TORSDOF 2
