REMARK  Name = 5OU
REMARK  3 active torsions:
REMARK  status: ('A' for Active; 'I' for Inactive)
REMARK    1  A    between atoms: N3_6  and  CAI_14
REMARK    2  A    between atoms: CAT_8  and  N7_9
REMARK    3  A    between atoms: CAI_14  and  CAJ_15
REMARK                            x       y       z     vdW  Elec       q    Type
REMARK                         _______ _______ _______ _____ _____    ______ ____
ROOT
ATOM      1  C   UNL     1     -24.385  -6.827  77.243  0.00  0.00    +0.170 C 
ATOM      2  N   UNL     1     -25.559  -6.833  77.929  0.00  0.00    -0.206 NA
ATOM      3  C   UNL     1     -25.418  -5.951  78.908  0.00  0.00    +0.180 C 
ATOM      4  N   UNL     1     -24.187  -5.395  78.875  0.00  0.00    -0.304 NA
ATOM      7  C   UNL     1     -23.516  -5.916  77.826  0.00  0.00    +0.154 C 
ATOM      8  C   UNL     1     -22.281  -5.750  77.326  0.00  0.00    +0.302 C 
ATOM      9  O   UNL     1     -21.359  -4.984  77.740  0.00  0.00    -0.263 OA
ATOM     10  N   UNL     1     -21.947  -6.494  76.162  0.00  0.00    -0.152 NA
ATOM     11  C   UNL     1     -22.847  -7.376  75.589  0.00  0.00    +0.354 C 
ATOM     12  O   UNL     1     -22.435  -7.964  74.607  0.00  0.00    -0.244 OA
ATOM     13  N   UNL     1     -24.026  -7.542  76.151  0.00  0.00    -0.259 N 
ENDROOT
BRANCH   4   5
ATOM      5  C   UNL     1     -23.664  -4.380  79.797  0.00  0.00    +0.108 C 
ATOM      6  C   UNL     1     -23.836  -3.007  79.169  0.00  0.00    +0.026 C 
ENDBRANCH   4   5
BRANCH  13  14
ATOM     14  C   UNL     1     -25.029  -8.423  75.532  0.00  0.00    +0.139 C 
BRANCH  14  15
ATOM     15  C   UNL     1     -25.826  -7.672  74.610  0.00  0.00    +0.001 A 
ATOM     16  C   UNL     1     -26.996  -7.040  75.014  0.00  0.00    -0.002 A 
ATOM     17  C   UNL     1     -27.724  -6.296  74.089  0.00  0.00    +0.011 A 
ATOM     18  C   UNL     1     -27.341  -6.114  72.782  0.00  0.00    +0.058 A 
ATOM     19  C   UNL     1     -26.161  -6.712  72.365  0.00  0.00    +0.011 A 
ATOM     20 CL   UNL     1     -28.381  -5.137  71.623  0.00  0.00    -0.082 Cl
ATOM     21  C   UNL     1     -25.392  -7.485  73.292  0.00  0.00    -0.002 A 
ENDBRANCH  14  15
ENDBRANCH  13  14
TORSDOF 3
