REMARK  Name = 6VK
REMARK  2 active torsions:
REMARK  status: ('A' for Active; 'I' for Inactive)
REMARK    1  A    between atoms: C14_10  and  C16_12
REMARK    2  A    between atoms: C9_19  and  C10_20
REMARK                            x       y       z     vdW  Elec       q    Type
REMARK                         _______ _______ _______ _____ _____    ______ ____
ROOT
ATOM      1  O   UNL     1      15.628  -2.007   0.496  0.00  0.00    -0.292 OA
ATOM      2  C   UNL     1      15.540  -2.301  -0.688  0.00  0.00    +0.172 C 
ATOM      3  C   UNL     1      14.634  -3.389  -1.130  0.00  0.00    +0.053 C 
ATOM      4  C   UNL     1      13.777  -4.063  -0.080  0.00  0.00    +0.060 C 
ATOM      5  C   UNL     1      14.607  -4.830   0.939  0.00  0.00    +0.010 C 
ATOM     12  C   UNL     1      13.017  -5.129  -0.761  0.00  0.00    +0.159 C 
ATOM     13  C   UNL     1      12.045  -6.109  -0.254  0.00  0.00    +0.095 C 
ATOM     17  N   UNL     1      11.625  -6.933  -1.358  0.00  0.00    -0.043 NA
ATOM     18  N   UNL     1      12.315  -6.528  -2.532  0.00  0.00    +0.079 NA
ATOM     19  C   UNL     1      13.103  -5.519  -2.152  0.00  0.00    +0.374 C 
ATOM     20  N   UNL     1      13.972  -4.809  -3.022  0.00  0.00    -0.012 NA
ATOM     21  C   UNL     1      14.657  -3.768  -2.439  0.00  0.00    +0.160 C 
ATOM     22  C   UNL     1      15.522  -3.049  -3.448  0.00  0.00    +0.072 C 
ATOM     23  C   UNL     1      15.839  -1.590  -3.097  0.00  0.00    +0.015 C 
ATOM     24  C   UNL     1      14.597  -0.725  -3.083  0.00  0.00    +0.001 C 
ATOM     25  C   UNL     1      16.833  -1.071  -4.143  0.00  0.00    +0.001 C 
ATOM     26  C   UNL     1      16.448  -1.607  -1.696  0.00  0.00    +0.069 C 
ENDROOT
BRANCH   4   6
ATOM      6  C   UNL     1      12.781  -3.120   0.560  0.00  0.00    -0.018 A 
ATOM      7  C   UNL     1      12.640  -2.939   1.959  0.00  0.00    -0.004 A 
ATOM      8  C   UNL     1      11.638  -2.096   2.448  0.00  0.00    -0.000 A 
ATOM      9  C   UNL     1      10.792  -1.425   1.598  0.00  0.00    -0.000 A 
ATOM     10  C   UNL     1      10.922  -1.613   0.207  0.00  0.00    -0.000 A 
ATOM     11  C   UNL     1      11.904  -2.451  -0.302  0.00  0.00    -0.004 A 
ENDBRANCH   4   6
BRANCH  13  14
ATOM     14  C   UNL     1      11.468  -6.220   1.103  0.00  0.00    +0.041 C 
ATOM     15  C   UNL     1      11.623  -7.408   2.010  0.00  0.00    +0.006 C 
ATOM     16  C   UNL     1      10.307  -7.178   1.255  0.00  0.00    +0.006 C 
ENDBRANCH  13  14
TORSDOF 2
