REMARK  Name = 4fvr_ligand
REMARK  11 active torsions:
REMARK  status: ('A' for Active; 'I' for Inactive)
REMARK    1  A    between atoms: PG_1  and  O3B_8
REMARK    2  A    between atoms: PB_5  and  O3B_8
REMARK    3  A    between atoms: PB_5  and  O3A_12
REMARK    4  A    between atoms: PA_9  and  O3A_12
REMARK    5  A    between atoms: PA_9  and  O5'_13
REMARK    6  A    between atoms: O5'_13  and  C5'_14
REMARK    7  A    between atoms: C5'_14  and  C4'_15
REMARK    8  A    between atoms: C3'_17  and  O3'_18
REMARK    9  A    between atoms: C2'_19  and  O2'_20
REMARK   10  A    between atoms: C1'_21  and  N9_22
REMARK   11  A    between atoms: C6_26  and  N6_27
REMARK                            x       y       z     vdW  Elec       q    Type
REMARK                         _______ _______ _______ _____ _____    ______ ____
ROOT
ATOM      8  C   UNL     1       9.869 -10.952  23.183  0.00  0.00    +0.184 C 
ATOM      9  C   UNL     1      10.700 -10.207  22.139  0.00  0.00    +0.180 C 
ATOM     10  C   UNL     1      10.500 -10.987  20.868  0.00  0.00    +0.206 C 
ATOM     11  C   UNL     1      10.355 -12.395  21.414  0.00  0.00    +0.301 C 
ATOM     28  O   UNL     1       9.692 -12.274  22.678  0.00  0.00    -0.336 OA
ENDROOT
BRANCH  11  12
ATOM     12  N   UNL     1       9.533 -13.281  20.570  0.00  0.00    -0.192 N 
ATOM     13  C   UNL     1      10.009 -14.346  19.914  0.00  0.00    +0.161 A 
ATOM     14  N   UNL     1      11.244 -14.905  19.704  0.00  0.00    -0.271 NA
ATOM     15  C   UNL     1      11.367 -16.020  18.958  0.00  0.00    +0.153 A 
ATOM     16  N   UNL     1      10.308 -16.616  18.346  0.00  0.00    -0.270 NA
ATOM     17  C   UNL     1       9.042 -16.131  18.460  0.00  0.00    +0.130 A 
ATOM     21  C   UNL     1       8.831 -14.917  19.276  0.00  0.00    +0.105 A 
ATOM     22  N   UNL     1       7.754 -14.164  19.623  0.00  0.00    -0.296 NA
ATOM     23  C   UNL     1       8.200 -13.165  20.410  0.00  0.00    +0.247 A 
BRANCH  17  18
ATOM     18  N   UNL     1       7.948 -16.698  17.893  0.00  0.00    -0.315 N 
ATOM     19  H   UNL     1       8.047 -17.537  17.322  0.00  0.00    +0.182 HD
ATOM     20  H   UNL     1       7.027 -16.285  18.038  0.00  0.00    +0.182 HD
ENDBRANCH  17  18
ENDBRANCH  11  12
BRANCH  10  24
ATOM     24  O   UNL     1      11.656 -10.921  20.031  0.00  0.00    -0.384 OA
ATOM     25  H   UNL     1      12.410 -11.287  20.499  0.00  0.00    +0.210 HD
ENDBRANCH  10  24
BRANCH   9  26
ATOM     26  O   UNL     1      12.094 -10.305  22.513  0.00  0.00    -0.386 OA
ATOM     27  H   UNL     1      12.631  -9.841  21.866  0.00  0.00    +0.210 HD
ENDBRANCH   9  26
BRANCH   8   7
ATOM      7  C   UNL     1       8.510 -10.316  23.458  0.00  0.00    +0.243 C 
BRANCH   7   6
ATOM      6  O   UNL     1       7.693 -10.300  22.294  0.00  0.00    -0.244 OA
BRANCH   6   5
ATOM      5  P   UNL     1       6.351  -9.404  22.253  0.00  0.00    +0.327 P 
ATOM     29  O   UNL     1       5.823  -9.332  20.842  0.00  0.00    -0.569 OA
ATOM     30  O   UNL     1       6.715  -8.135  22.973  0.00  0.00    -0.569 OA
BRANCH   5   4
ATOM      4  O   UNL     1       5.312 -10.214  23.158  0.00  0.00    -0.117 OA
BRANCH   4   3
ATOM      3  P   UNL     1       3.759 -10.284  22.746  0.00  0.00    +0.355 P 
ATOM     31  O   UNL     1       3.060 -11.128  23.798  0.00  0.00    -0.565 OA
ATOM     32  O   UNL     1       3.598 -10.773  21.331  0.00  0.00    -0.565 OA
BRANCH   3   2
ATOM      2  O   UNL     1       3.259  -8.762  22.851  0.00  0.00    -0.155 OA
BRANCH   2   1
ATOM      1  P   UNL     1       2.483  -7.872  21.746  0.00  0.00    +0.188 P 
ATOM     33  O   UNL     1       3.325  -8.071  20.495  0.00  0.00    -0.609 OA
ATOM     34  O   UNL     1       1.062  -8.343  21.647  0.00  0.00    -0.609 OA
ATOM     35  O   UNL     1       2.634  -6.493  22.362  0.00  0.00    -0.609 OA
ENDBRANCH   2   1
ENDBRANCH   3   2
ENDBRANCH   4   3
ENDBRANCH   5   4
ENDBRANCH   6   5
ENDBRANCH   7   6
ENDBRANCH   8   7
TORSDOF 11
