REMARK  Name = 1E9D
REMARK  8 active torsions:
REMARK  status: ('A' for Active; 'I' for Inactive)
REMARK    1  A    between atoms: P_1  and  O_5
REMARK    2  A    between atoms: O_5  and  C_6
REMARK    3  A    between atoms: C_6  and  C_7
REMARK    4  A    between atoms: C_9  and  N_10
REMARK    5  A    between atoms: N_10  and  N_11
REMARK    6  A    between atoms: C_14  and  N_15
REMARK    7  A    between atoms: C_19  and  O_20
REMARK    8  A    between atoms: C_21  and  C_22
REMARK                            x       y       z     vdW  Elec       q    Type
REMARK                         _______ _______ _______ _____ _____    ______ ____
ROOT
ATOM      4  C   UNL     1      14.857  75.468  25.964  0.00  0.00    +0.173 C 
ATOM      5  C   UNL     1      13.844  75.962  26.948  0.00  0.00    +0.186 C 
ATOM      6  C   UNL     1      12.929  76.924  26.135  0.00  0.00    +0.083 C 
ATOM      7  C   UNL     1      13.895  77.342  24.988  0.00  0.00    +0.212 C 
ATOM     23  O   UNL     1      14.710  76.219  24.771  0.00  0.00    -0.351 OA
ENDROOT
BRANCH   7   8
ATOM      8  N   UNL     1      13.400  77.911  23.755  0.00  0.00    -0.255 N 
ATOM      9  C   UNL     1      12.707  77.056  22.966  0.00  0.00    +0.147 C 
ATOM     10  C   UNL     1      12.230  77.405  21.743  0.00  0.00    +0.002 C 
ATOM     11  C   UNL     1      11.436  76.497  20.878  0.00  0.00    +0.046 C 
ATOM     12  C   UNL     1      12.632  78.783  21.288  0.00  0.00    +0.185 C 
ATOM     15  N   UNL     1      13.373  79.588  22.140  0.00  0.00    -0.240 N 
ATOM     16  H   UNL     1      13.622  80.570  21.796  0.00  0.00    +0.159 HD
ATOM     17  C   UNL     1      13.813  79.226  23.391  0.00  0.00    +0.311 C 
ATOM     18  O   UNL     1      14.491  79.929  24.146  0.00  0.00    -0.252 OA
BRANCH  12  13
ATOM     13  O   UNL     1      12.219  79.179  20.054  0.00  0.00    -0.495 OA
ATOM     14  H   UNL     1      11.606  80.026  20.145  0.00  0.00    +0.293 HD
ENDBRANCH  12  13
ENDBRANCH   7   8
BRANCH   5  19
ATOM     19  N   UNL     1      14.544  76.718  28.060  0.00  0.00    +0.003 N 
ATOM     20  H   UNL     1      14.858  77.666  27.676  0.00  0.00    +0.238 HD
BRANCH  19  21
ATOM     21  N   UNL     1      13.842  76.916  29.051  0.00  0.00    +0.298 NA
ATOM     22  N   UNL     1      13.157  77.090  29.945  0.00  0.00    +0.251 NA
ENDBRANCH  19  21
ENDBRANCH   5  19
BRANCH   4   3
ATOM      3  C   UNL     1      14.791  73.908  25.842  0.00  0.00    +0.197 C 
BRANCH   3   2
ATOM      2  O   UNL     1      13.463  73.485  25.461  0.00  0.00    -0.365 OA
BRANCH   2   1
ATOM      1  P   UNL     1      12.899  72.141  26.221  0.00  0.00    -0.015 P 
ATOM     24  O   UNL     1      14.024  71.135  26.049  0.00  0.00    -0.577 OA
ATOM     25  O   UNL     1      11.626  71.864  25.489  0.00  0.00    -0.577 OA
ATOM     26  O   UNL     1      12.710  72.518  27.648  0.00  0.00    -0.638 OA
ENDBRANCH   2   1
ENDBRANCH   3   2
ENDBRANCH   4   3
TORSDOF 7
