REMARK  Name = 6QA3
REMARK  0 active torsions:
REMARK  status: ('A' for Active; 'I' for Inactive)
REMARK                            x       y       z     vdW  Elec       q    Type
REMARK                         _______ _______ _______ _____ _____    ______ ____
ROOT
ATOM      1  C   UNL     1       4.216   4.638  48.995  0.00  0.00    +0.000 C 
ATOM      2  N   UNL     1       3.809   5.892  48.836  0.00  0.00    -0.350 NA
ATOM      3  N   UNL     1       2.671   5.992  49.564  0.00  0.00    -0.350 NA
ATOM      4  C   UNL     1       2.370   4.833  50.157  0.00  0.00    +0.000 C 
ATOM      5  C   UNL     1       3.340   3.947  49.811  0.00  0.00    -0.100 C 
ENDROOT
TORSDOF 0
