REMARK  Name = 5O8V
REMARK  8 active torsions:
REMARK  status: ('A' for Active; 'I' for Inactive)
REMARK    1  A    between atoms: C_6  and  C_7
REMARK    2  A    between atoms: C_7  and  C_8
REMARK    3  A    between atoms: N_10  and  C_11
REMARK    4  A    between atoms: C_16  and  C_17
REMARK    5  A    between atoms: C_19  and  N_20
REMARK    6  A    between atoms: N_23  and  C_24
REMARK    7  A    between atoms: C_24  and  C_25
REMARK    8  A    between atoms: C_25  and  C_26
REMARK                            x       y       z     vdW  Elec       q    Type
REMARK                         _______ _______ _______ _____ _____    ______ ____
ROOT
ATOM      1  C   UNL     1     -23.953 -15.704   7.962  0.00  0.00    +0.078 A 
ATOM      2  C   UNL     1     -24.359 -15.156   6.755  0.00  0.00    +0.051 A 
ATOM      3  C   UNL     1     -24.867 -13.833   6.689  0.00  0.00    +0.027 A 
ATOM      4  C   UNL     1     -25.035 -13.034   7.817  0.00  0.00    +0.023 A 
ATOM      5  C   UNL     1     -24.628 -13.594   9.053  0.00  0.00    +0.015 A 
ATOM      9  N   UNL     1     -23.435 -16.964   8.042  0.00  0.00    -0.227 NA
ATOM     10  C   UNL     1     -23.088 -17.481   9.218  0.00  0.00    +0.162 A 
ATOM     23  N   UNL     1     -23.223 -16.724  10.331  0.00  0.00    -0.212 NA
ATOM     24  C   UNL     1     -23.701 -15.488  10.301  0.00  0.00    +0.130 A 
ATOM     25  N   UNL     1     -23.826 -14.782  11.403  0.00  0.00    -0.328 N 
ATOM     26  H   UNL     1     -23.240 -13.903  11.575  0.00  0.00    +0.147 HD
ATOM     35  C   UNL     1     -24.095 -14.904   9.117  0.00  0.00    +0.040 A 
ENDROOT
BRANCH  10  11
ATOM     11  C   UNL     1     -22.506 -18.745   9.347  0.00  0.00    +0.021 A 
ATOM     12  C   UNL     1     -22.183 -19.210  10.597  0.00  0.00    +0.012 A 
ATOM     13  C   UNL     1     -21.567 -20.446  10.793  0.00  0.00    +0.003 A 
ATOM     14  C   UNL     1     -21.211 -21.215   9.704  0.00  0.00    +0.023 A 
ATOM     15  C   UNL     1     -21.534 -20.767   8.441  0.00  0.00    +0.034 A 
ATOM     22  C   UNL     1     -22.134 -19.526   8.264  0.00  0.00    +0.034 A 
BRANCH  15  16
ATOM     16  N   UNL     1     -21.152 -21.552   7.437  0.00  0.00    -0.285 N 
ATOM     17  H   UNL     1     -20.128 -21.861   7.391  0.00  0.00    +0.155 HD
ATOM     18  C   UNL     1     -21.986 -21.971   6.487  0.00  0.00    +0.217 C 
ATOM     19  O   UNL     1     -23.191 -21.698   6.433  0.00  0.00    -0.276 OA
BRANCH  18  20
ATOM     20  C   UNL     1     -21.277 -22.856   5.447  0.00  0.00    +0.093 C 
ATOM     21  C   UNL     1     -22.003 -22.574   4.169  0.00  0.00    +0.013 C 
ENDBRANCH  18  20
ENDBRANCH  15  16
ENDBRANCH  10  11
BRANCH   3   6
ATOM      6  N   UNL     1     -25.255 -13.364   5.536  0.00  0.00    -0.358 N 
ATOM      7  H   UNL     1     -25.641 -12.368   5.466  0.00  0.00    +0.142 HD
ATOM      8  H   UNL     1     -25.187 -13.975   4.660  0.00  0.00    +0.142 HD
ENDBRANCH   3   6
BRANCH  25  27
ATOM     27  C   UNL     1     -24.761 -15.234  12.341  0.00  0.00    +0.107 C 
BRANCH  27  28
ATOM     28  C   UNL     1     -23.891 -15.633  13.449  0.00  0.00    +0.054 C 
BRANCH  28  29
ATOM     29  C   UNL     1     -24.706 -16.153  14.509  0.00  0.00    -0.046 A 
ATOM     30  C   UNL     1     -24.113 -16.289  15.766  0.00  0.00    +0.003 A 
ATOM     31  C   UNL     1     -24.767 -16.767  16.903  0.00  0.00    +0.000 A 
ATOM     32  C   UNL     1     -26.089 -17.130  16.800  0.00  0.00    +0.000 A 
ATOM     33  C   UNL     1     -26.715 -17.007  15.564  0.00  0.00    +0.000 A 
ATOM     34  C   UNL     1     -26.048 -16.532  14.428  0.00  0.00    +0.003 A 
ENDBRANCH  28  29
ENDBRANCH  27  28
ENDBRANCH  25  27
TORSDOF 7
