REMARK  Name = 73B
REMARK  4 active torsions:
REMARK  status: ('A' for Active; 'I' for Inactive)
REMARK    1  A    between atoms: C4_4  and  N1_5
REMARK    2  A    between atoms: N1_5  and  C5_6
REMARK    3  A    between atoms: C13_15  and  C19_23
REMARK    4  A    between atoms: C22_26  and  C25_29
REMARK                            x       y       z     vdW  Elec       q    Type
REMARK                         _______ _______ _______ _____ _____    ______ ____
ROOT
ATOM      1  C   UNL     1      15.032   6.024  10.004  0.00  0.00    +0.022 C 
ATOM      2  C   UNL     1      14.009   5.152   9.257  0.00  0.00    +0.082 C 
ATOM      3  N   UNL     1      13.106   4.441  10.193  0.00  0.00    -0.261 N 
ATOM      4  C   UNL     1      11.996   5.049  10.643  0.00  0.00    +0.230 C 
ATOM      5  C   UNL     1      11.118   4.282  11.583  0.00  0.00    +0.095 C 
ATOM      6  O   UNL     1      11.747   6.162  10.329  0.00  0.00    -0.275 OA
ATOM      7  C   UNL     1      13.519   3.127  10.544  0.00  0.00    +0.051 A 
ATOM      8  C   UNL     1      13.505   2.682  11.843  0.00  0.00    +0.015 A 
ATOM      9  C   UNL     1      13.966   1.425  12.130  0.00  0.00    +0.001 A 
ATOM     10  C   UNL     1      14.441   0.582  11.144  0.00  0.00    -0.000 A 
ATOM     20  C   UNL     1      14.505   1.059   9.842  0.00  0.00    -0.001 A 
ATOM     21  C   UNL     1      13.978   2.301   9.521  0.00  0.00    +0.011 A 
ATOM     22  C   UNL     1      14.000   2.907   8.141  0.00  0.00    +0.117 C 
ATOM     31  C   UNL     1      14.653   4.270   8.186  0.00  0.00    +0.046 C 
ENDROOT
BRANCH  10  11
ATOM     11  C   UNL     1      14.937  -0.758  11.512  0.00  0.00    -0.000 A 
ATOM     12  C   UNL     1      14.428  -1.402  12.613  0.00  0.00    +0.000 A 
ATOM     13  C   UNL     1      14.888  -2.639  13.001  0.00  0.00    +0.007 A 
ATOM     14  C   UNL     1      15.878  -3.279  12.289  0.00  0.00    +0.080 A 
ATOM     18  C   UNL     1      16.407  -2.636  11.185  0.00  0.00    +0.007 A 
ATOM     19  C   UNL     1      15.943  -1.387  10.808  0.00  0.00    +0.000 A 
BRANCH  14  15
ATOM     15  C   UNL     1      16.382  -4.618  12.712  0.00  0.00    +0.388 C 
ATOM     16  O   UNL     1      15.723  -5.252  13.601  0.00  0.00    -0.241 OA
ATOM     17  O   UNL     1      17.386  -5.035  12.230  0.00  0.00    -0.241 OA
ENDBRANCH  14  15
ENDBRANCH  10  11
BRANCH  22  23
ATOM     23  N   UNL     1      14.563   2.019   7.142  0.00  0.00    -0.235 NA
BRANCH  23  24
ATOM     24  C   UNL     1      13.841   1.032   6.488  0.00  0.00    +0.066 A 
ATOM     25  C   UNL     1      12.770   0.432   7.084  0.00  0.00    +0.017 A 
ATOM     26  C   UNL     1      12.091  -0.576   6.444  0.00  0.00    +0.013 A 
ATOM     27  C   UNL     1      12.505  -0.994   5.230  0.00  0.00    +0.058 A 
ATOM     28  C   UNL     1      13.571  -0.426   4.615  0.00  0.00    +0.013 A 
ATOM     29 CL   UNL     1      11.663  -2.302   4.428  0.00  0.00    -0.082 Cl
ATOM     30  C   UNL     1      14.255   0.576   5.257  0.00  0.00    +0.017 A 
ENDBRANCH  23  24
ENDBRANCH  22  23
TORSDOF 4
