REMARK  Name = 5EKN
REMARK  9 active torsions:
REMARK  status: ('A' for Active; 'I' for Inactive)
REMARK    1  A    between atoms: N_3  and  C_4
REMARK    2  A    between atoms: C_6  and  C_7
REMARK    3  A    between atoms: C_7  and  C_8
REMARK    4  A    between atoms: C_7  and  C_9
REMARK    5  A    between atoms: C_7  and  C_10
REMARK    6  A    between atoms: N_12  and  C_13
REMARK    7  A    between atoms: N_14  and  C_15
REMARK    8  A    between atoms: C_18  and  S_21
REMARK    9  A    between atoms: S_21  and  C_22
REMARK                            x       y       z     vdW  Elec       q    Type
REMARK                         _______ _______ _______ _____ _____    ______ ____
ROOT
ATOM      1  O   UNL     1     -13.250  12.037 -26.367  0.00  0.00    -0.252 OA
ATOM      2  C   UNL     1     -14.309  11.429 -26.454  0.00  0.00    +0.309 C 
ATOM      3  N   UNL     1     -14.530  10.544 -27.588  0.00  0.00    -0.269 N 
ATOM      4  H   UNL     1     -15.423  10.916 -28.046  0.00  0.00    +0.156 HD
ATOM     18  N   UNL     1     -15.257  11.673 -25.371  0.00  0.00    -0.254 N 
ATOM     19  H   UNL     1     -15.462  10.708 -24.958  0.00  0.00    +0.158 HD
ENDROOT
BRANCH   3   5
ATOM      5  C   UNL     1     -13.631  10.248 -28.721  0.00  0.00    +0.035 A 
ATOM      6  C   UNL     1     -14.079   9.737 -29.976  0.00  0.00    +0.024 A 
ATOM      7  C   UNL     1     -13.224   9.451 -31.058  0.00  0.00    +0.017 A 
ATOM      8  C   UNL     1     -11.848   9.636 -30.980  0.00  0.00    +0.013 A 
ATOM     16  C   UNL     1     -11.383  10.136 -29.775  0.00  0.00    +0.017 A 
ATOM     17  C   UNL     1     -12.237  10.422 -28.694  0.00  0.00    +0.024 A 
BRANCH   8   9
ATOM      9  S   UNL     1     -10.769   9.287 -32.360  0.00  0.00    -0.089 S 
BRANCH   9  10
ATOM     10  C   UNL     1     -10.546  10.772 -33.340  0.00  0.00    +0.016 A 
ATOM     11  C   UNL     1     -11.284  11.919 -33.035  0.00  0.00    +0.035 A 
ATOM     12  C   UNL     1     -11.098  13.075 -33.804  0.00  0.00    +0.112 A 
ATOM     13  N   UNL     1     -10.234  13.146 -34.842  0.00  0.00    -0.263 NA
ATOM     14  C   UNL     1      -9.525  12.027 -35.126  0.00  0.00    +0.112 A 
ATOM     15  C   UNL     1      -9.648  10.826 -34.406  0.00  0.00    +0.035 A 
ENDBRANCH   9  10
ENDBRANCH   8   9
ENDBRANCH   3   5
BRANCH  18  20
ATOM     20  C   UNL     1     -15.051  12.540 -24.223  0.00  0.00    +0.124 A 
ATOM     21  N   UNL     1     -15.300  12.169 -22.895  0.00  0.00    -0.253 N 
ATOM     22  C   UNL     1     -15.812  10.844 -22.481  0.00  0.00    +0.174 C 
ATOM     23  N   UNL     1     -15.013  13.183 -21.999  0.00  0.00    -0.174 NA
ATOM     24  C   UNL     1     -14.563  14.259 -22.728  0.00  0.00    +0.070 A 
ATOM     29  C   UNL     1     -14.585  13.872 -24.111  0.00  0.00    +0.069 A 
BRANCH  24  25
ATOM     25  C   UNL     1     -14.136  15.614 -22.131  0.00  0.00    +0.006 C 
ATOM     26  C   UNL     1     -15.039  16.775 -22.576  0.00  0.00    +0.017 C 
ATOM     27  C   UNL     1     -14.133  15.613 -20.593  0.00  0.00    +0.017 C 
ATOM     28  C   UNL     1     -12.711  15.994 -22.552  0.00  0.00    +0.017 C 
ENDBRANCH  24  25
ENDBRANCH  18  20
TORSDOF 5
