REMARK  Name = 5BMS
REMARK  5 active torsions:
REMARK  status: ('A' for Active; 'I' for Inactive)
REMARK    1  A    between atoms: C_3  and  C_4
REMARK    2  A    between atoms: C_4  and  N_12
REMARK    3  A    between atoms: C_5  and  N_18
REMARK    4  A    between atoms: C_7  and  C_20
REMARK    5  A    between atoms: N_18  and  C_19
REMARK                            x       y       z     vdW  Elec       q    Type
REMARK                         _______ _______ _______ _____ _____    ______ ____
ROOT
ATOM     11  N   UNL     1     -36.285  14.655 -13.728  0.00  0.00    -0.309 N 
ATOM     12  H   UNL     1     -36.764  15.404 -13.133  0.00  0.00    +0.149 HD
ATOM     13  C   UNL     1     -37.003  13.530 -14.122  0.00  0.00    +0.217 A 
ATOM     14  N   UNL     1     -36.399  12.568 -14.811  0.00  0.00    -0.199 NA
ATOM     15  C   UNL     1     -37.059  11.477 -15.201  0.00  0.00    +0.129 A 
ATOM     27  C   UNL     1     -38.412  11.360 -14.867  0.00  0.00    +0.063 A 
ATOM     28  C   UNL     1     -39.008  12.378 -14.150  0.00  0.00    +0.118 A 
ATOM     29  N   UNL     1     -38.287  13.435 -13.797  0.00  0.00    -0.223 NA
ENDROOT
BRANCH  15  16
ATOM     16  N   UNL     1     -36.450  10.448 -15.923  0.00  0.00    -0.285 N 
ATOM     17  H   UNL     1     -36.991   9.528 -16.002  0.00  0.00    +0.155 HD
BRANCH  16  18
ATOM     18  C   UNL     1     -35.189  10.503 -16.559  0.00  0.00    +0.120 A 
ATOM     19  N   UNL     1     -34.850   9.754 -17.581  0.00  0.00    -0.264 N 
ATOM     20  H   UNL     1     -35.480   9.028 -18.051  0.00  0.00    +0.190 HD
ATOM     21  N   UNL     1     -33.538  10.052 -17.960  0.00  0.00    -0.177 NA
ATOM     22  C   UNL     1     -33.082  11.006 -17.129  0.00  0.00    +0.068 A 
ATOM     26  C   UNL     1     -34.072  11.305 -16.249  0.00  0.00    +0.068 A 
BRANCH  22  23
ATOM     23  C   UNL     1     -31.705  11.617 -17.193  0.00  0.00    +0.040 C 
ATOM     24  C   UNL     1     -31.217  12.410 -15.978  0.00  0.00    +0.010 C 
ATOM     25  C   UNL     1     -31.611  13.142 -17.264  0.00  0.00    +0.010 C 
ENDBRANCH  22  23
ENDBRANCH  16  18
ENDBRANCH  15  16
BRANCH  11  10
ATOM     10  C   UNL     1     -34.878  14.830 -14.117  0.00  0.00    +0.141 C 
BRANCH  10   9
ATOM      1  C   UNL     1     -32.463  15.605 -11.279  0.00  0.00    +0.107 A 
ATOM      2  N   UNL     1     -31.716  16.463 -10.531  0.00  0.00    -0.234 NA
ATOM      3  C   UNL     1     -31.086  15.804  -9.603  0.00  0.00    +0.197 A 
ATOM      4  N   UNL     1     -31.384  14.478  -9.689  0.00  0.00    -0.344 N 
ATOM      5  H   UNL     1     -31.010  13.702  -9.054  0.00  0.00    +0.167 HD
ATOM      6  C   UNL     1     -32.259  14.319 -10.748  0.00  0.00    +0.068 A 
ATOM      7  C   UNL     1     -32.906  13.229 -11.320  0.00  0.00    +0.028 A 
ATOM      8  C   UNL     1     -33.744  13.409 -12.402  0.00  0.00    +0.009 A 
ATOM      9  C   UNL     1     -33.954  14.675 -12.932  0.00  0.00    -0.010 A 
ATOM     30  C   UNL     1     -33.317  15.774 -12.380  0.00  0.00    +0.073 A 
ATOM     31 CL   UNL     1     -33.561  17.369 -13.025  0.00  0.00    -0.081 Cl
ENDBRANCH  10   9
ENDBRANCH  11  10
TORSDOF 5
