REMARK  Name = 6IB0
REMARK  3 active torsions:
REMARK  status: ('A' for Active; 'I' for Inactive)
REMARK    1  A    between atoms: CAJ_6  and  CAK_7
REMARK    2  A    between atoms: CAM_9  and  NAH_19
REMARK    3  A    between atoms: CAS_14  and  CAU_15
REMARK                            x       y       z     vdW  Elec       q    Type
REMARK                         _______ _______ _______ _____ _____    ______ ____
ROOT
ATOM      1  N   UNL     1     -22.653   5.771  -3.550  0.00  0.00    -0.760 NA
ATOM      2  C   UNL     1     -23.329   5.588  -4.690  0.00  0.00    +0.430 A 
ATOM      3  N   UNL     1     -23.352   4.409  -5.306  0.00  0.00    -0.550 NA
ATOM      4  C   UNL     1     -24.013   6.581  -5.263  0.00  0.00    +0.050 A 
ATOM      5  C   UNL     1     -24.751   6.680  -6.359  0.00  0.00    +0.050 A 
ATOM      6  N   UNL     1     -25.209   7.919  -6.458  0.00  0.00    -0.100 NA
ATOM      7  N   UNL     1     -24.844   8.557  -5.503  0.00  0.00    -0.250 N 
ATOM     20  C   UNL     1     -24.032   7.810  -4.744  0.00  0.00    +0.550 A 
ATOM     21  N   UNL     1     -23.402   8.058  -3.587  0.00  0.00    -0.730 NA
ATOM     22  C   UNL     1     -22.675   7.037  -2.960  0.00  0.00    +0.630 A 
ENDROOT
BRANCH   7   8
ATOM      8  C   UNL     1     -25.252   9.994  -5.520  0.00  0.00    +0.000 C 
ATOM      9  C   UNL     1     -24.143  10.840  -6.214  0.00  0.00    +0.000 C 
ATOM     10  N   UNL     1     -24.482  12.283  -6.282  0.00  0.00    -0.250 N 
ATOM     11  C   UNL     1     -23.614  13.303  -6.290  0.00  0.00    +0.600 C 
ATOM     12  O   UNL     1     -23.984  14.469  -6.415  0.00  0.00    -0.550 OA
ATOM     15  C   UNL     1     -25.842  12.574  -6.769  0.00  0.00    +0.000 C 
ATOM     16  C   UNL     1     -26.854  11.794  -5.981  0.00  0.00    -0.100 C 
ATOM     17  C   UNL     1     -26.651  10.283  -6.072  0.00  0.00    -0.100 C 
BRANCH  11  13
ATOM     13  C   UNL     1     -22.203  13.033  -5.800  0.00  0.00    -0.100 C 
ATOM     14  C   UNL     1     -21.334  14.187  -6.305  0.00  0.00    -0.100 C 
ENDBRANCH  11  13
ENDBRANCH   7   8
BRANCH   5  18
ATOM     18  C   UNL     1     -25.034   5.634  -7.313  0.00  0.00    +0.000 C 
ATOM     19  C   UNL     1     -25.269   4.773  -8.101  0.00  0.00    -0.300 C 
ENDBRANCH   5  18
TORSDOF 3
