REMARK  Name = 1h0w_ligand
REMARK  3 active torsions:
REMARK  status: ('A' for Active; 'I' for Inactive)
REMARK    1  A    between atoms: C6_6  and  O6_7
REMARK    2  A    between atoms: O6_7  and  C9_8
REMARK    3  A    between atoms: C9_8  and  C10_13
REMARK                            x       y       z     vdW  Elec       q    Type
REMARK                         _______ _______ _______ _____ _____    ______ ____
ROOT
ATOM      1  N   UNL     1       2.331  29.313   7.849  0.00  0.00    -0.277 NA
ATOM      2  C   UNL     1       1.237  29.472   8.632  0.00  0.00    +0.157 A 
ATOM     11  C   UNL     1       0.589  30.798   8.639  0.00  0.00    +0.081 A 
ATOM     12  N   UNL     1      -0.476  31.237   9.290  0.00  0.00    -0.308 NA
ATOM     13  C   UNL     1      -0.633  32.515   8.965  0.00  0.00    +0.230 A 
ATOM     14  N   UNL     1       0.331  32.902   8.104  0.00  0.00    -0.253 N 
ATOM     15  H   UNL     1       0.428  33.843   7.696  0.00  0.00    +0.234 HD
ATOM     16  C   UNL     1       1.131  31.874   7.870  0.00  0.00    +0.080 A 
ATOM     17  C   UNL     1       2.236  31.611   7.128  0.00  0.00    +0.028 A 
ATOM     18  C   UNL     1       2.818  30.354   7.121  0.00  0.00    +0.079 A 
ATOM     19  N   UNL     1       3.927  30.213   6.340  0.00  0.00    -0.331 N 
ATOM     20  H   UNL     1       4.412  29.306   6.293  0.00  0.00    +0.174 HD
ATOM     21  H   UNL     1       4.279  31.014   5.797  0.00  0.00    +0.174 HD
ENDROOT
BRANCH   2   3
ATOM      3  O   UNL     1       0.708  28.456   9.408  0.00  0.00    -0.303 OA
BRANCH   3   4
ATOM      4  C   UNL     1       1.463  27.253   9.556  0.00  0.00    +0.204 C 
BRANCH   4   5
ATOM      5  C   UNL     1       0.911  26.456  10.723  0.00  0.00    +0.030 C 
ATOM      6  C   UNL     1       2.004  25.528  11.243  0.00  0.00    +0.047 C 
ATOM      7  C   UNL     1       1.536  24.223  11.903  0.00  0.00    -0.053 C 
ATOM      8  C   UNL     1       0.333  23.563  11.237  0.00  0.00    -0.054 C 
ATOM      9  C   UNL     1      -0.012  24.285   9.948  0.00  0.00    +0.042 C 
ATOM     10  C   UNL     1      -0.342  25.735  10.248  0.00  0.00    +0.019 C 
ENDBRANCH   4   5
ENDBRANCH   3   4
ENDBRANCH   2   3
TORSDOF 3
