REMARK  Name = 4IP7
REMARK  9 active torsions:
REMARK  status: ('A' for Active; 'I' for Inactive)
REMARK    1  A    between atoms: P_1  and  O_5
REMARK    2  A    between atoms: O_5  and  C_6
REMARK    3  A    between atoms: C_6  and  C_7
REMARK    4  A    between atoms: C_7  and  O_8
REMARK    5  A    between atoms: C_9  and  O_10
REMARK    6  A    between atoms: C_11  and  O_12
REMARK    7  A    between atoms: C_13  and  C_15
REMARK    8  A    between atoms: C_15  and  O_16
REMARK    9  A    between atoms: O_16  and  P_17
REMARK                            x       y       z     vdW  Elec       q    Type
REMARK                         _______ _______ _______ _____ _____    ______ ____
ROOT
ATOM      4  C   UNL     1      46.236  35.650   8.992  0.00  0.00    +0.221 C 
ATOM      5  O   UNL     1      45.749  35.505   7.607  0.00  0.00    -0.336 OA
ATOM      6  C   UNL     1      46.683  34.631   6.898  0.00  0.00    +0.179 C 
ATOM     13  C   UNL     1      47.606  34.016   7.956  0.00  0.00    +0.179 C 
ATOM     16  C   UNL     1      47.678  35.155   8.923  0.00  0.00    +0.207 C 
ENDROOT
BRANCH  13  14
ATOM     14  O   UNL     1      48.867  33.552   7.332  0.00  0.00    -0.386 OA
ATOM     15  H   UNL     1      49.302  34.341   6.792  0.00  0.00    +0.210 HD
ENDBRANCH  13  14
BRANCH  16  17
ATOM     17  O   UNL     1      48.192  34.822  10.247  0.00  0.00    -0.384 OA
ATOM     18  H   UNL     1      48.162  35.675  10.859  0.00  0.00    +0.210 HD
ENDBRANCH  16  17
BRANCH   4  19
ATOM     19  O   UNL     1      45.425  35.026  10.009  0.00  0.00    -0.361 OA
ATOM     20  H   UNL     1      45.855  35.195  10.952  0.00  0.00    +0.213 HD
ENDBRANCH   4  19
BRANCH   4   3
ATOM      3  C   UNL     1      46.209  37.145   9.404  0.00  0.00    +0.231 C 
BRANCH   3   2
ATOM      2  O   UNL     1      47.143  37.883   8.590  0.00  0.00    -0.362 OA
BRANCH   2   1
ATOM      1  P   UNL     1      46.969  39.520   8.339  0.00  0.00    -0.015 P 
ATOM     21  O   UNL     1      47.046  40.068   9.764  0.00  0.00    -0.638 OA
ATOM     22  O   UNL     1      45.562  39.668   7.704  0.00  0.00    -0.577 OA
ATOM     23  O   UNL     1      48.168  39.724   7.392  0.00  0.00    -0.577 OA
ENDBRANCH   2   1
ENDBRANCH   3   2
ENDBRANCH   4   3
BRANCH   6   7
ATOM      7  C   UNL     1      45.879  33.603   6.062  0.00  0.00    +0.198 C 
BRANCH   7   8
ATOM      8  O   UNL     1      45.733  34.146   4.677  0.00  0.00    -0.365 OA
BRANCH   8   9
ATOM      9  P   UNL     1      45.737  33.111   3.404  0.00  0.00    -0.015 P 
ATOM     10  O   UNL     1      46.919  32.225   3.405  0.00  0.00    -0.638 OA
ATOM     11  O   UNL     1      45.582  34.074   2.259  0.00  0.00    -0.577 OA
ATOM     12  O   UNL     1      44.458  32.287   3.695  0.00  0.00    -0.577 OA
ENDBRANCH   8   9
ENDBRANCH   7   8
ENDBRANCH   6   7
TORSDOF 9
