REMARK  Name = 4fl3_ligand
REMARK  11 active torsions:
REMARK  status: ('A' for Active; 'I' for Inactive)
REMARK    1  A    between atoms: PG_1  and  N3B_8
REMARK    2  A    between atoms: PB_5  and  N3B_8
REMARK    3  A    between atoms: PB_5  and  O3A_12
REMARK    4  A    between atoms: PA_9  and  O3A_12
REMARK    5  A    between atoms: PA_9  and  O5'_13
REMARK    6  A    between atoms: O5'_13  and  C5'_14
REMARK    7  A    between atoms: C5'_14  and  C4'_15
REMARK    8  A    between atoms: C3'_17  and  O3'_18
REMARK    9  A    between atoms: C2'_19  and  O2'_20
REMARK   10  A    between atoms: C1'_21  and  N9_22
REMARK   11  A    between atoms: C6_26  and  N6_27
REMARK                            x       y       z     vdW  Elec       q    Type
REMARK                         _______ _______ _______ _____ _____    ______ ____
ROOT
ATOM      9  C   UNL     1       5.447 -12.036  -6.495  0.00  0.00    +0.184 C 
ATOM     10  C   UNL     1       5.535 -11.728  -4.981  0.00  0.00    +0.180 C 
ATOM     11  C   UNL     1       7.059 -11.591  -4.791  0.00  0.00    +0.206 C 
ATOM     12  C   UNL     1       7.434 -10.891  -6.120  0.00  0.00    +0.301 C 
ATOM     29  O   UNL     1       6.448 -11.200  -7.119  0.00  0.00    -0.336 OA
ENDROOT
BRANCH  12  13
ATOM     13  N   UNL     1       7.637  -9.449  -5.988  0.00  0.00    -0.192 N 
ATOM     14  C   UNL     1       8.841  -8.922  -5.658  0.00  0.00    +0.161 A 
ATOM     15  N   UNL     1      10.026  -9.466  -5.338  0.00  0.00    -0.271 NA
ATOM     16  C   UNL     1      11.042  -8.685  -5.038  0.00  0.00    +0.153 A 
ATOM     17  N   UNL     1      10.925  -7.363  -5.057  0.00  0.00    -0.270 NA
ATOM     18  C   UNL     1       9.781  -6.740  -5.358  0.00  0.00    +0.130 A 
ATOM     22  C   UNL     1       8.661  -7.527  -5.689  0.00  0.00    +0.105 A 
ATOM     23  N   UNL     1       7.365  -7.290  -6.044  0.00  0.00    -0.296 NA
ATOM     24  C   UNL     1       6.750  -8.424  -6.203  0.00  0.00    +0.247 A 
BRANCH  18  19
ATOM     19  N   UNL     1       9.729  -5.356  -5.357  0.00  0.00    -0.315 N 
ATOM     20  H   UNL     1      10.558  -4.815  -5.112  0.00  0.00    +0.182 HD
ATOM     21  H   UNL     1       8.861  -4.878  -5.601  0.00  0.00    +0.182 HD
ENDBRANCH  18  19
ENDBRANCH  12  13
BRANCH  11  25
ATOM     25  O   UNL     1       7.708 -12.883  -4.721  0.00  0.00    -0.384 OA
ATOM     26  H   UNL     1       7.354 -13.378  -3.979  0.00  0.00    +0.210 HD
ENDBRANCH  11  25
BRANCH  10  27
ATOM     27  O   UNL     1       5.007 -12.824  -4.233  0.00  0.00    -0.386 OA
ATOM     28  H   UNL     1       5.514 -13.616  -4.426  0.00  0.00    +0.210 HD
ENDBRANCH  10  27
BRANCH   9   8
ATOM      8  C   UNL     1       4.075 -11.667  -7.053  0.00  0.00    +0.242 C 
BRANCH   8   7
ATOM      7  O   UNL     1       3.906 -10.247  -6.948  0.00  0.00    -0.248 OA
BRANCH   7   6
ATOM      6  P   UNL     1       2.494  -9.586  -7.307  0.00  0.00    +0.295 P 
ATOM     30  O   UNL     1       2.414  -8.195  -6.659  0.00  0.00    -0.613 OA
ATOM     31  O   UNL     1       2.391  -9.554  -8.838  0.00  0.00    -0.613 OA
BRANCH   6   5
ATOM      5  O   UNL     1       1.342 -10.555  -6.692  0.00  0.00    -0.143 OA
BRANCH   5   4
ATOM      4  P   UNL     1       0.579 -10.701  -5.275  0.00  0.00    +0.254 P 
ATOM     32  O   UNL     1       1.016 -12.006  -4.586  0.00  0.00    -0.626 OA
ATOM     33  O   UNL     1       0.871  -9.465  -4.396  0.00  0.00    -0.626 OA
BRANCH   4   2
ATOM      2  N   UNL     1      -1.088 -10.823  -5.522  0.00  0.00    -0.180 NA
ATOM      3  H   UNL     1      -1.592 -11.668  -5.252  0.00  0.00    +0.213 HD
BRANCH   2   1
ATOM      1  P   UNL     1      -1.913  -9.510  -6.230  0.00  0.00    +0.180 P 
ATOM     34  O   UNL     1      -3.011 -10.159  -7.136  0.00  0.00    -0.545 OA
ATOM     35  O   UNL     1      -1.012  -8.619  -7.135  0.00  0.00    -0.545 OA
ATOM     36  O   UNL     1      -2.675  -8.688  -5.150  0.00  0.00    -0.545 OA
ENDBRANCH   2   1
ENDBRANCH   4   2
ENDBRANCH   5   4
ENDBRANCH   6   5
ENDBRANCH   7   6
ENDBRANCH   8   7
ENDBRANCH   9   8
TORSDOF 11
