REMARK  Name = 2xnn_ligand
REMARK  7 active torsions:
REMARK  status: ('A' for Active; 'I' for Inactive)
REMARK    1  A    between atoms: C01_1  and  C02_2
REMARK    2  A    between atoms: C02_2  and  O03_3
REMARK    3  A    between atoms: C02_2  and  C21_21
REMARK    4  A    between atoms: O03_3  and  C04_4
REMARK    5  A    between atoms: C06_6  and  N07_7
REMARK    6  A    between atoms: C17_17  and  C18_18
REMARK    7  A    between atoms: C26_26  and  C27_27
REMARK                            x       y       z     vdW  Elec       q    Type
REMARK                         _______ _______ _______ _____ _____    ______ ____
ROOT
ATOM     14  C   UNL     1      24.643   9.105 -15.007  0.00  0.00    +0.089 A 
ATOM     15  C   UNL     1      23.343   8.252 -14.989  0.00  0.00    +0.105 A 
ATOM     21  S   UNL     1      23.311   7.358 -16.320  0.00  0.00    -0.007 S 
ATOM     22  C   UNL     1      24.712   7.687 -17.175  0.00  0.00    +0.160 A 
ATOM     32  C   UNL     1      25.492   8.722 -16.412  0.00  0.00    +0.033 A 
ENDROOT
BRANCH  22  23
ATOM     23  N   UNL     1      25.062   7.213 -18.421  0.00  0.00    -0.175 N 
ATOM     24  C   UNL     1      25.590   8.020 -19.454  0.00  0.00    +0.107 A 
ATOM     25  C   UNL     1      26.035   9.378 -19.481  0.00  0.00    +0.022 A 
ATOM     26  C   UNL     1      26.636   9.969 -20.712  0.00  0.00    -0.018 A 
ATOM     27  C   UNL     1      26.767   9.195 -21.836  0.00  0.00    -0.022 A 
ATOM     28  C   UNL     1      26.316   7.801 -21.804  0.00  0.00    -0.004 A 
ATOM     29  C   UNL     1      25.728   7.225 -20.597  0.00  0.00    +0.039 A 
ATOM     30  N   UNL     1      25.216   5.960 -20.300  0.00  0.00    -0.301 NA
ATOM     31  C   UNL     1      24.770   5.962 -18.955  0.00  0.00    +0.264 A 
ENDBRANCH  22  23
BRANCH  15  16
ATOM     16  C   UNL     1      22.260   8.288 -13.929  0.00  0.00    +0.177 C 
ATOM     17  O   UNL     1      21.475   9.205 -13.924  0.00  0.00    -0.412 OA
ATOM     18  N   UNL     1      22.215   7.332 -12.847  0.00  0.00    -0.308 N 
ATOM     19  H   UNL     1      22.912   6.618 -12.781  0.00  0.00    +0.178 HD
ATOM     20  H   UNL     1      21.486   7.384 -12.164  0.00  0.00    +0.178 HD
ENDBRANCH  15  16
BRANCH  14  13
ATOM     13  O   UNL     1      25.073  10.035 -14.054  0.00  0.00    -0.307 OA
BRANCH  13   2
ATOM      1  C   UNL     1      26.582  11.820 -13.253  0.00  0.00    +0.068 C 
ATOM      2  C   UNL     1      26.015  11.044 -14.425  0.00  0.00    +0.214 C 
BRANCH   2   3
ATOM      3  C   UNL     1      25.616  11.919 -15.599  0.00  0.00    +0.024 A 
ATOM      4  C   UNL     1      26.620  12.241 -16.720  0.00  0.00    +0.052 A 
ATOM      9  C   UNL     1      26.231  13.028 -17.798  0.00  0.00    +0.044 A 
ATOM     10  C   UNL     1      24.784  13.595 -17.894  0.00  0.00    +0.026 A 
ATOM     11  C   UNL     1      23.877  13.304 -16.875  0.00  0.00    +0.043 A 
ATOM     12  C   UNL     1      24.297  12.435 -15.687  0.00  0.00    +0.037 A 
BRANCH   4   5
ATOM      5  C   UNL     1      28.064  11.748 -16.662  0.00  0.00    +0.371 C 
ATOM      6  F   UNL     1      28.584  11.953 -15.452  0.00  0.00    -0.226 F 
ATOM      7  F   UNL     1      28.089  10.429 -16.947  0.00  0.00    -0.226 F 
ATOM      8  F   UNL     1      28.786  12.417 -17.550  0.00  0.00    -0.226 F 
ENDBRANCH   4   5
ENDBRANCH   2   3
ENDBRANCH  13   2
ENDBRANCH  14  13
TORSDOF 6
