REMARK  Name = 1vyw_ligand
REMARK  3 active torsions:
REMARK  status: ('A' for Active; 'I' for Inactive)
REMARK    1  A    between atoms: C3_3  and  C4_4
REMARK    2  A    between atoms: C10_10  and  C11_11
REMARK    3  A    between atoms: C11_11  and  C12_12
REMARK                            x       y       z     vdW  Elec       q    Type
REMARK                         _______ _______ _______ _____ _____    ______ ____
ROOT
ATOM      3  C   UNL     1     -12.862 205.249 110.546  0.00  0.00    +0.059 A 
ATOM      4  N   UNL     1     -12.487 205.765 109.327  0.00  0.00    -0.238 N 
ATOM      5  H   UNL     1     -13.009 205.640 108.448  0.00  0.00    +0.243 HD
ATOM      6  N   UNL     1     -11.345 206.453 109.449  0.00  0.00    -0.237 NA
ATOM      7  C   UNL     1     -10.966 206.388 110.768  0.00  0.00    +0.096 A 
ATOM      8  N   UNL     1      -9.777 207.022 111.332  0.00  0.00    -0.235 N 
ATOM      9  H   UNL     1      -9.225 207.516 110.660  0.00  0.00    +0.221 HD
ATOM     10  C   UNL     1      -9.281 207.070 112.582  0.00  0.00    +0.211 C 
ATOM     11  O   UNL     1      -9.808 206.527 113.557  0.00  0.00    -0.384 OA
ATOM     23  C   UNL     1     -11.904 205.635 111.473  0.00  0.00    -0.007 A 
ENDROOT
BRANCH   3   2
ATOM      1  C   UNL     1     -14.288 203.630 112.078  0.00  0.00    +0.025 C 
ATOM      2  C   UNL     1     -14.137 204.399 110.765  0.00  0.00    +0.070 C 
ATOM     24  C   UNL     1     -15.116 204.888 111.832  0.00  0.00    +0.025 C 
ENDBRANCH   3   2
BRANCH  10  12
ATOM     12  C   UNL     1      -7.973 207.868 112.769  0.00  0.00    +0.209 C 
BRANCH  12  13
ATOM     13  C   UNL     1      -6.806 206.937 113.081  0.00  0.00    -0.023 A 
ATOM     14  C   UNL     1      -6.560 206.542 114.432  0.00  0.00    +0.005 A 
ATOM     15  C   UNL     1      -5.494 205.673 114.754  0.00  0.00    +0.005 A 
ATOM     16  C   UNL     1      -4.648 205.182 113.733  0.00  0.00    -0.022 A 
ATOM     17  C   UNL     1      -3.567 204.302 114.023  0.00  0.00    +0.005 A 
ATOM     18  C   UNL     1      -2.742 203.828 112.967  0.00  0.00    -0.003 A 
ATOM     19  C   UNL     1      -2.983 204.216 111.619  0.00  0.00    -0.002 A 
ATOM     20  C   UNL     1      -4.055 205.093 111.291  0.00  0.00    +0.003 A 
ATOM     21  C   UNL     1      -4.902 205.587 112.316  0.00  0.00    -0.025 A 
ATOM     22  C   UNL     1      -5.976 206.461 112.028  0.00  0.00    +0.001 A 
ENDBRANCH  12  13
ENDBRANCH  10  12
TORSDOF 3
