REMARK  Name = 4kab_ligand
REMARK  1 active torsions:
REMARK  status: ('A' for Active; 'I' for Inactive)
REMARK    1  A    between atoms: C5_5  and  C9_9
REMARK                            x       y       z     vdW  Elec       q    Type
REMARK                         _______ _______ _______ _____ _____    ______ ____
ROOT
ATOM      1  C   UNL     1      -8.381  26.107 -41.918  0.00  0.00    +0.109 A 
ATOM      2  N   UNL     1      -7.509  25.344 -42.642  0.00  0.00    -0.228 N 
ATOM      3  H   UNL     1      -6.590  24.998 -42.333  0.00  0.00    +0.241 HD
ATOM      4  N   UNL     1      -8.111  25.125 -43.888  0.00  0.00    -0.220 NA
ATOM      5  C   UNL     1      -9.279  25.709 -43.938  0.00  0.00    +0.100 A 
ATOM      6  C   UNL     1      -8.598  26.743 -40.697  0.00  0.00    +0.044 A 
ATOM      7  C   UNL     1      -7.645  26.695 -39.544  0.00  0.00    +0.087 C 
ATOM      8  N   UNL     1      -9.754  27.344 -40.728  0.00  0.00    -0.231 NA
ATOM      9  N   UNL     1     -10.363  27.121 -41.980  0.00  0.00    -0.238 N 
ATOM     10  H   UNL     1     -11.283  27.471 -42.284  0.00  0.00    +0.235 HD
ATOM     11  C   UNL     1      -9.501  26.351 -42.717  0.00  0.00    +0.101 A 
ENDROOT
TORSDOF 0
