REMARK  Name = 6HHH
REMARK  7 active torsions:
REMARK  status: ('A' for Active; 'I' for Inactive)
REMARK    1  A    between atoms: CAK_6  and  CAH_7
REMARK    2  A    between atoms: CAI_17  and  CAQ_18
REMARK    3  A    between atoms: CAT_23  and  CAW_24
REMARK    4  A    between atoms: CAW_24  and  NAX_25
REMARK    5  A    between atoms: NBA_30  and  CBD_31
REMARK    6  A    between atoms: CBG_36  and  NBJ_37
REMARK    7  A    between atoms: CBK_38  and  CBL_40
REMARK                            x       y       z     vdW  Elec       q    Type
REMARK                         _______ _______ _______ _____ _____    ______ ____
ROOT
ATOM      5  C   UNL     1      -3.571   1.987 -13.123  0.00  0.00    +0.000 A 
ATOM      6  C   UNL     1      -4.264   3.180 -13.342  0.00  0.00    -0.130 A 
ATOM      7  C   UNL     1      -4.655   3.982 -12.283  0.00  0.00    -0.130 A 
ATOM      8  C   UNL     1      -4.330   3.621 -10.986  0.00  0.00    +0.000 A 
ATOM     27  C   UNL     1      -3.635   2.438 -10.747  0.00  0.00    -0.130 A 
ATOM     28  C   UNL     1      -3.251   1.626 -11.816  0.00  0.00    -0.130 A 
ENDROOT
BRANCH   5   4
ATOM      3  C   UNL     1      -4.138   0.720 -15.171  0.00  0.00    +0.000 A 
ATOM      4  C   UNL     1      -3.209   1.154 -14.189  0.00  0.00    +0.100 A 
ATOM     29  N   UNL     1      -1.941   0.726 -14.239  0.00  0.00    -0.480 NA
ATOM     30  C   UNL     1      -1.514  -0.087 -15.219  0.00  0.00    +0.380 A 
ATOM     31  C   UNL     1      -0.184  -0.493 -15.250  0.00  0.00    -0.100 A 
ATOM     32  C   UNL     1       0.257  -1.327 -16.266  0.00  0.00    +0.000 A 
ATOM     33  N   UNL     1      -0.565  -1.745 -17.214  0.00  0.00    -0.400 NA
ATOM     34  C   UNL     1      -1.909  -1.357 -17.221  0.00  0.00    +0.600 A 
ATOM     35  O   UNL     1      -2.651  -1.763 -18.115  0.00  0.00    -0.550 OA
ATOM     36  C   UNL     1      -2.383  -0.522 -16.215  0.00  0.00    +0.000 A 
ATOM     37  C   UNL     1      -3.712  -0.119 -16.199  0.00  0.00    -0.130 A 
BRANCH   3   2
ATOM      1  C   UNL     1      -6.270   0.841 -14.033  0.00  0.00    -0.130 A 
ATOM      2  C   UNL     1      -5.483   1.112 -15.152  0.00  0.00    +0.000 A 
ATOM     38  C   UNL     1      -6.040   1.776 -16.239  0.00  0.00    -0.130 A 
ATOM     39  C   UNL     1      -7.371   2.189 -16.205  0.00  0.00    -0.130 A 
ATOM     40  C   UNL     1      -8.145   1.921 -15.087  0.00  0.00    -0.130 A 
ATOM     41  C   UNL     1      -7.593   1.246 -14.000  0.00  0.00    -0.130 A 
ENDBRANCH   3   2
ENDBRANCH   5   4
BRANCH   8   9
ATOM      9  C   UNL     1      -4.744   4.448  -9.953  0.00  0.00    +0.100 C 
BRANCH   9  10
ATOM     10  N   UNL     1      -3.655   4.969  -9.139  0.00  0.00    -0.600 NA
ATOM     11  C   UNL     1      -2.917   5.935  -9.961  0.00  0.00    +0.100 C 
ATOM     12  C   UNL     1      -1.789   6.568  -9.165  0.00  0.00    +0.000 C 
ATOM     13  N   UNL     1      -2.251   7.044  -7.835  0.00  0.00    -0.250 N 
ATOM     25  C   UNL     1      -3.296   6.296  -7.098  0.00  0.00    +0.000 C 
ATOM     26  C   UNL     1      -4.309   5.702  -8.047  0.00  0.00    +0.100 C 
BRANCH  13  14
ATOM     14  C   UNL     1      -1.713   8.146  -7.284  0.00  0.00    +0.050 A 
ATOM     15  C   UNL     1      -1.024   9.058  -8.070  0.00  0.00    -0.130 A 
ATOM     16  C   UNL     1      -0.468  10.200  -7.503  0.00  0.00    -0.130 A 
ATOM     17  C   UNL     1      -0.582  10.441  -6.136  0.00  0.00    +0.050 A 
ATOM     23  C   UNL     1      -1.284   9.530  -5.354  0.00  0.00    -0.130 A 
ATOM     24  C   UNL     1      -1.843   8.384  -5.920  0.00  0.00    -0.130 A 
BRANCH  17  18
ATOM     18  N   UNL     1      -0.050  11.556  -5.616  0.00  0.00    -0.350 NA
ATOM     19  C   UNL     1       1.283  11.644  -5.409  0.00  0.00    +0.600 C 
ATOM     22  O   UNL     1       2.094  10.743  -5.638  0.00  0.00    -0.550 OA
BRANCH  19  20
ATOM     20  C   UNL     1       1.755  13.015  -4.880  0.00  0.00    -0.100 C 
ATOM     21  C   UNL     1       0.766  14.176  -5.091  0.00  0.00    -0.100 C 
ENDBRANCH  19  20
ENDBRANCH  17  18
ENDBRANCH  13  14
ENDBRANCH   9  10
ENDBRANCH   8   9
TORSDOF 7
