REMARK  Name = 2p2h_ligand
REMARK  9 active torsions:
REMARK  status: ('A' for Active; 'I' for Inactive)
REMARK    1  A    between atoms: C1_1  and  O22_16
REMARK    2  A    between atoms: C2_2  and  O27_18
REMARK    3  A    between atoms: C4_4  and  N9_7
REMARK    4  A    between atoms: C6_6  and  O17_14
REMARK    5  A    between atoms: C12_10  and  C32_20
REMARK    6  A    between atoms: O17_14  and  C18_15
REMARK    7  A    between atoms: O22_16  and  C23_17
REMARK    8  A    between atoms: O27_18  and  C28_19
REMARK    9  A    between atoms: N41_26  and  C42_27
REMARK                            x       y       z     vdW  Elec       q    Type
REMARK                         _______ _______ _______ _____ _____    ______ ____
ROOT
ATOM      9  N   UNL     1       7.200  17.298  42.469  0.00  0.00    -0.246 N 
ATOM     10  H   UNL     1       6.717  16.644  41.837  0.00  0.00    +0.219 HD
ATOM     11  C   UNL     1       6.454  17.735  43.541  0.00  0.00    +0.219 A 
ATOM     12  N   UNL     1       5.235  17.212  43.615  0.00  0.00    -0.226 NA
ATOM     13  C   UNL     1       4.525  17.645  44.664  0.00  0.00    +0.201 A 
ATOM     14  N   UNL     1       4.945  18.516  45.590  0.00  0.00    -0.253 NA
ATOM     15  C   UNL     1       6.211  19.052  45.506  0.00  0.00    +0.126 A 
ATOM     30  N   UNL     1       6.955  18.617  44.424  0.00  0.00    -0.223 NA
ENDROOT
BRANCH  15  16
ATOM     16  C   UNL     1       6.804  20.049  46.495  0.00  0.00    +0.075 A 
ATOM     17  C   UNL     1       6.149  20.577  47.658  0.00  0.00    +0.152 A 
ATOM     18  N   UNL     1       4.873  20.193  47.981  0.00  0.00    -0.255 N 
ATOM     19  H   UNL     1       4.288  19.803  47.228  0.00  0.00    +0.216 HD
ATOM     26  N   UNL     1       6.781  21.488  48.491  0.00  0.00    -0.273 NA
ATOM     27  C   UNL     1       8.041  21.906  48.237  0.00  0.00    +0.085 A 
ATOM     28  C   UNL     1       8.754  21.434  47.126  0.00  0.00    +0.021 A 
ATOM     29  C   UNL     1       8.121  20.508  46.268  0.00  0.00    +0.041 A 
BRANCH  18  20
ATOM     20  C   UNL     1       4.318  20.288  49.227  0.00  0.00    +0.064 A 
ATOM     21  C   UNL     1       4.559  19.243  50.157  0.00  0.00    +0.015 A 
ATOM     22  C   UNL     1       4.007  19.305  51.456  0.00  0.00    -0.013 A 
ATOM     23  C   UNL     1       3.209  20.415  51.838  0.00  0.00    -0.022 A 
ATOM     24  C   UNL     1       2.963  21.466  50.916  0.00  0.00    -0.013 A 
ATOM     25  C   UNL     1       3.519  21.400  49.612  0.00  0.00    +0.015 A 
ENDBRANCH  18  20
ENDBRANCH  15  16
BRANCH   9   8
ATOM      1  C   UNL     1      11.207  18.055  41.251  0.00  0.00    +0.136 A 
ATOM      4  C   UNL     1      10.507  16.858  40.854  0.00  0.00    +0.103 A 
ATOM      7  C   UNL     1       9.175  16.660  41.292  0.00  0.00    +0.007 A 
ATOM      8  C   UNL     1       8.512  17.609  42.112  0.00  0.00    +0.041 A 
ATOM     31  C   UNL     1       9.225  18.798  42.499  0.00  0.00    +0.007 A 
ATOM     32  C   UNL     1      10.565  19.031  42.078  0.00  0.00    +0.103 A 
BRANCH   1   2
ATOM      2  O   UNL     1      12.514  18.269  40.841  0.00  0.00    -0.337 OA
ATOM      3  C   UNL     1      13.433  17.726  41.794  0.00  0.00    +0.221 C 
ENDBRANCH   1   2
BRANCH   4   5
ATOM      5  O   UNL     1      11.076  15.853  40.047  0.00  0.00    -0.331 OA
ATOM      6  C   UNL     1      11.039  16.148  38.661  0.00  0.00    +0.228 C 
ENDBRANCH   4   5
BRANCH  32  33
ATOM     33  O   UNL     1      11.280  20.204  42.463  0.00  0.00    -0.331 OA
ATOM     34  C   UNL     1      10.486  21.392  42.622  0.00  0.00    +0.228 C 
ENDBRANCH  32  33
ENDBRANCH   9   8
TORSDOF 6
