REMARK  Name = 4FTK
REMARK  4 active torsions:
REMARK  status: ('A' for Active; 'I' for Inactive)
REMARK    1  A    between atoms: O_1  and  C_2
REMARK    2  A    between atoms: C_13  and  C_14
REMARK    3  A    between atoms: C_19  and  C_20
REMARK    4  A    between atoms: C_25  and  O_26
REMARK                            x       y       z     vdW  Elec       q    Type
REMARK                         _______ _______ _______ _____ _____    ______ ____
ROOT
ATOM      3  C   UNL     1      21.495  -5.430  10.229  0.00  0.00    +0.117 A 
ATOM      4  C   UNL     1      21.631  -4.426   9.280  0.00  0.00    +0.046 A 
ATOM      5  C   UNL     1      20.525  -3.683   8.899  0.00  0.00    +0.014 A 
ATOM      6  C   UNL     1      19.265  -3.960   9.434  0.00  0.00    +0.006 A 
ATOM      7  C   UNL     1      19.130  -4.983  10.370  0.00  0.00    -0.030 A 
ATOM      8  C   UNL     1      17.681  -5.194  10.699  0.00  0.00    +0.075 C 
ATOM      9  C   UNL     1      16.992  -4.125  10.013  0.00  0.00    +0.010 A 
ATOM     10  C   UNL     1      15.787  -3.488   9.816  0.00  0.00    +0.070 A 
ATOM     25  N   UNL     1      16.030  -2.423   9.020  0.00  0.00    -0.276 N 
ATOM     26  H   UNL     1      15.390  -1.728   8.647  0.00  0.00    +0.189 HD
ATOM     27  N   UNL     1      17.352  -2.313   8.671  0.00  0.00    -0.173 NA
ATOM     28  C   UNL     1      17.949  -3.352   9.269  0.00  0.00    +0.097 A 
ATOM     29  C   UNL     1      20.251  -5.691  10.785  0.00  0.00    +0.050 A 
ENDROOT
BRANCH  10  11
ATOM     11  C   UNL     1      14.496  -3.719  10.493  0.00  0.00    +0.000 A 
ATOM     12  C   UNL     1      14.291  -4.860  11.265  0.00  0.00    +0.010 A 
ATOM     13  C   UNL     1      13.132  -5.012  12.005  0.00  0.00    +0.009 A 
ATOM     14  C   UNL     1      12.131  -4.038  11.999  0.00  0.00    -0.018 A 
ATOM     23  C   UNL     1      12.333  -2.927  11.185  0.00  0.00    +0.009 A 
ATOM     24  C   UNL     1      13.488  -2.767  10.447  0.00  0.00    +0.010 A 
BRANCH  14  15
ATOM     15  C   UNL     1      10.973  -4.106  12.941  0.00  0.00    -0.018 A 
ATOM     16  C   UNL     1      10.414  -5.333  13.300  0.00  0.00    +0.012 A 
ATOM     17  C   UNL     1       9.161  -5.416  13.885  0.00  0.00    +0.046 A 
ATOM     18  C   UNL     1       8.437  -4.262  14.141  0.00  0.00    +0.117 A 
ATOM     21  C   UNL     1       8.990  -3.027  13.844  0.00  0.00    +0.046 A 
ATOM     22  C   UNL     1      10.244  -2.956  13.267  0.00  0.00    +0.012 A 
BRANCH  18  19
ATOM     19  O   UNL     1       7.227  -4.357  14.763  0.00  0.00    -0.507 OA
ATOM     20  H   UNL     1       6.906  -3.447  14.991  0.00  0.00    +0.292 HD
ENDBRANCH  18  19
ENDBRANCH  14  15
ENDBRANCH  10  11
BRANCH   3   1
ATOM      1  O   UNL     1      22.580  -6.186  10.586  0.00  0.00    -0.507 OA
ATOM      2  H   UNL     1      22.321  -6.879  11.248  0.00  0.00    +0.292 HD
ENDBRANCH   3   1
TORSDOF 4
