REMARK  Name = 3nyx_ligand
REMARK  3 active torsions:
REMARK  status: ('A' for Active; 'I' for Inactive)
REMARK    1  A    between atoms: S1_4  and  C9_18
REMARK    2  A    between atoms: S1_4  and  C10_19
REMARK    3  A    between atoms: C12_21  and  C13_22
REMARK                            x       y       z     vdW  Elec       q    Type
REMARK                         _______ _______ _______ _____ _____    ______ ____
ROOT
ATOM     11  C   UNL     1       6.521   9.149  21.241  0.00  0.00    +0.178 A 
ATOM     12  N   UNL     1       6.934   9.114  19.945  0.00  0.00    -0.274 NA
ATOM     13  N   UNL     1       7.466   7.847  19.599  0.00  0.00    -0.274 NA
ATOM     14  C   UNL     1       7.407   6.984  20.643  0.00  0.00    +0.218 A 
ATOM     15  N   UNL     1       7.884   5.722  20.500  0.00  0.00    -0.196 N 
ATOM     16  H   UNL     1       8.349   5.512  19.640  0.00  0.00    +0.238 HD
ATOM     17  C   UNL     1       7.795   4.738  21.387  0.00  0.00    +0.245 C 
ATOM     23  O   UNL     1       7.252   4.838  22.470  0.00  0.00    -0.376 OA
ATOM     24  S   UNL     1       6.732   7.654  22.080  0.00  0.00    +0.077 S 
ENDROOT
BRANCH  17  18
ATOM     18  C   UNL     1       8.391   3.465  21.015  0.00  0.00    +0.108 A 
ATOM     19  C   UNL     1       9.099   3.251  19.972  0.00  0.00    -0.003 A 
ATOM     20  C   UNL     1       9.423   2.004  19.904  0.00  0.00    -0.023 A 
ATOM     21  C   UNL     1       9.081   1.220  20.948  0.00  0.00    +0.081 A 
ATOM     22  S   UNL     1       8.161   2.142  21.983  0.00  0.00    -0.025 S 
ENDBRANCH  17  18
BRANCH  11  10
ATOM     10  S   UNL     1       5.822  10.579  21.959  0.00  0.00    +0.020 S 
BRANCH  10   6
ATOM      1  C   UNL     1       6.713  15.581  22.295  0.00  0.00    +0.035 A 
ATOM      2  C   UNL     1       5.423  15.706  22.793  0.00  0.00    +0.045 A 
ATOM      3  C   UNL     1       4.582  14.602  22.985  0.00  0.00    +0.020 A 
ATOM      4  C   UNL     1       5.041  13.336  22.641  0.00  0.00    +0.020 A 
ATOM      5  C   UNL     1       6.330  13.201  22.123  0.00  0.00    +0.026 A 
ATOM      6  C   UNL     1       6.807  11.943  21.762  0.00  0.00    +0.068 A 
ATOM      7  C   UNL     1       8.097  11.833  21.238  0.00  0.00    +0.044 A 
ATOM      8  C   UNL     1       8.884  12.975  21.092  0.00  0.00    +0.084 A 
ATOM      9  N   UNL     1       8.400  14.177  21.440  0.00  0.00    -0.308 NA
ATOM     25 CL   UNL     1       4.848  17.330  23.213  0.00  0.00    -0.067 Cl
ATOM     26  C   UNL     1       7.162  14.314  21.955  0.00  0.00    +0.040 A 
ENDBRANCH  10   6
ENDBRANCH  11  10
TORSDOF 3
