REMARK  Name = 3ddq_ligand
REMARK  10 active torsions:
REMARK  status: ('A' for Active; 'I' for Inactive)
REMARK    1  A    between atoms: OAP_1  and  CAQ_2
REMARK    2  A    between atoms: CAQ_2  and  CAR_3
REMARK    3  A    between atoms: CAR_3  and  CAK_4
REMARK    4  A    between atoms: CAR_3  and  NAS_6
REMARK    5  A    between atoms: CAK_4  and  CAI_5
REMARK    6  A    between atoms: NAW_10  and  CAZ_11
REMARK    7  A    between atoms: CAZ_11  and  CAY_12
REMARK    8  A    between atoms: CAZ_11  and  CBA_13
REMARK    9  A    between atoms: NAJ_19  and  CAD_20
REMARK   10  A    between atoms: CAD_20  and  CAE_21
REMARK                            x       y       z     vdW  Elec       q    Type
REMARK                         _______ _______ _______ _____ _____    ______ ____
ROOT
ATOM      5  N   UNL     1     -34.571  17.549  32.592  0.00  0.00    -0.292 N 
ATOM      6  H   UNL     1     -34.780  18.474  32.995  0.00  0.00    +0.185 HD
ATOM      7  C   UNL     1     -34.171  17.467  31.309  0.00  0.00    +0.154 A 
ATOM      8  N   UNL     1     -34.077  18.601  30.577  0.00  0.00    -0.256 NA
ATOM      9  C   UNL     1     -33.678  18.584  29.288  0.00  0.00    +0.122 A 
ATOM     10  N   UNL     1     -33.577  19.720  28.566  0.00  0.00    -0.292 N 
ATOM     11  H   UNL     1     -33.240  19.669  27.594  0.00  0.00    +0.188 HD
ATOM     19  C   UNL     1     -33.351  17.369  28.700  0.00  0.00    +0.092 A 
ATOM     20  N   UNL     1     -32.930  16.975  27.477  0.00  0.00    -0.304 NA
ATOM     21  C   UNL     1     -32.801  15.615  27.502  0.00  0.00    +0.236 A 
ATOM     22  N   UNL     1     -33.108  15.207  28.746  0.00  0.00    -0.225 N 
ATOM     26  C   UNL     1     -33.463  16.232  29.473  0.00  0.00    +0.142 A 
ATOM     27  N   UNL     1     -33.863  16.265  30.764  0.00  0.00    -0.265 NA
ENDROOT
BRANCH  22  23
ATOM     23  C   UNL     1     -33.253  13.937  29.458  0.00  0.00    +0.129 C 
ATOM     24  C   UNL     1     -32.052  13.214  30.106  0.00  0.00    +0.043 C 
ATOM     25  C   UNL     1     -34.522  13.166  29.041  0.00  0.00    +0.043 C 
ENDBRANCH  22  23
BRANCH   5   4
ATOM      4  CA  UNL     1     -34.715  16.362  33.425  0.00  0.00    +0.122 C 
BRANCH   4  28
ATOM     28  C   UNL     1     -36.208  16.262  33.761  0.00  0.00    +0.027 C 
ATOM     29  C   UNL     1     -37.079  15.725  32.629  0.00  0.00    +0.006 C 
ENDBRANCH   4  28
BRANCH   4   3
ATOM      3  C   UNL     1     -33.891  16.636  34.678  0.00  0.00    +0.183 C 
BRANCH   3   1
ATOM      1  O   UNL     1     -34.327  17.853  35.294  0.00  0.00    -0.393 OA
ATOM      2  H   UNL     1     -33.809  18.016  36.073  0.00  0.00    +0.209 HD
ENDBRANCH   3   1
ENDBRANCH   4   3
ENDBRANCH   5   4
BRANCH  10  12
ATOM     12  C   UNL     1     -33.932  21.017  29.127  0.00  0.00    +0.201 C 
BRANCH  12  13
ATOM     13  C   UNL     1     -32.783  21.773  29.718  0.00  0.00    -0.021 A 
ATOM     14  C   UNL     1     -31.683  22.086  28.935  0.00  0.00    -0.003 A 
ATOM     15  C   UNL     1     -30.635  22.810  29.499  0.00  0.00    -0.009 A 
ATOM     16  C   UNL     1     -30.694  23.208  30.837  0.00  0.00    -0.013 A 
ATOM     17  C   UNL     1     -31.803  22.896  31.623  0.00  0.00    -0.009 A 
ATOM     18  C   UNL     1     -32.856  22.179  31.053  0.00  0.00    -0.003 A 
ENDBRANCH  12  13
ENDBRANCH  10  12
TORSDOF 7
