REMARK  Name = 3IBE
REMARK  5 active torsions:
REMARK  status: ('A' for Active; 'I' for Inactive)
REMARK    1  A    between atoms: C_7  and  C_14
REMARK    2  A    between atoms: N_8  and  C_20
REMARK    3  A    between atoms: N_17  and  C_33
REMARK    4  A    between atoms: N_19  and  C_37
REMARK    5  A    between atoms: C_29  and  C_30
REMARK                            x       y       z     vdW  Elec       q    Type
REMARK                         _______ _______ _______ _____ _____    ______ ____
ROOT
ATOM     12  N   UNL     1      45.190  17.248  32.850  0.00  0.00    -0.243 N 
ATOM     13  C   UNL     1      44.734  16.031  32.462  0.00  0.00    +0.164 A 
ATOM     14  C   UNL     1      45.775  15.397  31.820  0.00  0.00    +0.079 A 
ATOM     15  C   UNL     1      45.504  14.095  31.327  0.00  0.00    +0.136 A 
ATOM     16  N   UNL     1      46.363  13.250  30.644  0.00  0.00    -0.310 N 
ATOM     17  C   UNL     1      45.832  12.051  30.002  0.00  0.00    +0.134 C 
ATOM     18  C   UNL     1      46.493  11.937  28.630  0.00  0.00    +0.178 C 
ATOM     19  O   UNL     1      47.919  11.966  28.735  0.00  0.00    -0.377 OA
ATOM     20  C   UNL     1      48.355  13.230  29.251  0.00  0.00    +0.178 C 
ATOM     21  C   UNL     1      47.822  13.414  30.675  0.00  0.00    +0.134 C 
ATOM     22  N   UNL     1      44.259  13.604  31.538  0.00  0.00    -0.212 NA
ATOM     23  C   UNL     1      43.336  14.339  32.181  0.00  0.00    +0.164 A 
ATOM     42  C   UNL     1      46.821  16.355  31.887  0.00  0.00    +0.148 A 
ATOM     43  N   UNL     1      43.499  15.569  32.680  0.00  0.00    -0.208 NA
ATOM     44  N   UNL     1      46.475  17.490  32.512  0.00  0.00    -0.177 NA
ENDROOT
BRANCH  12  10
ATOM      6  C   UNL     1      44.141  21.707  35.432  0.00  0.00    +0.248 C 
ATOM      7  N   UNL     1      43.678  20.538  34.852  0.00  0.00    -0.297 N 
ATOM      8  C   UNL     1      43.309  20.395  33.451  0.00  0.00    +0.110 C 
ATOM      9  C   UNL     1      44.358  19.525  32.803  0.00  0.00    +0.046 C 
ATOM     10  C   UNL     1      44.353  18.195  33.554  0.00  0.00    +0.112 C 
ATOM     11  C   UNL     1      44.608  18.349  35.049  0.00  0.00    +0.046 C 
ATOM     45  C   UNL     1      43.565  19.308  35.616  0.00  0.00    +0.110 C 
ATOM     46  O   UNL     1      44.473  21.870  36.608  0.00  0.00    -0.270 OA
BRANCH   6   5
ATOM      1  C   UNL     1      43.479  24.853  33.532  0.00  0.00    +0.020 A 
ATOM      2  C   UNL     1      44.533  24.744  32.617  0.00  0.00    +0.111 A 
ATOM      3  N   UNL     1      45.433  23.730  32.589  0.00  0.00    -0.263 NA
ATOM      4  C   UNL     1      45.247  22.780  33.539  0.00  0.00    +0.123 A 
ATOM      5  C   UNL     1      44.226  22.812  34.486  0.00  0.00    +0.055 A 
ATOM     47  C   UNL     1      43.316  23.858  34.495  0.00  0.00    +0.016 A 
ENDBRANCH   6   5
ENDBRANCH  12  10
BRANCH  23  24
ATOM     24  C   UNL     1      42.033  13.696  32.376  0.00  0.00    +0.019 A 
ATOM     25  C   UNL     1      41.814  12.408  31.882  0.00  0.00    +0.013 A 
ATOM     26  C   UNL     1      40.600  11.764  32.047  0.00  0.00    +0.024 A 
ATOM     27  C   UNL     1      39.564  12.395  32.721  0.00  0.00    +0.035 A 
ATOM     28  C   UNL     1      39.758  13.681  33.216  0.00  0.00    +0.024 A 
ATOM     41  C   UNL     1      40.984  14.328  33.048  0.00  0.00    +0.013 A 
BRANCH  27  29
ATOM     29  N   UNL     1      38.294  11.836  32.905  0.00  0.00    -0.269 N 
ATOM     30  H   UNL     1      38.121  10.927  32.369  0.00  0.00    +0.156 HD
ATOM     31  C   UNL     1      37.233  12.270  33.666  0.00  0.00    +0.308 C 
ATOM     32  N   UNL     1      36.168  11.423  33.407  0.00  0.00    -0.269 N 
ATOM     33  H   UNL     1      36.408  10.586  32.785  0.00  0.00    +0.156 HD
ATOM     40  O   UNL     1      37.239  13.209  34.432  0.00  0.00    -0.252 OA
BRANCH  32  34
ATOM     34  C   UNL     1      34.822  11.475  33.822  0.00  0.00    +0.038 A 
ATOM     35  C   UNL     1      33.940  10.405  33.759  0.00  0.00    +0.043 A 
ATOM     36  C   UNL     1      32.643  10.599  34.192  0.00  0.00    +0.112 A 
ATOM     37  N   UNL     1      32.177  11.768  34.670  0.00  0.00    -0.263 NA
ATOM     38  C   UNL     1      33.047  12.792  34.715  0.00  0.00    +0.112 A 
ATOM     39  C   UNL     1      34.361  12.696  34.305  0.00  0.00    +0.043 A 
ENDBRANCH  32  34
ENDBRANCH  27  29
ENDBRANCH  23  24
TORSDOF 5
