REMARK  Name = 4f9w_ligand
REMARK  4 active torsions:
REMARK  status: ('A' for Active; 'I' for Inactive)
REMARK    1  A    between atoms: C3_1  and  N2_2
REMARK    2  A    between atoms: N2_2  and  C1_3
REMARK    3  A    between atoms: C7_7  and  C11_16
REMARK    4  A    between atoms: C6_8  and  C10_9
REMARK                            x       y       z     vdW  Elec       q    Type
REMARK                         _______ _______ _______ _____ _____    ______ ____
ROOT
ATOM      1  C   UNL     1       0.919   4.669  22.642  0.00  0.00    +0.171 C 
ATOM      2  N   UNL     1       0.404   3.373  23.071  0.00  0.00    -0.289 N 
ATOM      3  C   UNL     1      -0.616   2.759  22.312  0.00  0.00    +0.127 A 
ATOM      4  C   UNL     1      -1.140   1.487  22.586  0.00  0.00    +0.112 A 
ATOM      5  C   UNL     1      -2.149   0.938  21.764  0.00  0.00    +0.051 A 
ATOM     12  C   UNL     1      -2.606   1.687  20.648  0.00  0.00    +0.078 A 
ATOM     23  N   UNL     1      -2.074   2.889  20.409  0.00  0.00    -0.268 NA
ATOM     24  N   UNL     1      -1.082   3.407  21.227  0.00  0.00    -0.268 NA
ATOM     25  C   UNL     1       1.006   2.699  24.224  0.00  0.00    +0.171 C 
ENDROOT
BRANCH  12  13
ATOM     13  C   UNL     1      -3.625   1.196  19.717  0.00  0.00    +0.016 A 
ATOM     14  C   UNL     1      -4.876   0.759  20.154  0.00  0.00    +0.019 A 
ATOM     15  C   UNL     1      -5.803   0.297  19.237  0.00  0.00    +0.012 A 
ATOM     16  C   UNL     1      -5.485   0.256  17.895  0.00  0.00    -0.014 A 
ATOM     17  C   UNL     1      -6.393  -0.234  16.982  0.00  0.00    +0.011 A 
ATOM     18  C   UNL     1      -6.084  -0.324  15.630  0.00  0.00    +0.004 A 
ATOM     19  C   UNL     1      -4.829   0.118  15.210  0.00  0.00    +0.003 A 
ATOM     20  C   UNL     1      -3.906   0.601  16.130  0.00  0.00    +0.013 A 
ATOM     21  C   UNL     1      -4.231   0.663  17.470  0.00  0.00    -0.010 A 
ATOM     22  C   UNL     1      -3.310   1.138  18.376  0.00  0.00    +0.037 A 
ENDBRANCH  12  13
BRANCH   5   6
ATOM      6  C   UNL     1      -2.605  -0.460  22.080  0.00  0.00    +0.020 A 
ATOM      7  C   UNL     1      -2.852  -0.895  23.394  0.00  0.00    +0.052 A 
ATOM      8  C   UNL     1      -3.211  -2.214  23.612  0.00  0.00    +0.096 A 
ATOM      9  N   UNL     1      -3.278  -3.090  22.600  0.00  0.00    -0.295 NA
ATOM     10  C   UNL     1      -2.990  -2.725  21.336  0.00  0.00    +0.096 A 
ATOM     11  C   UNL     1      -2.639  -1.408  21.058  0.00  0.00    +0.052 A 
ENDBRANCH   5   6
TORSDOF 2
