REMARK  Name = 3qd0_ligand
REMARK  5 active torsions:
REMARK  status: ('A' for Active; 'I' for Inactive)
REMARK    1  A    between atoms: C11_11  and  C14_14
REMARK    2  A    between atoms: C13_13  and  N32_32
REMARK    3  A    between atoms: C16_16  and  N30_30
REMARK    4  A    between atoms: C18_18  and  C22_22
REMARK    5  A    between atoms: C23_23  and  C24_24
REMARK                            x       y       z     vdW  Elec       q    Type
REMARK                         _______ _______ _______ _____ _____    ______ ____
ROOT
ATOM      9  C   UNL     1     -47.151  22.481  11.336  0.00  0.00    +0.131 C 
ATOM     10  C   UNL     1     -47.321  21.052  11.832  0.00  0.00    +0.163 C 
ATOM     11  N   UNL     1     -45.962  20.517  11.976  0.00  0.00    -0.285 N 
ATOM     12  C   UNL     1     -45.093  21.129  12.998  0.00  0.00    +0.096 C 
ATOM     13  C   UNL     1     -45.576  20.980  14.418  0.00  0.00    +0.034 C 
ATOM     14  C   UNL     1     -44.982  22.612  12.635  0.00  0.00    +0.030 C 
ATOM     15  C   UNL     1     -45.750  19.117  11.686  0.00  0.00    +0.114 A 
ATOM     16  N   UNL     1     -46.681  18.402  11.039  0.00  0.00    -0.245 NA
ATOM     17  C   UNL     1     -46.421  17.112  10.765  0.00  0.00    +0.167 A 
ATOM     18  N   UNL     1     -47.417  16.390  10.088  0.00  0.00    -0.307 N 
ATOM     19  H   UNL     1     -48.299  16.852   9.824  0.00  0.00    +0.182 HD
ATOM     20  H   UNL     1     -47.266  15.398   9.855  0.00  0.00    +0.182 HD
ATOM     21  N   UNL     1     -45.277  16.485  11.105  0.00  0.00    -0.271 NA
ATOM     22  C   UNL     1     -44.332  17.186  11.752  0.00  0.00    +0.038 A 
ATOM     36  C   UNL     1     -44.549  18.519  12.056  0.00  0.00    +0.055 A 
ATOM     37  C   UNL     1     -46.351  23.249  12.395  0.00  0.00    +0.030 C 
ENDROOT
BRANCH  22  23
ATOM     23  C   UNL     1     -43.101  16.452  12.141  0.00  0.00    -0.001 A 
ATOM     24  C   UNL     1     -43.019  15.087  11.911  0.00  0.00    +0.012 A 
ATOM     25  C   UNL     1     -41.826  14.476  12.257  0.00  0.00    -0.048 A 
ATOM     26  N   UNL     1     -41.459  13.168  12.120  0.00  0.00    -0.440 NA
ATOM     27  N   UNL     1     -40.211  12.899  12.527  0.00  0.00    -0.255 N 
ATOM     28  H   UNL     1     -39.725  11.991  12.515  0.00  0.00    +0.254 HD
ATOM     29  C   UNL     1     -39.737  14.081  12.955  0.00  0.00    +0.241 A 
ATOM     33  C   UNL     1     -40.719  15.108  12.798  0.00  0.00    +0.079 A 
ATOM     34  C   UNL     1     -40.802  16.482  13.044  0.00  0.00    +0.030 A 
ATOM     35  C   UNL     1     -42.000  17.091  12.704  0.00  0.00    +0.018 A 
BRANCH  29  30
ATOM     30  N   UNL     1     -38.479  14.272  13.466  0.00  0.00    -0.261 N 
ATOM     31  H   UNL     1     -37.828  13.478  13.541  0.00  0.00    +0.210 HD
ATOM     32  H   UNL     1     -38.185  15.210  13.775  0.00  0.00    +0.210 HD
ENDBRANCH  29  30
ENDBRANCH  22  23
BRANCH   9   7
ATOM      5  N   UNL     1     -49.026  23.296   9.989  0.00  0.00    -0.234 N 
ATOM      6  H   UNL     1     -48.442  23.066   9.210  0.00  0.00    +0.226 HD
ATOM      7  C   UNL     1     -48.525  23.118  11.257  0.00  0.00    +0.209 C 
ATOM      8  O   UNL     1     -49.133  23.409  12.265  0.00  0.00    -0.385 OA
BRANCH   5   4
ATOM      1  C   UNL     1     -52.855  24.713   9.169  0.00  0.00    -0.029 A 
ATOM      2  C   UNL     1     -52.182  25.164  10.288  0.00  0.00    -0.018 A 
ATOM      3  C   UNL     1     -50.913  24.703  10.574  0.00  0.00    +0.009 A 
ATOM      4  C   UNL     1     -50.316  23.784   9.734  0.00  0.00    +0.066 A 
ATOM     38  C   UNL     1     -50.979  23.336   8.611  0.00  0.00    +0.009 A 
ATOM     39  C   UNL     1     -52.249  23.800   8.329  0.00  0.00    -0.018 A 
ENDBRANCH   5   4
ENDBRANCH   9   7
TORSDOF 4
