REMARK  Name = 5K0K
REMARK  4 active torsions:
REMARK  status: ('A' for Active; 'I' for Inactive)
REMARK    1  A    between atoms: C_10  and  N_11
REMARK    2  A    between atoms: N_14  and  C_15
REMARK    3  A    between atoms: C_15  and  C_16
REMARK    4  A    between atoms: C_19  and  C_21
REMARK                            x       y       z     vdW  Elec       q    Type
REMARK                         _______ _______ _______ _____ _____    ______ ____
ROOT
ATOM      4  C   UNL     1       3.061   2.910  15.466  0.00  0.00    +0.010 A 
ATOM      5  C   UNL     1       2.898   1.846  16.366  0.00  0.00    +0.045 A 
ATOM      6  C   UNL     1       3.420   2.321  17.588  0.00  0.00    +0.146 A 
ATOM      7  N   UNL     1       3.411   1.486  18.704  0.00  0.00    -0.197 NA
ATOM      8  C   UNL     1       2.911   0.253  18.634  0.00  0.00    +0.217 A 
ATOM      9  N   UNL     1       2.381  -0.250  17.434  0.00  0.00    -0.222 NA
ATOM     10  N   UNL     1       2.913  -0.622  19.884  0.00  0.00    -0.313 N 
ATOM     11  H   UNL     1       2.405  -1.394  19.905  0.00  0.00    +0.149 HD
ATOM     12  C   UNL     1       3.692  -0.267  21.006  0.00  0.00    +0.104 C 
ATOM     13  C   UNL     1       3.155   0.839  22.005  0.00  0.00    +0.019 C 
ATOM     14  C   UNL     1       4.083   1.313  23.073  0.00  0.00    +0.011 C 
ATOM     15  C   UNL     1       4.111   2.762  23.403  0.00  0.00    +0.096 C 
ATOM     16  C   UNL     1       4.510   3.727  22.269  0.00  0.00    +0.213 C 
ATOM     17  O   UNL     1       5.630   3.598  21.693  0.00  0.00    -0.276 OA
ATOM     18  N   UNL     1       3.598   4.770  21.866  0.00  0.00    -0.315 N 
ATOM     19  H   UNL     1       2.785   4.854  22.279  0.00  0.00    +0.149 HD
ATOM     20  C   UNL     1       3.968   5.694  20.747  0.00  0.00    +0.106 C 
ATOM     21  C   UNL     1       3.503   5.189  19.375  0.00  0.00    +0.040 C 
ATOM     22  C   UNL     1       4.478   4.459  18.427  0.00  0.00    +0.125 C 
ATOM     23  N   UNL     1       3.887   3.606  17.424  0.00  0.00    -0.331 N 
ATOM     24  C   UNL     1       2.373   0.524  16.321  0.00  0.00    +0.126 A 
ATOM     25  C   UNL     1       3.676   3.986  16.148  0.00  0.00    +0.097 A 
ENDROOT
BRANCH   4   3
ATOM      1  C   UNL     1       1.269   2.021  12.274  0.00  0.00    +0.005 A 
ATOM      2  C   UNL     1       1.632   2.042  13.655  0.00  0.00    +0.009 A 
ATOM      3  C   UNL     1       2.670   2.867  14.092  0.00  0.00    -0.016 A 
ATOM     26  C   UNL     1       3.357   3.690  13.161  0.00  0.00    +0.009 A 
ATOM     27  C   UNL     1       2.999   3.674  11.799  0.00  0.00    +0.005 A 
ATOM     28  C   UNL     1       1.962   2.838  11.349  0.00  0.00    -0.033 A 
BRANCH  28  29
ATOM     29  C   UNL     1       1.592   2.836   9.920  0.00  0.00    +0.119 C 
BRANCH  29  30
ATOM     30  N   UNL     1       2.369   1.874   9.121  0.00  0.00    -0.296 NA
ATOM     31  C   UNL     1       1.731   1.270   7.998  0.00  0.00    +0.100 C 
ATOM     32  C   UNL     1       2.428   0.031   7.514  0.00  0.00    +0.099 C 
ATOM     33  N   UNL     1       3.830   0.280   7.288  0.00  0.00    -0.303 NA
ATOM     34  C   UNL     1       4.468   0.791   8.468  0.00  0.00    +0.099 C 
ATOM     35  C   UNL     1       4.531  -0.578   6.320  0.00  0.00    +0.105 C 
ATOM     36  C   UNL     1       3.799   2.042   8.938  0.00  0.00    +0.100 C 
ENDBRANCH  29  30
ENDBRANCH  28  29
ENDBRANCH   4   3
TORSDOF 3
