REMARK  Name = 4R6V
REMARK  14 active torsions:
REMARK  status: ('A' for Active; 'I' for Inactive)
REMARK    1  A    between atoms: C_1  and  C_2
REMARK    2  A    between atoms: C_2  and  C_3
REMARK    3  A    between atoms: N_5  and  C_6
REMARK    4  A    between atoms: C_11  and  C_12
REMARK    5  A    between atoms: C_12  and  N_13
REMARK    6  A    between atoms: N_13  and  C_29
REMARK    7  A    between atoms: N_16  and  C_17
REMARK    8  A    between atoms: C_22  and  O_23
REMARK    9  A    between atoms: O_23  and  C_24
REMARK   10  A    between atoms: C_26  and  O_27
REMARK   11  A    between atoms: O_27  and  C_28
REMARK   12  A    between atoms: N_35  and  C_36
REMARK   13  A    between atoms: C_41  and  N_42
REMARK   14  A    between atoms: N_45  and  C_46
REMARK                            x       y       z     vdW  Elec       q    Type
REMARK                         _______ _______ _______ _____ _____    ______ ____
ROOT
ATOM     11  N   UNL     1     -60.981 144.852   1.066  0.00  0.00    -0.235 N 
ATOM     33  C   UNL     1     -60.999 143.425   1.228  0.00  0.00    +0.312 C 
ATOM     34  N   UNL     1     -62.147 142.783   1.761  0.00  0.00    -0.266 N 
ATOM     35  H   UNL     1     -62.986 143.386   2.039  0.00  0.00    +0.157 HD
ATOM     48  O   UNL     1     -60.061 142.832   0.902  0.00  0.00    -0.252 OA
ENDROOT
BRANCH  11  12
ATOM     12  C   UNL     1     -62.092 145.665   1.402  0.00  0.00    +0.134 A 
ATOM     13  N   UNL     1     -63.258 145.132   1.609  0.00  0.00    -0.220 NA
ATOM     14  C   UNL     1     -64.258 145.948   1.909  0.00  0.00    +0.225 A 
ATOM     15  N   UNL     1     -64.214 147.249   2.028  0.00  0.00    -0.221 NA
ATOM     16  C   UNL     1     -63.070 147.835   1.844  0.00  0.00    +0.128 A 
ATOM     17  N   UNL     1     -62.948 149.194   1.950  0.00  0.00    -0.299 N 
ATOM     18  H   UNL     1     -63.828 149.803   1.952  0.00  0.00    +0.154 HD
ATOM     32  C   UNL     1     -61.945 147.037   1.507  0.00  0.00    +0.088 A 
BRANCH  17  19
ATOM     19  C   UNL     1     -61.711 149.792   2.054  0.00  0.00    +0.033 A 
ATOM     20  C   UNL     1     -61.449 150.930   1.391  0.00  0.00    +0.025 A 
ATOM     21  C   UNL     1     -60.195 151.510   1.530  0.00  0.00    +0.028 A 
ATOM     22  C   UNL     1     -59.232 150.896   2.355  0.00  0.00    +0.046 A 
ATOM     30  C   UNL     1     -59.496 149.795   3.028  0.00  0.00    +0.028 A 
ATOM     31  C   UNL     1     -60.744 149.218   2.883  0.00  0.00    +0.025 A 
BRANCH  22  23
ATOM     23  N   UNL     1     -57.903 151.448   2.542  0.00  0.00    -0.320 N 
ATOM     24  C   UNL     1     -57.059 150.748   3.319  0.00  0.00    +0.109 A 
ATOM     25  C   UNL     1     -55.751 151.230   3.543  0.00  0.00    +0.103 A 
ATOM     26  N   UNL     1     -55.368 152.375   2.980  0.00  0.00    -0.353 N 
ATOM     27  C   UNL     1     -54.084 152.847   3.199  0.00  0.00    +0.148 C 
ATOM     28  C   UNL     1     -56.224 153.049   2.191  0.00  0.00    +0.103 A 
ATOM     29  C   UNL     1     -57.535 152.593   1.966  0.00  0.00    +0.109 A 
ENDBRANCH  22  23
ENDBRANCH  17  19
ENDBRANCH  11  12
BRANCH  34  36
ATOM     36  C   UNL     1     -62.235 141.340   1.947  0.00  0.00    +0.079 A 
ATOM     37  C   UNL     1     -62.490 140.894   3.209  0.00  0.00    +0.105 A 
ATOM     38  C   UNL     1     -62.623 139.562   3.487  0.00  0.00    +0.144 A 
ATOM     39  C   UNL     1     -62.475 138.660   2.432  0.00  0.00    +0.094 A 
ATOM     40  C   UNL     1     -62.230 139.083   1.151  0.00  0.00    +0.144 A 
ATOM     45 CL   UNL     1     -62.636 142.134   4.317  0.00  0.00    -0.078 Cl
ATOM     46  C   UNL     1     -62.117 140.424   0.906  0.00  0.00    +0.105 A 
ATOM     47 CL   UNL     1     -61.820 140.875  -0.729  0.00  0.00    -0.078 Cl
BRANCH  40  41
ATOM     41  O   UNL     1     -62.103 138.191   0.058  0.00  0.00    -0.493 OA
ATOM     42  C   UNL     1     -61.902 136.822   0.336  0.00  0.00    +0.277 C 
ENDBRANCH  40  41
BRANCH  38  43
ATOM     43  O   UNL     1     -62.876 139.144   4.801  0.00  0.00    -0.493 OA
ATOM     44  C   UNL     1     -63.566 137.994   4.972  0.00  0.00    +0.277 C 
ENDBRANCH  38  43
ENDBRANCH  34  36
BRANCH  11  10
ATOM     10  C   UNL     1     -59.813 145.488   0.426  0.00  0.00    +0.152 C 
BRANCH  10   9
ATOM      6  C   UNL     1     -56.205 146.489   2.301  0.00  0.00    +0.033 A 
ATOM      7  C   UNL     1     -56.347 146.463   0.961  0.00  0.00    +0.023 A 
ATOM      8  C   UNL     1     -57.539 146.130   0.401  0.00  0.00    +0.007 A 
ATOM      9  C   UNL     1     -58.583 145.813   1.208  0.00  0.00    -0.029 A 
ATOM     49  C   UNL     1     -58.493 145.823   2.565  0.00  0.00    +0.007 A 
ATOM     50  C   UNL     1     -57.289 146.151   3.118  0.00  0.00    +0.023 A 
BRANCH   6   4
ATOM      3  C   UNL     1     -53.671 146.961   2.079  0.00  0.00    +0.217 C 
ATOM      4  N   UNL     1     -54.932 146.829   2.850  0.00  0.00    -0.285 N 
ATOM      5  H   UNL     1     -54.883 147.003   3.905  0.00  0.00    +0.155 HD
ATOM     51  O   UNL     1     -53.606 146.788   0.865  0.00  0.00    -0.276 OA
BRANCH   3   2
ATOM      1  C   UNL     1     -51.477 146.146   2.718  0.00  0.00    +0.013 C 
ATOM      2  C   UNL     1     -52.374 147.301   2.815  0.00  0.00    +0.093 C 
ENDBRANCH   3   2
ENDBRANCH   6   4
ENDBRANCH  10   9
ENDBRANCH  11  10
TORSDOF 10
