REMARK  Name = EUN
REMARK  1 active torsions:
REMARK  status: ('A' for Active; 'I' for Inactive)
REMARK    1  A    between atoms: C10_3  and  C09_19
REMARK                            x       y       z     vdW  Elec       q    Type
REMARK                         _______ _______ _______ _____ _____    ______ ____
ROOT
ATOM      1  C   UNL     1     -42.762   7.116 -12.447  0.00  0.00    +0.031 C 
ATOM      2  C   UNL     1     -41.944   5.844 -12.465  0.00  0.00    -0.016 A 
ATOM      3  C   UNL     1     -40.659   5.828 -11.878  0.00  0.00    -0.004 A 
ATOM     14  C   UNL     1     -39.902   4.673 -11.911  0.00  0.00    +0.001 A 
ATOM     15  C   UNL     1     -40.417   3.537 -12.493  0.00  0.00    +0.019 A 
ATOM     16  C   UNL     1     -41.705   3.535 -13.085  0.00  0.00    +0.087 A 
ATOM     17  N   UNL     1     -42.150   2.290 -13.687  0.00  0.00    -0.231 NA
ATOM     18  C   UNL     1     -43.429   2.225 -14.303  0.00  0.00    +0.143 A 
ATOM     19  N   UNL     1     -44.268   3.380 -14.323  0.00  0.00    -0.193 NA
ATOM     20  C   UNL     1     -43.841   4.589 -13.737  0.00  0.00    +0.281 A 
ATOM     21  O   UNL     1     -44.577   5.560 -13.759  0.00  0.00    -0.265 OA
ATOM     22  C   UNL     1     -43.854   0.919 -14.918  0.00  0.00    +0.074 C 
ATOM     23  C   UNL     1     -42.474   4.659 -13.083  0.00  0.00    +0.072 A 
ENDROOT
BRANCH   3   4
ATOM      4  C   UNL     1     -40.100   6.961 -11.287  0.00  0.00    +0.003 A 
ATOM      5  C   UNL     1     -40.635   7.594 -10.117  0.00  0.00    +0.018 A 
ATOM      6  C   UNL     1     -41.782   7.084  -9.459  0.00  0.00    +0.002 A 
ATOM      7  C   UNL     1     -42.289   7.721  -8.325  0.00  0.00    +0.000 A 
ATOM      8  C   UNL     1     -41.673   8.868  -7.835  0.00  0.00    +0.002 A 
ATOM      9  C   UNL     1     -40.552   9.369  -8.483  0.00  0.00    +0.019 A 
ATOM     10  C   UNL     1     -40.037   8.718  -9.637  0.00  0.00    +0.081 A 
ATOM     11  N   UNL     1     -38.911   9.240 -10.252  0.00  0.00    -0.244 NA
ATOM     12  C   UNL     1     -38.382   8.664 -11.348  0.00  0.00    +0.099 A 
ATOM     13  C   UNL     1     -38.979   7.515 -11.883  0.00  0.00    +0.021 A 
ENDBRANCH   3   4
TORSDOF 1
