REMARK  Name = 3agl_ligand
REMARK  38 active torsions:
REMARK  status: ('A' for Active; 'I' for Inactive)
REMARK    1  A    between atoms: C6_6  and  N6_7
REMARK    2  A    between atoms: N9_10  and  CCJ_19
REMARK    3  A    between atoms: OAN_12  and  CCG_16
REMARK    4  A    between atoms: OAO_13  and  CCH_17
REMARK    5  A    between atoms: CBY_15  and  CCI_18
REMARK    6  A    between atoms: CBV_20  and  CBD_22
REMARK    7  A    between atoms: CBD_22  and  CAV_23
REMARK    8  A    between atoms: CAV_23  and  CAR_24
REMARK    9  A    between atoms: CAR_24  and  CAU_25
REMARK   10  A    between atoms: CAU_25  and  CBA_26
REMARK   11  A    between atoms: CBA_26  and  NBN_27
REMARK   12  A    between atoms: N_28  and  CA_29
REMARK   13  A    between atoms: CA_29  and  CB_30
REMARK   14  A    between atoms: CA_29  and  C_31
REMARK   15  A    between atoms: CBW_33  and  CBE_35
REMARK   16  A    between atoms: CBE_35  and  CAW_36
REMARK   17  A    between atoms: CAW_36  and  CAS_37
REMARK   18  A    between atoms: CAS_37  and  CAT_38
REMARK   19  A    between atoms: CAT_38  and  CAZ_39
REMARK   20  A    between atoms: CAZ_39  and  NBM_40
REMARK   21  A    between atoms: NBP_41  and  CCF_42
REMARK   22  A    between atoms: CCF_42  and  CBG_43
REMARK   23  A    between atoms: CCF_42  and  CBZ_50
REMARK   24  A    between atoms: CBG_43  and  CAY_44
REMARK   25  A    between atoms: CAY_44  and  CBC_45
REMARK   26  A    between atoms: CBC_45  and  NBL_46
REMARK   27  A    between atoms: NBL_46  and  CBT_47
REMARK   28  A    between atoms: CBT_47  and  NAC_48
REMARK   29  A    between atoms: CBT_47  and  NAE_49
REMARK   30  A    between atoms: NBQ_52  and  CCE_53
REMARK   31  A    between atoms: CCE_53  and  CBF_54
REMARK   32  A    between atoms: CCE_53  and  CBU_61
REMARK   33  A    between atoms: CBF_54  and  CAX_55
REMARK   34  A    between atoms: CAX_55  and  CBB_56
REMARK   35  A    between atoms: CBB_56  and  NBK_57
REMARK   36  A    between atoms: NBK_57  and  CBS_58
REMARK   37  A    between atoms: CBS_58  and  NAB_59
REMARK   38  A    between atoms: CBS_58  and  NAD_60
REMARK                            x       y       z     vdW  Elec       q    Type
REMARK                         _______ _______ _______ _____ _____    ______ ____
ROOT
ATOM     30  C   UNL     1     -16.255   8.279  14.891  0.00  0.00    +0.024 C 
ENDROOT
BRANCH  30  29
ATOM     29  C   UNL     1     -16.518   9.381  13.875  0.00  0.00    +0.135 C 
BRANCH  29  27
ATOM     26  C   UNL     1     -14.743  11.053  14.080  0.00  0.00    +0.201 C 
ATOM     27  N   UNL     1     -15.231   9.970  13.482  0.00  0.00    -0.285 N 
ATOM     28  H   UNL     1     -14.707   9.545  12.744  0.00  0.00    +0.185 HD
ATOM     73  O   UNL     1     -15.305  11.635  15.007  0.00  0.00    -0.395 OA
BRANCH  26  25
ATOM     25  C   UNL     1     -13.363  11.525  13.587  0.00  0.00    +0.208 C 
ATOM     74  C   UNL     1     -12.262  10.530  14.017  0.00  0.00    +0.059 C 
BRANCH  25  23
ATOM     22  C   UNL     1     -14.052  12.715  11.564  0.00  0.00    +0.178 C 
ATOM     23  N   UNL     1     -13.368  11.716  12.143  0.00  0.00    -0.266 N 
ATOM     24  H   UNL     1     -12.848  11.085  11.567  0.00  0.00    +0.188 HD
ATOM     75  O   UNL     1     -14.738  13.531  12.173  0.00  0.00    -0.397 OA
BRANCH  22  21
ATOM     21  C   UNL     1     -13.936  12.793  10.038  0.00  0.00    +0.138 C 
BRANCH  21  20
ATOM     20  C   UNL     1     -15.195  12.273   9.336  0.00  0.00    +0.022 C 
BRANCH  20  19
ATOM     19  C   UNL     1     -15.367  10.783   9.638  0.00  0.00    +0.004 C 
BRANCH  19  18
ATOM     18  C   UNL     1     -16.702  10.208   9.174  0.00  0.00    +0.024 C 
BRANCH  18  17
ATOM     17  C   UNL     1     -16.692   8.718   9.538  0.00  0.00    +0.135 C 
BRANCH  17  15
ATOM     14  C   UNL     1     -17.633   7.501   7.613  0.00  0.00    +0.208 C 
ATOM     15  N   UNL     1     -17.779   8.017   8.836  0.00  0.00    -0.285 N 
ATOM     16  H   UNL     1     -18.663   7.923   9.294  0.00  0.00    +0.185 HD
ATOM     76  O   UNL     1     -16.582   7.541   6.964  0.00  0.00    -0.394 OA
BRANCH  14  13
ATOM     10  C   UNL     1     -19.426   6.339   4.753  0.00  0.00    +0.303 C 
ATOM     11  C   UNL     1     -19.605   5.090   5.595  0.00  0.00    +0.209 C 
ATOM     12  C   UNL     1     -18.652   5.360   6.777  0.00  0.00    +0.197 C 
ATOM     13  C   UNL     1     -18.872   6.842   7.006  0.00  0.00    +0.266 C 
ATOM     81  O   UNL     1     -19.102   7.415   5.686  0.00  0.00    -0.318 OA
BRANCH  10   9
ATOM      1  N   UNL     1     -18.422   5.221  -0.190  0.00  0.00    -0.270 NA
ATOM      2  C   UNL     1     -17.279   5.512   0.451  0.00  0.00    +0.130 A 
ATOM      6  C   UNL     1     -17.351   5.849   1.804  0.00  0.00    +0.105 A 
ATOM      7  N   UNL     1     -16.440   6.177   2.713  0.00  0.00    -0.296 NA
ATOM      8  C   UNL     1     -17.065   6.389   3.866  0.00  0.00    +0.247 A 
ATOM      9  N   UNL     1     -18.375   6.194   3.704  0.00  0.00    -0.192 N 
ATOM     82  C   UNL     1     -18.589   5.853   2.436  0.00  0.00    +0.161 A 
ATOM     83  N   UNL     1     -19.694   5.528   1.734  0.00  0.00    -0.271 NA
ATOM     84  C   UNL     1     -19.591   5.226   0.445  0.00  0.00    +0.153 A 
BRANCH   2   3
ATOM      3  N   UNL     1     -16.102   5.498  -0.193  0.00  0.00    -0.315 N 
ATOM      4  H   UNL     1     -16.066   5.261  -1.195  0.00  0.00    +0.182 HD
ATOM      5  H   UNL     1     -15.235   5.724   0.314  0.00  0.00    +0.182 HD
ENDBRANCH   2   3
ENDBRANCH  10   9
BRANCH  12  77
ATOM     77  O   UNL     1     -19.049   4.660   7.931  0.00  0.00    -0.384 OA
ATOM     78  H   UNL     1     -19.924   4.934   8.181  0.00  0.00    +0.210 HD
ENDBRANCH  12  77
BRANCH  11  79
ATOM     79  O   UNL     1     -20.976   5.068   5.980  0.00  0.00    -0.383 OA
ATOM     80  H   UNL     1     -21.112   4.383   6.624  0.00  0.00    +0.210 HD
ENDBRANCH  11  79
ENDBRANCH  14  13
ENDBRANCH  17  15
ENDBRANCH  18  17
ENDBRANCH  19  18
ENDBRANCH  20  19
ENDBRANCH  21  20
ENDBRANCH  22  21
ENDBRANCH  25  23
ENDBRANCH  26  25
ENDBRANCH  29  27
ENDBRANCH  30  29
BRANCH  30  31
ATOM     31  C   UNL     1     -16.865   8.573  16.265  0.00  0.00    +0.004 C 
BRANCH  31  32
ATOM     32  C   UNL     1     -18.351   8.212  16.272  0.00  0.00    +0.022 C 
BRANCH  32  33
ATOM     33  C   UNL     1     -18.813   7.642  17.599  0.00  0.00    +0.138 C 
BRANCH  33  34
ATOM     34  C   UNL     1     -19.776   6.465  17.360  0.00  0.00    +0.178 C 
ATOM     35  N   UNL     1     -20.928   6.809  16.738  0.00  0.00    -0.266 N 
ATOM     36  H   UNL     1     -21.061   7.767  16.483  0.00  0.00    +0.188 HD
ATOM     72  O   UNL     1     -19.462   5.298  17.722  0.00  0.00    -0.397 OA
BRANCH  35  37
ATOM     37  C   UNL     1     -22.007   5.837  16.413  0.00  0.00    +0.211 C 
BRANCH  37  38
ATOM     38  C   UNL     1     -22.341   4.930  17.600  0.00  0.00    +0.204 C 
ATOM     39  N   UNL     1     -22.623   3.653  17.307  0.00  0.00    -0.264 N 
ATOM     40  H   UNL     1     -22.623   3.376  16.346  0.00  0.00    +0.188 HD
ATOM     59  O   UNL     1     -22.332   5.390  18.735  0.00  0.00    -0.394 OA
BRANCH  39  41
ATOM     41  C   UNL     1     -22.933   2.637  18.328  0.00  0.00    +0.211 C 
BRANCH  41  42
ATOM     42  C   UNL     1     -24.387   2.140  18.223  0.00  0.00    +0.199 C 
ATOM     43  N   UNL     1     -24.818   1.457  19.266  0.00  0.00    -0.299 N 
ATOM     44  H   UNL     1     -24.211   1.298  20.045  0.00  0.00    +0.181 HD
ATOM     45  H   UNL     1     -25.751   1.098  19.278  0.00  0.00    +0.181 HD
ATOM     46  O   UNL     1     -25.069   2.352  17.222  0.00  0.00    -0.395 OA
ENDBRANCH  41  42
BRANCH  41  47
ATOM     47  C   UNL     1     -22.017   1.418  18.168  0.00  0.00    +0.053 C 
BRANCH  47  48
ATOM     48  C   UNL     1     -20.522   1.767  18.062  0.00  0.00    +0.045 C 
BRANCH  48  49
ATOM     49  C   UNL     1     -19.728   0.467  18.310  0.00  0.00    +0.201 C 
BRANCH  49  50
ATOM     50  N   UNL     1     -19.607  -0.272  17.028  0.00  0.00    -0.272 NA
ATOM     51  H   UNL     1     -19.315   0.226  16.175  0.00  0.00    +0.264 HD
BRANCH  50  52
ATOM     52  C   UNL     1     -19.875  -1.579  16.975  0.00  0.00    +0.288 C 
BRANCH  52  53
ATOM     53  N   UNL     1     -19.732  -2.232  15.829  0.00  0.00    -0.285 NA
ATOM     54  H   UNL     1     -19.934  -3.241  15.782  0.00  0.00    +0.262 HD
ATOM     55  H   UNL     1     -19.419  -1.730  14.986  0.00  0.00    +0.262 HD
ENDBRANCH  52  53
BRANCH  52  56
ATOM     56  N   UNL     1     -20.281  -2.242  18.056  0.00  0.00    -0.285 NA
ATOM     57  H   UNL     1     -20.393  -1.747  18.952  0.00  0.00    +0.262 HD
ATOM     58  H   UNL     1     -20.483  -3.250  17.996  0.00  0.00    +0.262 HD
ENDBRANCH  52  56
ENDBRANCH  50  52
ENDBRANCH  49  50
ENDBRANCH  48  49
ENDBRANCH  47  48
ENDBRANCH  41  47
ENDBRANCH  39  41
ENDBRANCH  37  38
BRANCH  37  60
ATOM     60  C   UNL     1     -23.258   6.622  16.006  0.00  0.00    +0.053 C 
BRANCH  60  61
ATOM     61  C   UNL     1     -23.128   7.146  14.572  0.00  0.00    +0.045 C 
BRANCH  61  62
ATOM     62  C   UNL     1     -23.469   6.014  13.595  0.00  0.00    +0.201 C 
BRANCH  62  63
ATOM     63  N   UNL     1     -22.502   6.012  12.497  0.00  0.00    -0.272 NA
ATOM     64  H   UNL     1     -21.880   6.826  12.389  0.00  0.00    +0.264 HD
BRANCH  63  65
ATOM     65  C   UNL     1     -22.388   5.003  11.628  0.00  0.00    +0.288 C 
BRANCH  65  66
ATOM     66  N   UNL     1     -23.165   3.926  11.729  0.00  0.00    -0.285 NA
ATOM     67  H   UNL     1     -23.085   3.167  11.038  0.00  0.00    +0.262 HD
ATOM     68  H   UNL     1     -23.846   3.852  12.499  0.00  0.00    +0.262 HD
ENDBRANCH  65  66
BRANCH  65  69
ATOM     69  N   UNL     1     -21.491   5.131  10.638  0.00  0.00    -0.285 NA
ATOM     70  H   UNL     1     -20.920   5.985  10.568  0.00  0.00    +0.262 HD
ATOM     71  H   UNL     1     -21.374   4.375   9.948  0.00  0.00    +0.262 HD
ENDBRANCH  65  69
ENDBRANCH  63  65
ENDBRANCH  62  63
ENDBRANCH  61  62
ENDBRANCH  60  61
ENDBRANCH  37  60
ENDBRANCH  35  37
ENDBRANCH  33  34
ENDBRANCH  32  33
ENDBRANCH  31  32
ENDBRANCH  30  31
TORSDOF 37
