REMARK  Name = HNQ
REMARK  1 active torsions:
REMARK  status: ('A' for Active; 'I' for Inactive)
REMARK    1  A    between atoms: C1_1  and  N1_2
REMARK                            x       y       z     vdW  Elec       q    Type
REMARK                         _______ _______ _______ _____ _____    ______ ____
ROOT
ATOM      1  C   UNL     1      -9.728  -5.863  -0.842  0.00  0.00    +0.144 A 
ATOM      2  C   UNL     1     -10.645  -6.417   0.060  0.00  0.00    +0.043 A 
ATOM      3  C   UNL     1     -10.376  -7.481   0.906  0.00  0.00    +0.005 A 
ATOM      4  C   UNL     1     -11.346  -7.957   1.771  0.00  0.00    +0.021 A 
ATOM      5  C   UNL     1     -12.589  -7.359   1.789  0.00  0.00    +0.099 A 
ATOM      6  N   UNL     1     -12.836  -6.340   0.970  0.00  0.00    -0.241 NA
ATOM      7  C   UNL     1     -11.923  -5.864   0.139  0.00  0.00    +0.122 A 
ATOM      8  C   UNL     1     -12.282  -4.787  -0.659  0.00  0.00    +0.213 A 
ATOM      9  O   UNL     1     -13.565  -4.236  -0.584  0.00  0.00    -0.285 OA
ATOM     10  C   UNL     1     -11.369  -4.255  -1.547  0.00  0.00    +0.045 A 
ATOM     14  C   UNL     1     -10.108  -4.804  -1.631  0.00  0.00    +0.028 A 
ENDROOT
BRANCH   1  11
ATOM     11  N   UNL     1      -8.361  -6.354  -1.044  0.00  0.00    +0.058 N 
ATOM     12  O   UNL     1      -7.725  -6.874  -0.186  0.00  0.00    -0.126 OA
ATOM     13  O   UNL     1      -7.895  -6.222  -2.130  0.00  0.00    -0.126 OA
ENDBRANCH   1  11
TORSDOF 1
