REMARK  Name = 4foc_ligand
REMARK  7 active torsions:
REMARK  status: ('A' for Active; 'I' for Inactive)
REMARK    1  A    between atoms: C28_1  and  O2_2
REMARK    2  A    between atoms: O2_2  and  C27_3
REMARK    3  A    between atoms: C27_3  and  C15_5
REMARK    4  A    between atoms: C12_10  and  N2_11
REMARK    5  A    between atoms: C6_14  and  C18_15
REMARK    6  A    between atoms: C18_15  and  N3_16
REMARK    7  A    between atoms: C20_28  and  C21_30
REMARK                            x       y       z     vdW  Elec       q    Type
REMARK                         _______ _______ _______ _____ _____    ______ ____
ROOT
ATOM      8  N   UNL     1      22.101   9.630   6.920  0.00  0.00    -0.214 N 
ATOM      9  C   UNL     1      22.682  10.494   7.757  0.00  0.00    +0.241 A 
ATOM     10  N   UNL     1      22.106  11.580   8.292  0.00  0.00    -0.185 N 
ATOM     11  H   UNL     1      21.165  11.803   8.039  0.00  0.00    +0.239 HD
ATOM     12  C   UNL     1      22.752  12.376   9.155  0.00  0.00    +0.243 C 
ATOM     19  O   UNL     1      23.922  12.256   9.522  0.00  0.00    -0.369 OA
ATOM     20  N   UNL     1      23.920  10.090   8.033  0.00  0.00    -0.318 NA
ATOM     21  C   UNL     1      24.124   8.948   7.353  0.00  0.00    +0.003 A 
ATOM     22  C   UNL     1      25.224   8.098   7.273  0.00  0.00    -0.025 A 
ATOM     23  C   UNL     1      25.162   6.960   6.459  0.00  0.00    -0.028 A 
ATOM     24  C   UNL     1      24.005   6.656   5.752  0.00  0.00    -0.016 A 
ATOM     33  C   UNL     1      22.895   7.498   5.848  0.00  0.00    +0.007 A 
ATOM     34  C   UNL     1      22.968   8.650   6.648  0.00  0.00    +0.070 A 
ENDROOT
BRANCH   8   7
ATOM      4  C   UNL     1      17.831  10.352   6.369  0.00  0.00    +0.116 C 
ATOM      5  C   UNL     1      18.831  10.869   5.321  0.00  0.00    +0.029 C 
ATOM      6  C   UNL     1      20.249  11.001   5.870  0.00  0.00    +0.037 C 
ATOM      7  C   UNL     1      20.731   9.647   6.383  0.00  0.00    +0.131 C 
ATOM     35  C   UNL     1      19.798   9.208   7.517  0.00  0.00    +0.037 C 
ATOM     36  C   UNL     1      18.363   9.065   7.015  0.00  0.00    +0.029 C 
BRANCH   4   3
ATOM      3  C   UNL     1      17.606  11.397   7.470  0.00  0.00    +0.237 C 
ATOM     37  O   UNL     1      17.760  12.593   7.224  0.00  0.00    -0.370 OA
BRANCH   3   2
ATOM      1  C   UNL     1      16.819  12.018   9.634  0.00  0.00    +0.239 C 
ATOM      2  O   UNL     1      17.251  10.969   8.726  0.00  0.00    -0.280 OA
ENDBRANCH   3   2
ENDBRANCH   4   3
ENDBRANCH   8   7
BRANCH  12  13
ATOM     13  C   UNL     1      21.879  13.467   9.791  0.00  0.00    +0.058 A 
ATOM     14  C   UNL     1      22.429  14.266  10.792  0.00  0.00    +0.026 A 
ATOM     15  C   UNL     1      21.646  15.238  11.384  0.00  0.00    +0.007 A 
ATOM     16  C   UNL     1      20.318  15.434  11.000  0.00  0.00    +0.008 A 
ATOM     17  C   UNL     1      19.751  14.638  10.005  0.00  0.00    +0.007 A 
ATOM     18  C   UNL     1      20.545  13.639   9.417  0.00  0.00    +0.026 A 
ENDBRANCH  12  13
BRANCH  24  25
ATOM     25  C   UNL     1      23.940   5.382   4.878  0.00  0.00    +0.188 C 
BRANCH  25  26
ATOM     26  N   UNL     1      24.640   5.545   3.593  0.00  0.00    +0.246 N 
ATOM     27  H   UNL     1      25.609   5.764   3.765  0.00  0.00    +0.205 HD
ATOM     28  C   UNL     1      24.525   4.277   2.844  0.00  0.00    +0.132 C 
ATOM     29  C   UNL     1      25.442   4.324   1.614  0.00  0.00    +0.051 C 
ATOM     30  C   UNL     1      25.146   5.544   0.733  0.00  0.00    +0.010 C 
ATOM     31  C   UNL     1      24.946   6.833   1.548  0.00  0.00    +0.051 C 
ATOM     32  C   UNL     1      24.038   6.596   2.766  0.00  0.00    +0.132 C 
ENDBRANCH  25  26
ENDBRANCH  24  25
TORSDOF 6
