REMARK  Name = B5T
REMARK  3 active torsions:
REMARK  status: ('A' for Active; 'I' for Inactive)
REMARK    1  A    between atoms: CAE_3  and  SAB_4
REMARK    2  A    between atoms: CAH_10  and  CAK_11
REMARK    3  A    between atoms: CAQ_19  and  CAT_20
REMARK                            x       y       z     vdW  Elec       q    Type
REMARK                         _______ _______ _______ _____ _____    ______ ____
ROOT
ATOM     10  C   UNL     1       8.529  16.172 -47.853  0.00  0.00    +0.031 C 
ATOM     11  C   UNL     1       7.442  16.046 -46.972  0.00  0.00    +0.008 C 
ATOM     12  C   UNL     1       6.856  14.855 -46.743  0.00  0.00    +0.091 C 
ATOM     13  C   UNL     1       5.831  14.474 -45.971  0.00  0.00    +0.056 C 
ATOM     20  C   UNL     1       5.639  13.166 -46.100  0.00  0.00    +0.236 C 
ATOM     21  N   UNL     1       6.545  12.715 -46.957  0.00  0.00    -0.031 NA
ATOM     22  C   UNL     1       7.292  13.742 -47.356  0.00  0.00    +0.371 C 
ATOM     23  N   UNL     1       8.327  13.787 -48.213  0.00  0.00    -0.055 NA
ATOM     24  C   UNL     1       8.974  15.003 -48.483  0.00  0.00    +0.290 C 
ENDROOT
BRANCH  10   2
ATOM      1  C   UNL     1       9.589  17.736 -49.397  0.00  0.00    +0.001 A 
ATOM      2  C   UNL     1       9.144  17.415 -48.105  0.00  0.00    +0.000 A 
ATOM      3  C   UNL     1       9.323  18.372 -47.092  0.00  0.00    +0.001 A 
ATOM      4  C   UNL     1       9.934  19.602 -47.367  0.00  0.00    +0.020 A 
ATOM      5  C   UNL     1      10.374  19.900 -48.658  0.00  0.00    +0.125 A 
ATOM     25  C   UNL     1      10.199  18.960 -49.668  0.00  0.00    +0.020 A 
BRANCH   5   6
ATOM      6  S   UNL     1      11.147  21.439 -49.043  0.00  0.00    +0.094 S 
ATOM      7  O   UNL     1      11.745  22.049 -47.776  0.00  0.00    -0.150 OA
ATOM      8  O   UNL     1      10.112  22.402 -49.629  0.00  0.00    -0.150 OA
ATOM      9  N   UNL     1      12.321  21.194 -50.131  0.00  0.00    +0.039 NA
ENDBRANCH   5   6
ENDBRANCH  10   2
BRANCH  13  14
ATOM     14  C   UNL     1       5.088  15.250 -45.171  0.00  0.00    +0.023 A 
ATOM     15  C   UNL     1       4.954  14.928 -43.816  0.00  0.00    +0.099 A 
ATOM     16  N   UNL     1       4.169  15.735 -42.969  0.00  0.00    -0.242 NA
ATOM     17  C   UNL     1       3.518  16.869 -43.484  0.00  0.00    +0.099 A 
ATOM     18  C   UNL     1       3.654  17.184 -44.836  0.00  0.00    +0.021 A 
ATOM     19  C   UNL     1       4.430  16.377 -45.672  0.00  0.00    +0.003 A 
ENDBRANCH  13  14
TORSDOF 3
