REMARK  Name = 4nw5_ligand
REMARK  10 active torsions:
REMARK  status: ('A' for Active; 'I' for Inactive)
REMARK    1  A    between atoms: C12_6  and  O2_7
REMARK    2  A    between atoms: O2_7  and  C13_8
REMARK    3  A    between atoms: C7_9  and  C6_10
REMARK    4  A    between atoms: N2_19  and  C15_20
REMARK    5  A    between atoms: C19_22  and  O3_23
REMARK    6  A    between atoms: O3_23  and  C21_24
REMARK    7  A    between atoms: C18_25  and  O4_26
REMARK    8  A    between atoms: O4_26  and  C22_27
REMARK    9  A    between atoms: C17_28  and  O5_30
REMARK   10  A    between atoms: O5_30  and  C23_31
REMARK                            x       y       z     vdW  Elec       q    Type
REMARK                         _______ _______ _______ _____ _____    ______ ____
ROOT
ATOM      4  C   UNL     1     -14.837   0.454 -23.106  0.00  0.00    +0.009 A 
ATOM      5  C   UNL     1     -15.980  -0.323 -23.290  0.00  0.00    +0.145 A 
ATOM      6  O   UNL     1     -17.311   0.053 -23.337  0.00  0.00    -0.195 OA
ATOM      7  C   UNL     1     -17.972  -1.098 -23.533  0.00  0.00    +0.294 A 
ATOM      8  N   UNL     1     -19.333  -1.041 -23.550  0.00  0.00    -0.227 N 
ATOM      9  H   UNL     1     -19.805  -1.955 -23.596  0.00  0.00    +0.220 HD
ATOM     22  N   UNL     1     -17.216  -2.207 -23.641  0.00  0.00    -0.293 NA
ATOM     23  C   UNL     1     -15.928  -1.695 -23.486  0.00  0.00    +0.027 A 
ATOM     24  C   UNL     1     -14.689  -2.340 -23.521  0.00  0.00    -0.017 A 
ATOM     25  C   UNL     1     -13.538  -1.579 -23.365  0.00  0.00    -0.029 A 
ATOM     26  C   UNL     1     -13.604  -0.205 -23.145  0.00  0.00    -0.021 A 
ENDROOT
BRANCH   4   3
ATOM      1  F   UNL     1     -16.307   2.152 -24.818  0.00  0.00    -0.186 F 
ATOM      2  C   UNL     1     -15.617   2.751 -23.824  0.00  0.00    +0.132 A 
ATOM      3  C   UNL     1     -14.929   1.945 -22.926  0.00  0.00    +0.043 A 
ATOM     27  C   UNL     1     -14.312   2.610 -21.842  0.00  0.00    +0.098 A 
ATOM     30  C   UNL     1     -14.349   3.999 -21.737  0.00  0.00    +0.014 A 
ATOM     31  C   UNL     1     -15.032   4.747 -22.683  0.00  0.00    -0.015 A 
ATOM     32  C   UNL     1     -15.680   4.120 -23.735  0.00  0.00    +0.012 A 
BRANCH  27  28
ATOM     28  O   UNL     1     -13.769   1.802 -20.885  0.00  0.00    -0.320 OA
ATOM     29  C   UNL     1     -13.294   2.411 -19.686  0.00  0.00    +0.234 C 
ENDBRANCH  27  28
ENDBRANCH   4   3
BRANCH   8  10
ATOM     10  C   UNL     1     -20.199   0.074 -23.514  0.00  0.00    +0.043 A 
ATOM     11  C   UNL     1     -21.540  -0.155 -23.806  0.00  0.00    +0.006 A 
ATOM     12  C   UNL     1     -22.438   0.896 -23.796  0.00  0.00    +0.103 A 
ATOM     15  C   UNL     1     -22.001   2.188 -23.494  0.00  0.00    +0.135 A 
ATOM     18  C   UNL     1     -20.652   2.410 -23.178  0.00  0.00    +0.103 A 
ATOM     21  C   UNL     1     -19.753   1.357 -23.203  0.00  0.00    +0.006 A 
BRANCH  12  13
ATOM     13  O   UNL     1     -23.785   0.765 -24.014  0.00  0.00    -0.331 OA
ATOM     14  C   UNL     1     -24.293  -0.533 -24.306  0.00  0.00    +0.228 C 
ENDBRANCH  12  13
BRANCH  15  16
ATOM     16  O   UNL     1     -22.899   3.240 -23.504  0.00  0.00    -0.337 OA
ATOM     17  C   UNL     1     -22.938   4.021 -24.704  0.00  0.00    +0.221 C 
ENDBRANCH  15  16
BRANCH  18  19
ATOM     19  O   UNL     1     -20.339   3.691 -22.809  0.00  0.00    -0.331 OA
ATOM     20  C   UNL     1     -19.000   3.969 -22.384  0.00  0.00    +0.228 C 
ENDBRANCH  18  19
ENDBRANCH   8  10
TORSDOF 6
