REMARK  Name = 98M
REMARK  6 active torsions:
REMARK  status: ('A' for Active; 'I' for Inactive)
REMARK    1  A    between atoms: C10_1  and  C11_18
REMARK    2  A    between atoms: C22_5  and  N21_25
REMARK    3  A    between atoms: C26_7  and  N27_28
REMARK    4  A    between atoms: N03_11  and  C04_12
REMARK    5  A    between atoms: C04_12  and  C05_13
REMARK    6  A    between atoms: N07_15  and  C08_16
REMARK                            x       y       z     vdW  Elec       q    Type
REMARK                         _______ _______ _______ _____ _____    ______ ____
ROOT
ATOM      1  C   UNL     1      -9.140   9.000   7.000  0.00  0.00    +0.000 C 
ENDROOT
TORSDOF 0
