REMARK  Name = 1q41_ligand
REMARK  1 active torsions:
REMARK  status: ('A' for Active; 'I' for Inactive)
REMARK    1  A    between atoms: N24_20  and  O39_21
REMARK                            x       y       z     vdW  Elec       q    Type
REMARK                         _______ _______ _______ _____ _____    ______ ____
ROOT
ATOM      1  C   UNL     1      40.306   3.918  35.381  0.00  0.00    +0.024 A 
ATOM      2  C   UNL     1      40.437   2.806  34.523  0.00  0.00    -0.006 A 
ATOM      3  C   UNL     1      41.102   1.640  35.027  0.00  0.00    -0.022 A 
ATOM      4  C   UNL     1      41.614   1.606  36.362  0.00  0.00    -0.015 A 
ATOM      5  C   UNL     1      41.470   2.735  37.209  0.00  0.00    +0.015 A 
ATOM      6  C   UNL     1      40.821   3.877  36.699  0.00  0.00    +0.072 A 
ATOM      7  N   UNL     1      40.596   5.055  37.347  0.00  0.00    -0.264 N 
ATOM      8  H   UNL     1      40.885   5.239  38.319  0.00  0.00    +0.220 HD
ATOM      9  C   UNL     1      39.939   5.973  36.556  0.00  0.00    +0.104 C 
ATOM     10  C   UNL     1      39.592   7.234  36.934  0.00  0.00    +0.061 C 
ATOM     11  C   UNL     1      38.752   8.333  36.387  0.00  0.00    -0.012 A 
ATOM     12  C   UNL     1      37.978   8.536  35.221  0.00  0.00    -0.028 A 
ATOM     13  C   UNL     1      37.264   9.769  35.052  0.00  0.00    -0.038 A 
ATOM     14  C   UNL     1      37.333  10.792  36.048  0.00  0.00    -0.031 A 
ATOM     15  C   UNL     1      38.110  10.598  37.215  0.00  0.00    -0.001 A 
ATOM     16  C   UNL     1      38.798   9.372  37.355  0.00  0.00    +0.063 A 
ATOM     17  N   UNL     1      39.588   9.009  38.435  0.00  0.00    -0.244 N 
ATOM     18  H   UNL     1      39.756   9.592  39.230  0.00  0.00    +0.223 HD
ATOM     19  C   UNL     1      40.117   7.736  38.276  0.00  0.00    +0.201 C 
ATOM     20  O   UNL     1      40.847   7.149  39.076  0.00  0.00    -0.397 OA
ATOM     21  C   UNL     1      39.689   5.274  35.224  0.00  0.00    +0.127 C 
ATOM     22  N   UNL     1      39.040   5.805  34.233  0.00  0.00    -0.118 NA
ENDROOT
BRANCH  22  23
ATOM     23  O   UNL     1      38.883   5.011  33.096  0.00  0.00    -0.230 OA
ATOM     24  H   UNL     1      38.397   5.495  32.438  0.00  0.00    +0.297 HD
ENDBRANCH  22  23
TORSDOF 1
