REMARK  Name = 4cki_ligand
REMARK  6 active torsions:
REMARK  status: ('A' for Active; 'I' for Inactive)
REMARK    1  A    between atoms: O5'_1  and  C5'_2
REMARK    2  A    between atoms: C5'_2  and  C4'_3
REMARK    3  A    between atoms: C3'_5  and  O3'_6
REMARK    4  A    between atoms: C2'_7  and  O2'_8
REMARK    5  A    between atoms: C1'_9  and  N9_10
REMARK    6  A    between atoms: C6_14  and  N6_15
REMARK                            x       y       z     vdW  Elec       q    Type
REMARK                         _______ _______ _______ _____ _____    ______ ____
ROOT
ATOM      4  C4*   A A   1      64.735   8.378   8.292  0.00  0.00    +0.178 C 
ATOM      5  C3*   A A   1      65.350   8.695   9.658  0.00  0.00    +0.179 C 
ATOM      6  C2*   A A   1      64.261   8.261  10.628  0.00  0.00    +0.206 C 
ATOM      7  C1*   A A   1      62.998   8.605   9.845  0.00  0.00    +0.301 C 
ATOM     24  O4*   A A   1      63.296   8.334   8.492  0.00  0.00    -0.337 OA
ENDROOT
BRANCH   7   8
ATOM      8  N9    A A   1      61.832   7.807  10.222  0.00  0.00    -0.192 N 
ATOM      9  C4    A A   1      60.757   8.273  10.857  0.00  0.00    +0.161 A 
ATOM     10  N3    A A   1      60.371   9.487  11.321  0.00  0.00    -0.271 NA
ATOM     11  C2    A A   1      59.186   9.635  11.934  0.00  0.00    +0.153 A 
ATOM     12  N1    A A   1      58.311   8.627  12.122  0.00  0.00    -0.270 NA
ATOM     13  C6    A A   1      58.572   7.368  11.706  0.00  0.00    +0.130 A 
ATOM     17  C5    A A   1      59.862   7.120  11.024  0.00  0.00    +0.105 A 
ATOM     18  N7    A A   1      60.484   6.051  10.472  0.00  0.00    -0.296 NA
ATOM     19  C8    A A   1      61.679   6.484   9.994  0.00  0.00    +0.247 A 
BRANCH  13  14
ATOM     14  N6    A A   1      57.684   6.362  11.905  0.00  0.00    -0.315 N 
ATOM     15  H61   A A   1      57.903   5.410  11.580  0.00  0.00    +0.182 HD
ATOM     16  H62   A A   1      56.790   6.551  12.381  0.00  0.00    +0.182 HD
ENDBRANCH  13  14
ENDBRANCH   7   8
BRANCH   6  20
ATOM     20  O2*   A A   1      64.296   8.928  11.870  0.00  0.00    -0.384 OA
ATOM     21  H2*   A A   1      64.190   9.862  11.730  0.00  0.00    +0.210 HD
ENDBRANCH   6  20
BRANCH   5  22
ATOM     22  O3*   A A   1      65.541  10.106   9.779  0.00  0.00    -0.386 OA
ATOM     23  H3*   A A   1      65.923  10.301  10.627  0.00  0.00    +0.210 HD
ENDBRANCH   5  22
BRANCH   4   3
ATOM      3  C5*   A A   1      65.189   7.084   7.654  0.00  0.00    +0.190 C 
BRANCH   3   1
ATOM      1  O5*   A A   1      64.849   5.949   8.443  0.00  0.00    -0.392 OA
ATOM      2  H5*   A A   1      63.906   5.911   8.551  0.00  0.00    +0.209 HD
ENDBRANCH   3   1
ENDBRANCH   4   3
TORSDOF 6
