REMARK  Name = R69
REMARK  7 active torsions:
REMARK  status: ('A' for Active; 'I' for Inactive)
REMARK    1  A    between atoms: C21_2  and  C14_3
REMARK    2  A    between atoms: N23_9  and  C31_10
REMARK    3  A    between atoms: C37_16  and  N41_17
REMARK    4  A    between atoms: C42_18  and  C51_20
REMARK    5  A    between atoms: C54_25  and  C61_26
REMARK    6  A    between atoms: C61_26  and  C71_28
REMARK    7  A    between atoms: C75_34  and  N95_35
REMARK                            x       y       z     vdW  Elec       q    Type
REMARK                         _______ _______ _______ _____ _____    ______ ____
ROOT
ATOM     12  N   UNL     1       6.556  21.595  30.973  0.00  0.00    -0.202 NA
ATOM     13  C   UNL     1       5.901  21.573  32.213  0.00  0.00    +0.265 C 
ATOM     14  O   UNL     1       5.926  22.529  33.012  0.00  0.00    -0.268 OA
ENDROOT
BRANCH  12  11
ATOM     10  C   UNL     1       8.237  22.512  29.340  0.00  0.00    +0.133 C 
ATOM     11  C   UNL     1       7.138  22.847  30.406  0.00  0.00    +0.117 C 
ATOM     33  C   UNL     1       6.028  23.839  30.002  0.00  0.00    +0.025 C 
ATOM     34  C   UNL     1       4.973  23.296  29.025  0.00  0.00    +0.021 C 
ATOM     35  C   UNL     1       5.507  23.344  27.605  0.00  0.00    +0.089 C 
ATOM     36  N   UNL     1       6.705  22.448  27.434  0.00  0.00    -0.216 NA
ATOM     37  C   UNL     1       8.034  22.990  27.898  0.00  0.00    +0.112 C 
BRANCH  10   9
ATOM      1  O   UNL     1      10.477  21.116  30.256  0.00  0.00    -0.268 OA
ATOM      2  C   UNL     1      10.597  22.348  30.163  0.00  0.00    +0.265 C 
ATOM      9  N   UNL     1       9.484  23.106  29.809  0.00  0.00    -0.200 NA
BRANCH   2   3
ATOM      3  C   UNL     1      11.886  23.036  30.377  0.00  0.00    +0.058 A 
ATOM      4  C   UNL     1      13.052  22.283  30.622  0.00  0.00    +0.025 A 
ATOM      5  C   UNL     1      14.286  22.930  30.763  0.00  0.00    +0.099 A 
ATOM      6  N   UNL     1      14.402  24.259  30.711  0.00  0.00    -0.242 NA
ATOM      7  C   UNL     1      13.312  25.004  30.478  0.00  0.00    +0.099 A 
ATOM      8  C   UNL     1      12.036  24.438  30.286  0.00  0.00    +0.025 A 
ENDBRANCH   2   3
ENDBRANCH  10   9
ENDBRANCH  12  11
BRANCH  13  15
ATOM     15  C   UNL     1       5.099  20.404  32.540  0.00  0.00    +0.055 A 
ATOM     16  C   UNL     1       4.744  20.148  33.881  0.00  0.00    +0.005 A 
ATOM     17  C   UNL     1       3.927  19.068  34.210  0.00  0.00    +0.003 A 
ATOM     18  C   UNL     1       3.517  18.205  33.169  0.00  0.00    +0.039 A 
ATOM     31  C   UNL     1       3.884  18.453  31.825  0.00  0.00    +0.003 A 
ATOM     32  C   UNL     1       4.654  19.551  31.510  0.00  0.00    +0.005 A 
BRANCH  18  19
ATOM     19  C   UNL     1       2.633  17.078  33.447  0.00  0.00    +0.199 C 
ATOM     20  O   UNL     1       1.830  17.234  34.392  0.00  0.00    -0.286 OA
BRANCH  19  21
ATOM     21  C   UNL     1       2.529  15.918  32.620  0.00  0.00    +0.079 A 
ATOM     22  C   UNL     1       3.605  15.023  32.309  0.00  0.00    +0.199 A 
ATOM     23  O   UNL     1       4.799  15.178  32.758  0.00  0.00    -0.286 OA
ATOM     24  C   UNL     1       3.275  13.926  31.434  0.00  0.00    +0.043 A 
ATOM     25  C   UNL     1       1.999  13.742  30.936  0.00  0.00    +0.018 A 
ATOM     26  C   UNL     1       0.952  14.627  31.273  0.00  0.00    +0.048 A 
ATOM     30  C   UNL     1       1.247  15.698  32.101  0.00  0.00    +0.021 A 
BRANCH  26  27
ATOM     27  N   UNL     1      -0.371  14.447  30.720  0.00  0.00    -0.304 N 
ATOM     28  C   UNL     1      -1.514  15.272  31.155  0.00  0.00    +0.112 C 
ATOM     29  C   UNL     1      -0.747  13.114  30.197  0.00  0.00    +0.112 C 
ENDBRANCH  26  27
ENDBRANCH  19  21
ENDBRANCH  18  19
ENDBRANCH  13  15
TORSDOF 7
