REMARK  Name = 2xkf_ligand
REMARK  8 active torsions:
REMARK  status: ('A' for Active; 'I' for Inactive)
REMARK    1  A    between atoms: C01_1  and  O02_2
REMARK    2  A    between atoms: O02_2  and  C03_3
REMARK    3  A    between atoms: C05_5  and  C06_6
REMARK    4  A    between atoms: C15_15  and  C16_16
REMARK    5  A    between atoms: C23_23  and  O24_24
REMARK    6  A    between atoms: O24_24  and  C25_25
REMARK    7  A    between atoms: C26_26  and  O27_27
REMARK    8  A    between atoms: O27_27  and  C28_28
REMARK                            x       y       z     vdW  Elec       q    Type
REMARK                         _______ _______ _______ _____ _____    ______ ____
ROOT
ATOM     12  C   UNL     1     -25.909  21.629 -20.095  0.00  0.00    +0.037 A 
ATOM     13  N   UNL     1     -25.432  21.479 -18.772  0.00  0.00    -0.276 NA
ATOM     14  C   UNL     1     -24.848  22.565 -18.118  0.00  0.00    +0.163 A 
ATOM     15  N   UNL     1     -24.348  22.424 -16.757  0.00  0.00    -0.291 N 
ATOM     16  C   UNL     1     -22.902  22.194 -16.695  0.00  0.00    +0.135 C 
ATOM     17  C   UNL     1     -22.334  22.312 -15.258  0.00  0.00    +0.043 C 
ATOM     18  C   UNL     1     -23.334  21.896 -14.189  0.00  0.00    +0.062 C 
ATOM     22  C   UNL     1     -24.439  20.995 -14.690  0.00  0.00    +0.043 C 
ATOM     23  C   UNL     1     -25.139  21.477 -15.962  0.00  0.00    +0.135 C 
ATOM     24  C   UNL     1     -24.720  23.828 -18.783  0.00  0.00    +0.160 A 
ATOM     25  N   UNL     1     -24.104  24.912 -18.110  0.00  0.00    -0.319 N 
ATOM     26  H   UNL     1     -23.989  25.817 -18.589  0.00  0.00    +0.176 HD
ATOM     27  H   UNL     1     -23.771  24.795 -17.142  0.00  0.00    +0.176 HD
ATOM     28  N   UNL     1     -25.179  23.973 -20.104  0.00  0.00    -0.277 NA
ATOM     29  C   UNL     1     -25.773  22.888 -20.769  0.00  0.00    +0.087 A 
ENDROOT
BRANCH  12  11
ATOM      3  C   UNL     1     -27.106  18.028 -20.709  0.00  0.00    +0.114 A 
ATOM      4  C   UNL     1     -27.659  18.138 -22.038  0.00  0.00    +0.150 A 
ATOM      7  C   UNL     1     -27.641  19.428 -22.741  0.00  0.00    +0.114 A 
ATOM     10  C   UNL     1     -27.060  20.620 -22.096  0.00  0.00    +0.001 A 
ATOM     11  C   UNL     1     -26.501  20.502 -20.752  0.00  0.00    -0.034 A 
ATOM     30  C   UNL     1     -26.522  19.225 -20.055  0.00  0.00    +0.001 A 
BRANCH   3   2
ATOM      1  C   UNL     1     -26.183  16.524 -19.083  0.00  0.00    +0.228 C 
ATOM      2  O   UNL     1     -27.131  16.811 -20.047  0.00  0.00    -0.328 OA
ENDBRANCH   3   2
BRANCH   4   5
ATOM      5  O   UNL     1     -28.195  17.017 -22.633  0.00  0.00    -0.328 OA
ATOM      6  C   UNL     1     -27.345  16.011 -23.047  0.00  0.00    +0.226 C 
ENDBRANCH   4   5
BRANCH   7   8
ATOM      8  O   UNL     1     -28.173  19.518 -24.012  0.00  0.00    -0.328 OA
ATOM      9  C   UNL     1     -28.393  20.759 -24.568  0.00  0.00    +0.228 C 
ENDBRANCH   7   8
ENDBRANCH  12  11
BRANCH  18  19
ATOM     19  C   UNL     1     -22.870  21.725 -12.790  0.00  0.00    +0.038 C 
ATOM     20  O   UNL     1     -22.131  22.711 -12.190  0.00  0.00    -0.569 OA
ATOM     21  O   UNL     1     -22.946  20.629 -12.264  0.00  0.00    -0.569 OA
ENDBRANCH  18  19
TORSDOF 5
