REMARK  Name = 4RWK
REMARK  12 active torsions:
REMARK  status: ('A' for Active; 'I' for Inactive)
REMARK    1  A    between atoms: C_1  and  C_4
REMARK    2  A    between atoms: N_2  and  C_15
REMARK    3  A    between atoms: O_6  and  C_31
REMARK    4  A    between atoms: O_6  and  C_33
REMARK    5  A    between atoms: N_8  and  C_21
REMARK    6  A    between atoms: O_9  and  C_29
REMARK    7  A    between atoms: O_9  and  C_34
REMARK    8  A    between atoms: C_12  and  C_14
REMARK    9  A    between atoms: C_18  and  C_21
REMARK   10  A    between atoms: C_24  and  C_25
REMARK   11  A    between atoms: C_25  and  C_26
REMARK   12  A    between atoms: C_26  and  C_27
REMARK                            x       y       z     vdW  Elec       q    Type
REMARK                         _______ _______ _______ _____ _____    ______ ____
ROOT
ATOM     10  N   UNL     1     -18.962  -5.634  14.232  0.00  0.00    +0.038 NA
ATOM     11  C   UNL     1     -17.652  -5.509  13.876  0.00  0.00    +0.389 C 
ATOM     12  C   UNL     1     -16.828  -6.355  13.274  0.00  0.00    +0.133 C 
ATOM     13  C   UNL     1     -15.658  -5.711  13.162  0.00  0.00    +0.097 C 
ATOM     26  N   UNL     1     -15.773  -4.468  13.703  0.00  0.00    -0.040 NA
ATOM     27  N   UNL     1     -16.993  -4.380  14.121  0.00  0.00    +0.084 NA
ENDROOT
BRANCH  10   9
ATOM      9  C   UNL     1     -19.712  -6.768  14.167  0.00  0.00    +0.374 C 
ATOM     28  O   UNL     1     -19.283  -7.833  13.772  0.00  0.00    -0.238 OA
BRANCH   9   8
ATOM      5  C   UNL     1     -23.843  -6.563  15.310  0.00  0.00    +0.030 A 
ATOM      6  C   UNL     1     -23.393  -7.478  14.383  0.00  0.00    +0.024 A 
ATOM      7  C   UNL     1     -22.054  -7.512  14.043  0.00  0.00    +0.017 A 
ATOM      8  C   UNL     1     -21.132  -6.646  14.608  0.00  0.00    +0.066 A 
ATOM     29  C   UNL     1     -21.582  -5.721  15.544  0.00  0.00    +0.017 A 
ATOM     30  C   UNL     1     -22.929  -5.671  15.901  0.00  0.00    +0.024 A 
BRANCH   5   4
ATOM      1  C   UNL     1     -28.293  -8.619  15.399  0.00  0.00    +0.025 C 
ATOM      2  C   UNL     1     -27.367  -7.396  15.384  0.00  0.00    +0.068 C 
ATOM      3  C   UNL     1     -25.970  -7.724  15.945  0.00  0.00    +0.123 C 
ATOM      4  N   UNL     1     -25.162  -6.548  15.627  0.00  0.00    -0.327 N 
ATOM     31  C   UNL     1     -25.688  -5.248  16.213  0.00  0.00    +0.123 C 
ATOM     32  C   UNL     1     -27.196  -5.032  15.965  0.00  0.00    +0.068 C 
ATOM     33  C   UNL     1     -27.734  -3.899  16.863  0.00  0.00    +0.025 C 
ATOM     34  N   UNL     1     -27.943  -6.282  16.155  0.00  0.00    -0.308 NA
ATOM     35  H   UNL     1     -27.928  -6.538  17.194  0.00  0.00    +0.123 HD
ENDBRANCH   5   4
ENDBRANCH   9   8
ENDBRANCH  10   9
BRANCH  13  14
ATOM     14  C   UNL     1     -14.348  -6.154  12.578  0.00  0.00    +0.064 C 
BRANCH  14  15
ATOM     15  C   UNL     1     -14.240  -5.998  11.076  0.00  0.00    +0.041 C 
BRANCH  15  16
ATOM     16  C   UNL     1     -14.879  -7.191  10.397  0.00  0.00    -0.040 A 
ATOM     17  C   UNL     1     -15.987  -7.024   9.581  0.00  0.00    +0.049 A 
ATOM     18  C   UNL     1     -16.574  -8.114   8.952  0.00  0.00    +0.124 A 
ATOM     19  C   UNL     1     -16.067  -9.385   9.124  0.00  0.00    +0.091 A 
ATOM     20  C   UNL     1     -14.950  -9.564   9.943  0.00  0.00    +0.124 A 
ATOM     25  C   UNL     1     -14.361  -8.471  10.571  0.00  0.00    +0.049 A 
BRANCH  20  21
ATOM     21  O   UNL     1     -14.400 -10.773  10.154  0.00  0.00    -0.495 OA
ATOM     22  C   UNL     1     -15.183 -11.947   9.880  0.00  0.00    +0.277 C 
ENDBRANCH  20  21
BRANCH  18  23
ATOM     23  O   UNL     1     -17.653  -7.875   8.172  0.00  0.00    -0.495 OA
ATOM     24  C   UNL     1     -17.619  -8.416   6.844  0.00  0.00    +0.277 C 
ENDBRANCH  18  23
ENDBRANCH  15  16
ENDBRANCH  14  15
ENDBRANCH  13  14
TORSDOF 8
