REMARK  Name = EAQ
REMARK  3 active torsions:
REMARK  status: ('A' for Active; 'I' for Inactive)
REMARK    1  A    between atoms: C11_3  and  C4_17
REMARK    2  A    between atoms: C12_4  and  C13_5
REMARK    3  A    between atoms: C17_7  and  C20_10
REMARK                            x       y       z     vdW  Elec       q    Type
REMARK                         _______ _______ _______ _____ _____    ______ ____
ROOT
ATOM      1  C   UNL     1      18.235  19.138  17.428  0.00  0.00    +0.329 C 
ATOM      2  N   UNL     1      18.823  19.497  18.474  0.00  0.00    +0.004 NA
ATOM      3  C   UNL     1      19.204  18.334  19.225  0.00  0.00    +0.397 C 
ATOM      4  N   UNL     1      19.843  18.375  20.415  0.00  0.00    +0.036 NA
ATOM      5  C   UNL     1      20.047  17.355  21.289  0.00  0.00    +0.377 C 
ATOM     16  O   UNL     1      19.665  16.214  21.071  0.00  0.00    -0.238 OA
ATOM     17  C   UNL     1      18.746  17.327  18.446  0.00  0.00    +0.330 C 
ATOM     18  N   UNL     1      18.175  17.842  17.373  0.00  0.00    -0.156 N 
ATOM     19  C   UNL     1      17.602  17.181  16.392  0.00  0.00    +0.172 C 
ATOM     20  C   UNL     1      17.027  17.842  15.367  0.00  0.00    +0.026 C 
ATOM     21  C   UNL     1      17.082  19.331  15.357  0.00  0.00    +0.064 C 
ATOM     27  C   UNL     1      17.673  19.988  16.363  0.00  0.00    +0.069 C 
ENDROOT
BRANCH   5   6
ATOM      6  C   UNL     1      20.777  17.582  22.601  0.00  0.00    +0.101 A 
ATOM      7  C   UNL     1      20.806  16.554  23.552  0.00  0.00    +0.010 A 
ATOM      8  C   UNL     1      21.474  16.732  24.768  0.00  0.00    +0.015 A 
ATOM      9  C   UNL     1      22.116  17.946  25.055  0.00  0.00    +0.058 A 
ATOM     14  N   UNL     1      22.077  18.923  24.111  0.00  0.00    -0.248 NA
ATOM     15  C   UNL     1      21.441  18.779  22.922  0.00  0.00    +0.105 A 
BRANCH   9  10
ATOM     10  C   UNL     1      22.876  18.185  26.391  0.00  0.00    +0.035 C 
ATOM     11  C   UNL     1      22.264  17.350  27.555  0.00  0.00    +0.006 C 
ATOM     12  C   UNL     1      22.818  19.687  26.799  0.00  0.00    +0.006 C 
ATOM     13  C   UNL     1      24.367  17.780  26.204  0.00  0.00    +0.006 C 
ENDBRANCH   9  10
ENDBRANCH   5   6
BRANCH  20  22
ATOM     22  C   UNL     1      16.363  17.109  14.266  0.00  0.00    +0.042 A 
ATOM     23  C   UNL     1      16.181  15.651  14.149  0.00  0.00    +0.124 A 
ATOM     24  N   UNL     1      15.564  15.461  13.060  0.00  0.00    -0.146 NA
ATOM     25  N   UNL     1      15.318  16.638  12.442  0.00  0.00    -0.146 NA
ATOM     26  C   UNL     1      15.788  17.617  13.163  0.00  0.00    +0.124 A 
ENDBRANCH  20  22
TORSDOF 3
