REMARK  Name = 2NRU
REMARK  13 active torsions:
REMARK  status: ('A' for Active; 'I' for Inactive)
REMARK    1  A    between atoms: N_2  and  C_4
REMARK    2  A    between atoms: C_9  and  C_10
REMARK    3  A    between atoms: C_10  and  N_12
REMARK    4  A    between atoms: C_17  and  O_18
REMARK    5  A    between atoms: O_18  and  C_19
REMARK    6  A    between atoms: C_19  and  C_21
REMARK    7  A    between atoms: C_21  and  C_22
REMARK    8  A    between atoms: C_21  and  C_23
REMARK    9  A    between atoms: C_21  and  C_24
REMARK   10  A    between atoms: N_28  and  C_29
REMARK   11  A    between atoms: C_29  and  C_30
REMARK   12  A    between atoms: C_30  and  C_31
REMARK   13  A    between atoms: C_31  and  O_32
REMARK                            x       y       z     vdW  Elec       q    Type
REMARK                         _______ _______ _______ _____ _____    ______ ____
ROOT
ATOM      7  N   UNL     1      30.049   7.613  -7.634  0.00  0.00    -0.142 NA
ATOM      8  C   UNL     1      29.412   7.355  -6.474  0.00  0.00    +0.201 A 
ATOM      9  N   UNL     1      28.591   8.239  -5.948  0.00  0.00    -0.312 N 
ATOM     15  C   UNL     1      28.108   7.717  -4.795  0.00  0.00    +0.068 A 
ATOM     16  C   UNL     1      27.236   8.211  -3.875  0.00  0.00    +0.031 A 
ATOM     17  C   UNL     1      26.878   7.447  -2.784  0.00  0.00    +0.048 A 
ATOM     18  C   UNL     1      27.455   6.207  -2.654  0.00  0.00    +0.134 A 
ATOM     26  C   UNL     1      28.338   5.675  -3.580  0.00  0.00    +0.074 A 
ATOM     27  C   UNL     1      28.628   6.422  -4.700  0.00  0.00    +0.069 A 
ATOM     28  N   UNL     1      29.505   6.196  -5.734  0.00  0.00    -0.326 N 
ATOM     29  H   UNL     1      30.110   5.333  -5.919  0.00  0.00    +0.169 HD
ENDROOT
BRANCH   7   6
ATOM      6  C   UNL     1      30.849   6.788  -8.228  0.00  0.00    +0.270 C 
ATOM     30  O   UNL     1      30.805   5.546  -7.886  0.00  0.00    -0.268 OA
BRANCH   6   5
ATOM      3  C   UNL     1      32.550   8.972 -10.802  0.00  0.00    +0.127 A 
ATOM      4  C   UNL     1      31.638   8.532  -9.833  0.00  0.00    +0.045 A 
ATOM      5  C   UNL     1      31.800   7.253  -9.294  0.00  0.00    +0.041 A 
ATOM     31  C   UNL     1      32.858   6.403  -9.697  0.00  0.00    +0.013 A 
ATOM     32  C   UNL     1      33.766   6.844 -10.673  0.00  0.00    +0.003 A 
ATOM     33  C   UNL     1      33.608   8.127 -11.203  0.00  0.00    +0.033 A 
BRANCH   3   2
ATOM      1  O   UNL     1      33.268  10.724 -12.347  0.00  0.00    -0.126 OA
ATOM      2  N   UNL     1      32.383  10.253 -11.366  0.00  0.00    +0.056 N 
ATOM     34  O   UNL     1      31.326  11.121 -10.982  0.00  0.00    -0.126 OA
ENDBRANCH   3   2
ENDBRANCH   6   5
ENDBRANCH   7   6
BRANCH   9  10
ATOM     10  C   UNL     1      28.245   9.513  -6.422  0.00  0.00    +0.127 C 
BRANCH  10  11
ATOM     11  C   UNL     1      29.134  10.746  -6.380  0.00  0.00    +0.049 C 
BRANCH  11  12
ATOM     12  C   UNL     1      29.799  10.921  -5.042  0.00  0.00    +0.157 C 
BRANCH  12  13
ATOM     13  O   UNL     1      28.783  11.158  -4.065  0.00  0.00    -0.395 OA
ATOM     14  H   UNL     1      28.249  12.026  -4.318  0.00  0.00    +0.209 HD
ENDBRANCH  12  13
ENDBRANCH  11  12
ENDBRANCH  10  11
ENDBRANCH   9  10
BRANCH  18  19
ATOM     19  O   UNL     1      27.120   5.504  -1.689  0.00  0.00    -0.425 OA
BRANCH  19  20
ATOM     20  C   UNL     1      27.847   5.500  -0.451  0.00  0.00    +0.318 C 
ATOM     25  O   UNL     1      28.933   6.199  -0.444  0.00  0.00    -0.250 OA
BRANCH  20  21
ATOM     21  C   UNL     1      27.242   4.803   0.731  0.00  0.00    +0.060 C 
ATOM     22  C   UNL     1      26.537   3.566   0.171  0.00  0.00    +0.022 C 
ATOM     23  C   UNL     1      26.295   5.850   1.306  0.00  0.00    +0.022 C 
ATOM     24  C   UNL     1      28.238   4.371   1.814  0.00  0.00    +0.022 C 
ENDBRANCH  20  21
ENDBRANCH  19  20
ENDBRANCH  18  19
TORSDOF 10
