REMARK  Name = 6C2R
REMARK  6 active torsions:
REMARK  status: ('A' for Active; 'I' for Inactive)
REMARK    1  A    between atoms: C7_1  and  C23_23
REMARK    2  A    between atoms: C11_11  and  C24_24
REMARK    3  A    between atoms: C14_14  and  N29_29
REMARK    4  A    between atoms: C15_15  and  C20_20
REMARK    5  A    between atoms: C20_20  and  C24_24
REMARK    6  A    between atoms: C23_23  and  N28_28
REMARK                            x       y       z     vdW  Elec       q    Type
REMARK                         _______ _______ _______ _____ _____    ______ ____
ROOT
ATOM      3  N   UNL     1     111.307 -19.047   7.321  0.00  0.00    -0.600 NA
ATOM      4  C   UNL     1     111.538 -18.238   8.547  0.00  0.00    +0.150 C 
ATOM      5  C   UNL     1     112.360 -18.979   9.613  0.00  0.00    -0.150 C 
ATOM      6  C   UNL     1     110.224 -17.833   9.246  0.00  0.00    -0.100 C 
ATOM      7  C   UNL     1     109.118 -17.231   8.355  0.00  0.00    +0.000 C 
ATOM     23  C   UNL     1     108.966 -18.158   7.135  0.00  0.00    -0.100 C 
ATOM     27  C   UNL     1     110.285 -18.468   6.419  0.00  0.00    +0.100 C 
ENDROOT
BRANCH   7  24
ATOM     24  C   UNL     1     107.882 -17.240   9.274  0.00  0.00    +0.700 C 
ATOM     25  O   UNL     1     106.657 -17.315   8.683  0.00  0.00    -0.400 OA
ATOM     26  O   UNL     1     107.956 -17.194  10.495  0.00  0.00    -0.550 OA
ENDBRANCH   7  24
BRANCH   3   2
ATOM      2  C   UNL     1     112.566 -19.265   6.598  0.00  0.00    +0.100 C 
BRANCH   2   1
ATOM      1  C   UNL     1     112.494 -20.156   5.391  0.00  0.00    +0.000 A 
ATOM     28  C   UNL     1     113.001 -19.649   4.200  0.00  0.00    +0.300 A 
ATOM     29  F   UNL     1     113.453 -18.377   4.170  0.00  0.00    -0.300 F 
ATOM     30  C   UNL     1     113.004 -20.442   3.058  0.00  0.00    +0.200 A 
ATOM     31 CL   UNL     1     113.685 -19.817   1.610  0.00  0.00    -0.200 Cl
ATOM     32  C   UNL     1     112.489 -21.736   3.092  0.00  0.00    -0.130 A 
ATOM     33  C   UNL     1     111.995 -22.262   4.291  0.00  0.00    -0.130 A 
ATOM     34  C   UNL     1     111.996 -21.474   5.450  0.00  0.00    -0.130 A 
ENDBRANCH   2   1
ENDBRANCH   3   2
BRANCH   7   8
ATOM      8  C   UNL     1     109.458 -15.783   7.944  0.00  0.00    -0.100 C 
BRANCH   8   9
ATOM      9  C   UNL     1     108.423 -15.168   7.028  0.00  0.00    +0.380 A 
ATOM     10  N   UNL     1     108.493 -15.507   5.716  0.00  0.00    -0.760 NA
ATOM     11  C   UNL     1     107.523 -15.002   4.919  0.00  0.00    +0.430 A 
ATOM     12  N   UNL     1     107.579 -15.281   3.540  0.00  0.00    -0.400 NA
ATOM     19  C   UNL     1     106.489 -14.159   5.354  0.00  0.00    -0.130 A 
ATOM     20  C   UNL     1     106.438 -13.837   6.708  0.00  0.00    -0.130 A 
ATOM     21  C   UNL     1     107.427 -14.336   7.554  0.00  0.00    +0.300 A 
ATOM     22  F   UNL     1     107.370 -14.076   8.855  0.00  0.00    -0.300 F 
BRANCH  12  13
ATOM     13  C   UNL     1     108.573 -15.760   2.682  0.00  0.00    +0.200 C 
ATOM     14  N   UNL     1     108.459 -15.874   1.344  0.00  0.00    -0.350 NA
ATOM     15  N   UNL     1     109.526 -16.419   0.755  0.00  0.00    -0.350 NA
ATOM     16  C   UNL     1     110.358 -16.650   1.763  0.00  0.00    +0.100 C 
ATOM     17  C   UNL     1     111.684 -17.236   1.450  0.00  0.00    -0.150 C 
ATOM     18  C   UNL     1     109.819 -16.251   3.005  0.00  0.00    -0.100 C 
ENDBRANCH  12  13
ENDBRANCH   8   9
ENDBRANCH   7   8
TORSDOF 6
