REMARK  Name = 4rqv_ligand
REMARK  2 active torsions:
REMARK  status: ('A' for Active; 'I' for Inactive)
REMARK    1  A    between atoms: N10_10  and  S11_11
REMARK    2  A    between atoms: S11_11  and  C14_14
REMARK                            x       y       z     vdW  Elec       q    Type
REMARK                         _______ _______ _______ _____ _____    ______ ____
ROOT
ATOM      1 CL   UNL     1     -16.703  16.839 -14.177  0.00  0.00    -0.081 Cl
ATOM      2  C   UNL     1     -15.344  17.466 -13.321  0.00  0.00    +0.026 A 
ATOM      3  C   UNL     1     -14.375  18.194 -13.992  0.00  0.00    -0.008 A 
ATOM      4  C   UNL     1     -13.298  18.680 -13.296  0.00  0.00    -0.013 A 
ATOM      5  C   UNL     1     -13.201  18.435 -11.922  0.00  0.00    +0.003 A 
ATOM      6  N   UNL     1     -12.083  18.903 -11.144  0.00  0.00    -0.316 NA
ATOM      7  C   UNL     1     -12.279  18.517  -9.843  0.00  0.00    +0.207 A 
ATOM      8  S   UNL     1     -13.699  17.655  -9.671  0.00  0.00    +0.027 S 
ATOM      9  N   UNL     1     -11.376  18.868  -8.838  0.00  0.00    -0.137 N 
ATOM     10  H   UNL     1     -10.777  19.658  -8.969  0.00  0.00    +0.239 HD
ATOM     23  C   UNL     1     -14.171  17.717 -11.256  0.00  0.00    +0.046 A 
ATOM     24  C   UNL     1     -15.253  17.227 -11.960  0.00  0.00    +0.015 A 
ENDROOT
BRANCH   9  11
ATOM     11  S   UNL     1     -11.283  18.021  -7.470  0.00  0.00    +0.113 S 
ATOM     21  O   UNL     1     -10.289  18.544  -6.632  0.00  0.00    -0.141 OA
ATOM     22  O   UNL     1     -12.457  18.102  -6.716  0.00  0.00    -0.141 OA
BRANCH  11  12
ATOM     12  C   UNL     1     -10.970  16.381  -8.032  0.00  0.00    +0.174 A 
ATOM     13  S   UNL     1     -11.854  15.129  -7.509  0.00  0.00    -0.008 S 
ATOM     14  C   UNL     1     -11.187  13.896  -8.366  0.00  0.00    +0.040 A 
ATOM     15  C   UNL     1     -11.470  12.528  -8.392  0.00  0.00    +0.007 A 
ATOM     16  C   UNL     1     -10.723  11.699  -9.219  0.00  0.00    -0.014 A 
ATOM     17  C   UNL     1      -9.712  12.264 -10.013  0.00  0.00    -0.016 A 
ATOM     18  C   UNL     1      -9.425  13.619  -9.987  0.00  0.00    -0.010 A 
ATOM     19  C   UNL     1     -10.176  14.447  -9.150  0.00  0.00    -0.024 A 
ATOM     20  C   UNL     1     -10.000  15.945  -8.987  0.00  0.00    +0.011 A 
ENDBRANCH  11  12
ENDBRANCH   9  11
TORSDOF 2
