REMARK  Name = 4MXX
REMARK  13 active torsions:
REMARK  status: ('A' for Active; 'I' for Inactive)
REMARK    1  A    between atoms: C_1  and  O_22
REMARK    2  A    between atoms: O_2  and  C_24
REMARK    3  A    between atoms: O_2  and  C_36
REMARK    4  A    between atoms: C_3  and  C_13
REMARK    5  A    between atoms: C_3  and  N_34
REMARK    6  A    between atoms: C_7  and  C_27
REMARK    7  A    between atoms: C_13  and  C_14
REMARK    8  A    between atoms: C_14  and  O_23
REMARK    9  A    between atoms: C_15  and  N_35
REMARK   10  A    between atoms: N_21  and  C_28
REMARK   11  A    between atoms: N_21  and  C_31
REMARK   12  A    between atoms: O_22  and  C_29
REMARK   13  A    between atoms: O_23  and  C_30
REMARK                            x       y       z     vdW  Elec       q    Type
REMARK                         _______ _______ _______ _____ _____    ______ ____
ROOT
ATOM      3  C   UNL     1      12.203 -38.679  -6.296  0.00  0.00    +0.162 A 
ATOM      4  C   UNL     1      13.589 -38.146  -6.357  0.00  0.00    +0.164 A 
ATOM     16  C   UNL     1      13.876 -36.784  -6.916  0.00  0.00    +0.077 A 
ATOM     17  C   UNL     1      12.723 -35.936  -7.430  0.00  0.00    +0.076 A 
ATOM     18  C   UNL     1      11.315 -36.500  -7.356  0.00  0.00    +0.026 A 
ATOM     19  C   UNL     1      10.136 -35.665  -7.861  0.00  0.00    +0.060 A 
ATOM     20  C   UNL     1      10.441 -34.289  -8.423  0.00  0.00    +0.091 A 
ATOM     21  C   UNL     1      11.864 -33.807  -8.459  0.00  0.00    +0.132 A 
ATOM     36  N   UNL     1      12.947 -34.617  -7.976  0.00  0.00    -0.254 NA
ATOM     37  C   UNL     1      11.055 -37.868  -6.789  0.00  0.00    +0.061 A 
ENDROOT
BRANCH   3   2
ATOM      1  C   UNL     1      12.020 -40.081  -4.388  0.00  0.00    +0.277 C 
ATOM      2  O   UNL     1      11.969 -39.929  -5.771  0.00  0.00    -0.491 OA
ENDBRANCH   3   2
BRANCH  20  22
ATOM     22  C   UNL     1       9.307 -33.442  -8.925  0.00  0.00    +0.103 C 
ATOM     23  N   UNL     1       8.410 -32.839  -9.298  0.00  0.00    -0.191 NA
ENDBRANCH  20  22
BRANCH  19  24
ATOM     24  N   UNL     1       8.767 -36.202  -7.798  0.00  0.00    -0.312 N 
ATOM     25  H   UNL     1       8.837 -37.263  -7.920  0.00  0.00    +0.152 HD
BRANCH  24  26
ATOM     26  C   UNL     1       7.795 -35.721  -8.763  0.00  0.00    +0.053 A 
ATOM     27  C   UNL     1       6.425 -35.275  -8.318  0.00  0.00    +0.064 A 
ATOM     28  C   UNL     1       5.439 -34.773  -9.317  0.00  0.00    +0.045 A 
ATOM     29  C   UNL     1       5.825 -34.713 -10.755  0.00  0.00    +0.084 A 
ATOM     30  C   UNL     1       7.189 -35.148 -11.221  0.00  0.00    +0.140 A 
ATOM     33 CL   UNL     1       4.660 -34.127 -11.881  0.00  0.00    -0.080 Cl
ATOM     34 CL   UNL     1       5.938 -35.343  -6.657  0.00  0.00    -0.082 Cl
ATOM     35  C   UNL     1       8.181 -35.658 -10.222  0.00  0.00    +0.072 A 
BRANCH  30  31
ATOM     31  O   UNL     1       7.525 -35.082 -12.560  0.00  0.00    -0.494 OA
ATOM     32  C   UNL     1       8.832 -35.308 -12.982  0.00  0.00    +0.277 C 
ENDBRANCH  30  31
ENDBRANCH  24  26
ENDBRANCH  19  24
BRANCH   4   5
ATOM      5  O   UNL     1      14.627 -38.938  -5.872  0.00  0.00    -0.488 OA
BRANCH   5   6
ATOM      6  C   UNL     1      15.835 -38.352  -5.501  0.00  0.00    +0.230 C 
BRANCH   6   7
ATOM      7  C   UNL     1      16.772 -39.436  -4.968  0.00  0.00    +0.056 C 
BRANCH   7   8
ATOM      8  C   UNL     1      16.218 -39.999  -3.669  0.00  0.00    +0.088 C 
BRANCH   8   9
ATOM      9  N   UNL     1      17.368 -40.245  -2.734  0.00  0.00    -0.300 NA
ATOM     10  C   UNL     1      18.689 -40.103  -3.305  0.00  0.00    +0.100 C 
ATOM     11  C   UNL     1      19.624 -41.013  -2.570  0.00  0.00    +0.099 C 
ATOM     12  N   UNL     1      19.675 -40.682  -1.171  0.00  0.00    -0.303 NA
ATOM     13  C   UNL     1      18.370 -40.684  -0.554  0.00  0.00    +0.099 C 
ATOM     14  C   UNL     1      20.746 -41.215  -0.337  0.00  0.00    +0.105 C 
ATOM     15  C   UNL     1      17.394 -39.785  -1.339  0.00  0.00    +0.100 C 
ENDBRANCH   8   9
ENDBRANCH   7   8
ENDBRANCH   6   7
ENDBRANCH   5   6
ENDBRANCH   4   5
TORSDOF 10
