REMARK  Name = 4nwm_ligand
REMARK  10 active torsions:
REMARK  status: ('A' for Active; 'I' for Inactive)
REMARK    1  A    between atoms: C12_13  and  C1_23
REMARK    2  A    between atoms: C9_14  and  C25_24
REMARK    3  A    between atoms: C19_15  and  C18_25
REMARK    4  A    between atoms: C22_16  and  C31_34
REMARK    5  A    between atoms: C13_17  and  C26_30
REMARK    6  A    between atoms: C6_19  and  N5_40
REMARK    7  A    between atoms: C14_20  and  N6_41
REMARK    8  A    between atoms: C32_31  and  C31_34
REMARK    9  A    between atoms: C33_32  and  C31_34
REMARK   10  A    between atoms: C34_33  and  C31_34
REMARK                            x       y       z     vdW  Elec       q    Type
REMARK                         _______ _______ _______ _____ _____    ______ ____
ROOT
ATOM     21  C   UNL     1      10.538  20.843  19.080  0.00  0.00    +0.082 A 
ATOM     22  N   UNL     1       9.403  20.036  19.199  0.00  0.00    -0.264 NA
ATOM     23  C   UNL     1       8.538  20.039  18.147  0.00  0.00    +0.174 A 
ATOM     24  N   UNL     1       7.347  19.390  18.172  0.00  0.00    -0.251 N 
ATOM     25  H   UNL     1       6.782  19.488  17.317  0.00  0.00    +0.218 HD
ATOM     40  C   UNL     1       8.820  20.806  16.983  0.00  0.00    +0.158 A 
ATOM     41  N   UNL     1       8.153  20.957  15.779  0.00  0.00    -0.240 N 
ATOM     42  H   UNL     1       7.260  20.526  15.501  0.00  0.00    +0.238 HD
ATOM     43  C   UNL     1       8.921  21.786  15.050  0.00  0.00    +0.252 A 
ATOM     44  N   UNL     1      10.077  22.192  15.763  0.00  0.00    -0.286 NA
ATOM     45  C   UNL     1      10.007  21.575  16.994  0.00  0.00    +0.101 A 
ATOM     46  N   UNL     1      10.894  21.639  18.037  0.00  0.00    -0.293 NA
ENDROOT
BRANCH  21  20
ATOM      1  C   UNL     1      11.674  20.887  22.677  0.00  0.00    -0.026 A 
ATOM      2  C   UNL     1      13.094  20.863  22.548  0.00  0.00    +0.006 A 
ATOM      3  C   UNL     1      13.672  20.833  21.267  0.00  0.00    +0.073 A 
ATOM     18  C   UNL     1      12.879  20.786  20.091  0.00  0.00    -0.009 A 
ATOM     19  C   UNL     1      13.546  20.628  18.734  0.00  0.00    +0.080 C 
ATOM     20  C   UNL     1      11.461  20.825  20.244  0.00  0.00    -0.001 A 
ATOM     47  C   UNL     1      10.871  20.877  21.541  0.00  0.00    -0.020 A 
BRANCH   3   4
ATOM      4  N   UNL     1      15.086  20.894  21.051  0.00  0.00    -0.232 N 
ATOM      5  H   UNL     1      15.611  20.049  21.148  0.00  0.00    +0.224 HD
ATOM      6  C   UNL     1      15.770  22.044  20.718  0.00  0.00    +0.250 C 
ATOM      7  O   UNL     1      15.215  23.137  20.695  0.00  0.00    -0.362 OA
BRANCH   6   8
ATOM      8  C   UNL     1      17.232  21.863  20.403  0.00  0.00    +0.083 A 
ATOM      9  C   UNL     1      17.730  20.641  19.962  0.00  0.00    +0.060 A 
ATOM     10  C   UNL     1      19.067  20.552  19.550  0.00  0.00    +0.050 A 
ATOM     11  C   UNL     1      19.944  21.656  19.588  0.00  0.00    -0.045 A 
ATOM     16  C   UNL     1      19.416  22.872  20.064  0.00  0.00    +0.050 A 
ATOM     17  C   UNL     1      18.084  22.977  20.461  0.00  0.00    +0.060 A 
BRANCH  11  12
ATOM     12  C   UNL     1      21.427  21.569  19.140  0.00  0.00    -0.043 C 
ATOM     13  C   UNL     1      21.670  20.515  18.064  0.00  0.00    -0.041 C 
ATOM     14  C   UNL     1      21.945  22.871  18.529  0.00  0.00    -0.041 C 
ATOM     15  C   UNL     1      22.307  21.220  20.343  0.00  0.00    -0.041 C 
ENDBRANCH  11  12
ENDBRANCH   6   8
ENDBRANCH   3   4
ENDBRANCH  21  20
BRANCH  24  26
ATOM     26  C   UNL     1       6.752  18.590  19.199  0.00  0.00    +0.069 A 
ATOM     27  C   UNL     1       7.428  18.353  20.440  0.00  0.00    +0.023 A 
ATOM     28  C   UNL     1       6.780  17.603  21.442  0.00  0.00    +0.013 A 
ATOM     29  C   UNL     1       5.505  17.065  21.201  0.00  0.00    +0.038 A 
ATOM     38  C   UNL     1       4.850  17.302  19.997  0.00  0.00    +0.013 A 
ATOM     39  C   UNL     1       5.470  18.073  18.992  0.00  0.00    +0.023 A 
BRANCH  29  30
ATOM     30  C   UNL     1       4.859  16.187  22.245  0.00  0.00    +0.199 C 
ATOM     31  O   UNL     1       4.535  16.717  23.304  0.00  0.00    -0.390 OA
ATOM     32  N   UNL     1       4.662  14.779  22.048  0.00  0.00    -0.270 N 
ATOM     33  C   UNL     1       5.176  14.023  20.887  0.00  0.00    +0.165 C 
ATOM     34  C   UNL     1       4.106  13.090  20.367  0.00  0.00    +0.184 C 
ATOM     35  O   UNL     1       3.600  12.241  21.398  0.00  0.00    -0.376 OA
ATOM     36  C   UNL     1       3.006  13.022  22.433  0.00  0.00    +0.184 C 
ATOM     37  C   UNL     1       4.014  13.944  23.078  0.00  0.00    +0.165 C 
ENDBRANCH  29  30
ENDBRANCH  24  26
TORSDOF 6
