REMARK  Name = 3R1Q
REMARK  5 active torsions:
REMARK  status: ('A' for Active; 'I' for Inactive)
REMARK    1  A    between atoms: N_1  and  C_7
REMARK    2  A    between atoms: N_1  and  C_12
REMARK    3  A    between atoms: N_4  and  C_10
REMARK    4  A    between atoms: C_6  and  C_11
REMARK    5  A    between atoms: C_12  and  C_13
REMARK                            x       y       z     vdW  Elec       q    Type
REMARK                         _______ _______ _______ _____ _____    ______ ____
ROOT
ATOM     11  C   UNL     1     -65.730 -45.850 -12.008  0.00  0.00    +0.041 A 
ATOM     12  C   UNL     1     -66.096 -45.439 -10.690  0.00  0.00    +0.046 A 
ATOM     13  C   UNL     1     -67.372 -44.903 -10.408  0.00  0.00    +0.073 A 
ATOM     14 CL   UNL     1     -67.706 -44.454  -8.779  0.00  0.00    -0.081 Cl
ATOM     15  C   UNL     1     -68.338 -44.750 -11.470  0.00  0.00    +0.145 A 
ATOM     16  C   UNL     1     -67.980 -45.170 -12.792  0.00  0.00    +0.049 A 
ATOM     20  C   UNL     1     -66.683 -45.725 -13.074  0.00  0.00    +0.059 A 
ENDROOT
BRANCH  20  21
ATOM     21  C   UNL     1     -66.382 -46.130 -14.366  0.00  0.00    +0.243 C 
ATOM     22  O   UNL     1     -65.532 -46.986 -14.567  0.00  0.00    -0.270 OA
ATOM     23  N   UNL     1     -67.053 -45.595 -15.432  0.00  0.00    -0.325 N 
ATOM     24  H   UNL     1     -66.817 -45.911 -16.426  0.00  0.00    +0.145 HD
ATOM     25  H   UNL     1     -67.814 -44.860 -15.271  0.00  0.00    +0.145 HD
ENDBRANCH  20  21
BRANCH  15  17
ATOM     17  N   UNL     1     -69.506 -44.251 -11.264  0.00  0.00    +0.058 N 
ATOM     18  O   UNL     1     -69.654 -43.180 -10.512  0.00  0.00    -0.126 OA
ATOM     19  O   UNL     1     -70.569 -44.760 -11.837  0.00  0.00    -0.126 OA
ENDBRANCH  15  17
BRANCH  11   1
ATOM      1  N   UNL     1     -64.554 -46.335 -12.239  0.00  0.00    -0.339 N 
ATOM      2  H   UNL     1     -64.447 -47.055 -13.023  0.00  0.00    +0.146 HD
BRANCH   1   3
ATOM      3  C   UNL     1     -63.344 -45.944 -11.472  0.00  0.00    +0.138 C 
BRANCH   3   4
ATOM      4  C   UNL     1     -63.004 -47.029 -10.477  0.00  0.00    -0.012 A 
ATOM      5  C   UNL     1     -62.742 -46.713  -9.122  0.00  0.00    +0.009 A 
ATOM      6  C   UNL     1     -62.426 -47.737  -8.196  0.00  0.00    +0.040 A 
ATOM      7  C   UNL     1     -62.386 -49.059  -8.673  0.00  0.00    +0.129 A 
ATOM      8 CL   UNL     1     -62.005 -50.315  -7.561  0.00  0.00    -0.062 Cl
ATOM      9  N   UNL     1     -62.637 -49.402  -9.979  0.00  0.00    -0.243 NA
ATOM     10  C   UNL     1     -62.941 -48.384 -10.859  0.00  0.00    +0.117 A 
ENDBRANCH   3   4
ENDBRANCH   1   3
ENDBRANCH  11   1
TORSDOF 5
