REMARK  Name = 3A60
REMARK  5 active torsions:
REMARK  status: ('A' for Active; 'I' for Inactive)
REMARK    1  A    between atoms: C_4  and  N_34
REMARK    2  A    between atoms: C_5  and  O_32
REMARK    3  A    between atoms: C_6  and  C_7
REMARK    4  A    between atoms: O_32  and  C_33
REMARK    5  A    between atoms: N_34  and  C_35
REMARK                            x       y       z     vdW  Elec       q    Type
REMARK                         _______ _______ _______ _____ _____    ______ ____
ROOT
ATOM      1  O   UNL     1      -6.943   5.778  37.755  0.00  0.00    -0.328 OA
ATOM      2  C   UNL     1      -7.451   4.661  37.037  0.00  0.00    +0.174 C 
ATOM      3  N   UNL     1      -7.522   3.436  37.989  0.00  0.00    -0.307 N 
ATOM      4  C   UNL     1      -8.434   2.346  38.046  0.00  0.00    +0.053 A 
ATOM      5  C   UNL     1      -9.590   1.963  37.293  0.00  0.00    +0.026 A 
ATOM      6  C   UNL     1     -10.315   0.784  37.602  0.00  0.00    +0.002 A 
ATOM      7  C   UNL     1      -9.910  -0.097  38.706  0.00  0.00    +0.001 A 
ATOM      8  C   UNL     1      -8.744   0.303  39.453  0.00  0.00    +0.010 A 
ATOM      9  C   UNL     1      -8.002   1.495  39.153  0.00  0.00    +0.008 A 
ATOM     10  C   UNL     1      -6.849   2.061  39.757  0.00  0.00    +0.015 A 
ATOM     11  C   UNL     1      -5.989   1.683  40.870  0.00  0.00    -0.008 A 
ATOM     12  C   UNL     1      -6.124   0.465  41.748  0.00  0.00    +0.141 C 
ATOM     13  N   UNL     1      -4.985   0.698  42.621  0.00  0.00    -0.307 N 
ATOM     14  H   UNL     1      -4.748   0.011  43.407  0.00  0.00    +0.149 HD
ATOM     15  C   UNL     1      -4.249   1.776  42.423  0.00  0.00    +0.245 C 
ATOM     16  O   UNL     1      -3.271   2.133  43.049  0.00  0.00    -0.270 OA
ATOM     17  C   UNL     1      -4.916   2.430  41.260  0.00  0.00    +0.052 A 
ATOM     18  C   UNL     1      -4.527   3.704  40.572  0.00  0.00    +0.022 A 
ATOM     19  C   UNL     1      -3.539   4.676  40.698  0.00  0.00    +0.009 A 
ATOM     20  C   UNL     1      -2.415   4.895  41.570  0.00  0.00    +0.010 A 
ATOM     21  C   UNL     1      -1.576   6.037  41.420  0.00  0.00    +0.001 A 
ATOM     22  C   UNL     1      -1.845   7.013  40.363  0.00  0.00    +0.002 A 
ATOM     23  C   UNL     1      -2.953   6.838  39.467  0.00  0.00    +0.026 A 
ATOM     24  C   UNL     1      -3.797   5.667  39.639  0.00  0.00    +0.052 A 
ATOM     25  N   UNL     1      -4.897   5.290  38.936  0.00  0.00    -0.312 N 
ATOM     26  C   UNL     1      -5.411   4.074  39.447  0.00  0.00    +0.077 A 
ATOM     27  C   UNL     1      -6.508   3.296  39.058  0.00  0.00    +0.077 A 
ATOM     28  C   UNL     1      -8.832   5.148  36.555  0.00  0.00    +0.069 C 
ATOM     29  C   UNL     1      -6.547   4.258  35.775  0.00  0.00    +0.187 C 
ATOM     32  C   UNL     1      -5.854   5.596  35.389  0.00  0.00    +0.091 C 
ATOM     36  C   UNL     1      -4.904   6.110  36.544  0.00  0.00    +0.076 C 
ATOM     37  C   UNL     1      -5.629   6.216  37.965  0.00  0.00    +0.224 C 
ENDROOT
BRANCH  32  33
ATOM     33  N   UNL     1      -4.950   5.481  34.096  0.00  0.00    -0.314 NA
ATOM     34  H   UNL     1      -5.235   4.618  33.531  0.00  0.00    +0.122 HD
ATOM     35  C   UNL     1      -5.151   6.728  33.262  0.00  0.00    +0.101 C 
ENDBRANCH  32  33
BRANCH  29  30
ATOM     30  O   UNL     1      -5.477   3.350  36.168  0.00  0.00    -0.374 OA
ATOM     31  C   UNL     1      -5.582   2.091  35.519  0.00  0.00    +0.194 C 
ENDBRANCH  29  30
TORSDOF 2
