REMARK  Name = 4v25_ligand
REMARK  11 active torsions:
REMARK  status: ('A' for Active; 'I' for Inactive)
REMARK    1  A    between atoms: C8_1  and  C2_2
REMARK    2  A    between atoms: C3_8  and  C9_9
REMARK    3  A    between atoms: C12_14  and  N15_15
REMARK    4  A    between atoms: N15_15  and  C17_26
REMARK    5  A    between atoms: C16_16  and  C18_18
REMARK    6  A    between atoms: C30_21  and  O33_22
REMARK    7  A    between atoms: C32_24  and  O34_25
REMARK    8  A    between atoms: C17_26  and  C20_27
REMARK    9  A    between atoms: C23_32  and  C26_33
REMARK   10  A    between atoms: C26_33  and  N27_34
REMARK   11  A    between atoms: C35_35  and  C36_37
REMARK                            x       y       z     vdW  Elec       q    Type
REMARK                         _______ _______ _______ _____ _____    ______ ____
ROOT
ATOM      8  N   UNL     1      41.399 -49.526 -10.048  0.00  0.00    -0.209 N 
ATOM     24  C   UNL     1      40.205 -49.214 -10.494  0.00  0.00    +0.225 C 
ATOM     35  O   UNL     1      39.427 -50.021 -10.931  0.00  0.00    -0.383 OA
ENDROOT
BRANCH   8   7
ATOM      4  C   UNL     1      44.061 -46.651  -8.820  0.00  0.00    -0.011 A 
ATOM      5  C   UNL     1      43.543 -46.647 -10.086  0.00  0.00    -0.001 A 
ATOM      6  C   UNL     1      42.653 -47.619 -10.480  0.00  0.00    +0.016 A 
ATOM      7  C   UNL     1      42.240 -48.607  -9.624  0.00  0.00    +0.076 A 
ATOM     36  C   UNL     1      42.769 -48.625  -8.364  0.00  0.00    +0.016 A 
ATOM     37  C   UNL     1      43.667 -47.651  -7.966  0.00  0.00    -0.001 A 
BRANCH   4   3
ATOM      1  C   UNL     1      44.080 -45.528  -6.108  0.00  0.00    +0.101 C 
ATOM      2  C   UNL     1      45.003 -45.093  -7.212  0.00  0.00    +0.006 A 
ATOM      3  C   UNL     1      44.959 -45.660  -8.461  0.00  0.00    +0.058 A 
ATOM     38  N   UNL     1      45.811 -45.199  -9.358  0.00  0.00    -0.259 NA
ATOM     39  C   UNL     1      46.691 -44.252  -9.073  0.00  0.00    +0.186 A 
ATOM     40 CL   UNL     1      47.742 -43.715 -10.288  0.00  0.00    -0.016 Cl
ATOM     41  N   UNL     1      46.744 -43.704  -7.876  0.00  0.00    -0.264 NA
ATOM     42  C   UNL     1      45.922 -44.106  -6.952  0.00  0.00    +0.107 A 
ENDBRANCH   4   3
ENDBRANCH   8   7
BRANCH  24  25
ATOM     25  C   UNL     1      39.779 -47.783 -10.422  0.00  0.00    +0.074 A 
ATOM     26  C   UNL     1      39.436 -47.108 -11.548  0.00  0.00    +0.101 A 
ATOM     29  C   UNL     1      39.045 -45.803 -11.491  0.00  0.00    +0.048 A 
ATOM     30  C   UNL     1      38.952 -45.181 -10.292  0.00  0.00    +0.085 A 
ATOM     33  C   UNL     1      39.270 -45.840  -9.148  0.00  0.00    +0.009 A 
ATOM     34  C   UNL     1      39.678 -47.151  -9.207  0.00  0.00    +0.004 A 
BRANCH  26  27
ATOM     27  O   UNL     1      39.526 -47.728 -12.710  0.00  0.00    -0.330 OA
ATOM     28  H   UNL     1      38.676 -47.727 -13.135  0.00  0.00    +0.251 HD
ENDBRANCH  26  27
BRANCH  30  31
ATOM     31  O   UNL     1      38.569 -43.922 -10.256  0.00  0.00    -0.332 OA
ATOM     32  H   UNL     1      38.388 -43.622 -11.139  0.00  0.00    +0.250 HD
ENDBRANCH  30  31
ENDBRANCH  24  25
BRANCH   8   9
ATOM      9  C   UNL     1      41.836 -50.903 -10.010  0.00  0.00    +0.235 C 
BRANCH   9  10
ATOM     10  C   UNL     1      42.797 -51.251 -11.099  0.00  0.00    -0.022 A 
ATOM     11  C   UNL     1      42.310 -51.429 -12.356  0.00  0.00    -0.010 A 
ATOM     12  C   UNL     1      43.157 -51.751 -13.373  0.00  0.00    -0.011 A 
ATOM     13  C   UNL     1      44.492 -51.921 -13.139  0.00  0.00    -0.028 A 
ATOM     22  C   UNL     1      44.994 -51.734 -11.880  0.00  0.00    -0.011 A 
ATOM     23  C   UNL     1      44.136 -51.420 -10.855  0.00  0.00    -0.010 A 
BRANCH  13  14
ATOM     14  C   UNL     1      45.376 -52.254 -14.308  0.00  0.00    +0.196 C 
BRANCH  14  15
ATOM     15  N   UNL     1      45.596 -53.675 -14.523  0.00  0.00    -0.272 N 
ATOM     16  H   UNL     1      44.872 -54.249 -14.905  0.00  0.00    +0.188 HD
ATOM     17  C   UNL     1      46.756 -54.190 -14.209  0.00  0.00    +0.245 C 
ATOM     21  O   UNL     1      47.651 -53.566 -13.690  0.00  0.00    -0.391 OA
BRANCH  17  18
ATOM     18  C   UNL     1      46.974 -55.634 -14.459  0.00  0.00    +0.454 C 
ATOM     19  F   UNL     1      47.746 -56.087 -13.433  0.00  0.00    -0.185 F 
ATOM     20  F   UNL     1      45.784 -56.270 -14.466  0.00  0.00    -0.185 F 
ENDBRANCH  17  18
ENDBRANCH  14  15
ENDBRANCH  13  14
ENDBRANCH   9  10
ENDBRANCH   8   9
TORSDOF 10
