REMARK  Name = 4ckj_ligand
REMARK  6 active torsions:
REMARK  status: ('A' for Active; 'I' for Inactive)
REMARK    1  A    between atoms: O5'_1  and  C5'_2
REMARK    2  A    between atoms: C5'_2  and  C4'_3
REMARK    3  A    between atoms: C3'_5  and  O3'_6
REMARK    4  A    between atoms: C2'_7  and  O2'_8
REMARK    5  A    between atoms: C1'_9  and  N9_10
REMARK    6  A    between atoms: C6_14  and  N6_15
REMARK                            x       y       z     vdW  Elec       q    Type
REMARK                         _______ _______ _______ _____ _____    ______ ____
ROOT
ATOM      4  C4*   A A   1      29.242  10.859   8.662  0.00  0.00    +0.178 C 
ATOM      5  C3*   A A   1      29.377  10.761  10.177  0.00  0.00    +0.179 C 
ATOM      6  C2*   A A   1      28.393  11.780  10.682  0.00  0.00    +0.206 C 
ATOM      7  C1*   A A   1      27.282  11.693   9.641  0.00  0.00    +0.301 C 
ATOM     24  O4*   A A   1      27.847  11.196   8.447  0.00  0.00    -0.337 OA
ENDROOT
BRANCH   7   8
ATOM      8  N9    A A   1      26.183  10.786  10.006  0.00  0.00    -0.192 N 
ATOM      9  C4    A A   1      25.035  11.147  10.647  0.00  0.00    +0.161 A 
ATOM     10  N3    A A   1      24.749  12.363  11.160  0.00  0.00    -0.271 NA
ATOM     11  C2    A A   1      23.578  12.337  11.793  0.00  0.00    +0.153 A 
ATOM     12  N1    A A   1      22.733  11.311  11.952  0.00  0.00    -0.270 NA
ATOM     13  C6    A A   1      23.046  10.105  11.413  0.00  0.00    +0.130 A 
ATOM     17  C5    A A   1      24.270  10.000  10.743  0.00  0.00    +0.105 A 
ATOM     18  N7    A A   1      24.939   8.911  10.167  0.00  0.00    -0.296 NA
ATOM     19  C8    A A   1      26.055   9.438   9.733  0.00  0.00    +0.247 A 
BRANCH  13  14
ATOM     14  N6    A A   1      22.190   9.094  11.583  0.00  0.00    -0.315 N 
ATOM     15  H61   A A   1      22.414   8.161  11.209  0.00  0.00    +0.182 HD
ATOM     16  H62   A A   1      21.306   9.247  12.088  0.00  0.00    +0.182 HD
ENDBRANCH  13  14
ENDBRANCH   7   8
BRANCH   6  20
ATOM     20  O2*   A A   1      28.990  13.069  10.555  0.00  0.00    -0.384 OA
ATOM     21  H2*   A A   1      29.788  13.099  11.070  0.00  0.00    +0.210 HD
ENDBRANCH   6  20
BRANCH   5  22
ATOM     22  O3*   A A   1      30.678  11.097  10.589  0.00  0.00    -0.386 OA
ATOM     23  H3*   A A   1      30.874  11.988  10.322  0.00  0.00    +0.210 HD
ENDBRANCH   5  22
BRANCH   4   3
ATOM      3  C5*   A A   1      29.574   9.603   7.900  0.00  0.00    +0.190 C 
BRANCH   3   1
ATOM      1  O5*   A A   1      29.190   8.464   8.656  0.00  0.00    -0.392 OA
ATOM      2  H5*   A A   1      29.657   8.462   9.483  0.00  0.00    +0.209 HD
ENDBRANCH   3   1
ENDBRANCH   4   3
TORSDOF 6
