REMARK  Name = 4l53_ligand
REMARK  4 active torsions:
REMARK  status: ('A' for Active; 'I' for Inactive)
REMARK    1  A    between atoms: O1_1  and  C2_2
REMARK    2  A    between atoms: C6_5  and  N10_8
REMARK    3  A    between atoms: C12_10  and  C15_13
REMARK    4  A    between atoms: C22_20  and  C23_21
REMARK                            x       y       z     vdW  Elec       q    Type
REMARK                         _______ _______ _______ _____ _____    ______ ____
ROOT
ATOM     11  C   UNL     1     -16.098 -48.499 -16.744  0.00  0.00    -0.033 A 
ATOM     12  C   UNL     1     -14.802 -49.126 -16.815  0.00  0.00    +0.012 A 
ATOM     13  C   UNL     1     -14.135 -50.260 -17.495  0.00  0.00    +0.064 A 
ATOM     14 CL   UNL     1     -14.824 -51.415 -18.595  0.00  0.00    -0.096 Cl
ATOM     15  C   UNL     1     -12.827 -50.248 -17.097  0.00  0.00    +0.141 A 
ATOM     25  O   UNL     1     -12.655 -49.239 -16.246  0.00  0.00    -0.248 OA
ATOM     26  C   UNL     1     -13.766 -48.540 -16.050  0.00  0.00    +0.167 A 
ATOM     27  C   UNL     1     -13.990 -47.421 -15.260  0.00  0.00    +0.137 A 
ATOM     28  N   UNL     1     -12.948 -46.879 -14.500  0.00  0.00    -0.326 N 
ATOM     29  H   UNL     1     -13.117 -46.052 -13.910  0.00  0.00    +0.174 HD
ATOM     30  H   UNL     1     -12.012 -47.307 -14.530  0.00  0.00    +0.174 HD
ATOM     31  N   UNL     1     -15.186 -46.882 -15.228  0.00  0.00    -0.310 NA
ATOM     32  C   UNL     1     -16.201 -47.364 -15.925  0.00  0.00    +0.036 A 
ENDROOT
BRANCH  15  16
ATOM     16  C   UNL     1     -11.686 -51.108 -17.489  0.00  0.00    +0.043 A 
ATOM     17  C   UNL     1     -10.502 -50.984 -16.749  0.00  0.00    +0.090 A 
ATOM     18  S   UNL     1     -10.012 -50.017 -15.359  0.00  0.00    +0.064 S 
ATOM     19  N   UNL     1      -8.554 -50.585 -15.284  0.00  0.00    -0.119 NA
ATOM     20  N   UNL     1      -8.364 -51.450 -16.199  0.00  0.00    -0.163 NA
ATOM     21  C   UNL     1      -9.351 -51.743 -17.054  0.00  0.00    +0.102 A 
ATOM     22  C   UNL     1      -9.413 -52.641 -18.142  0.00  0.00    +0.031 A 
ATOM     23  C   UNL     1     -10.568 -52.752 -18.886  0.00  0.00    -0.002 A 
ATOM     24  C   UNL     1     -11.696 -51.996 -18.584  0.00  0.00    +0.015 A 
ENDBRANCH  15  16
BRANCH  11  10
ATOM      7  N   UNL     1     -19.435 -49.073 -18.160  0.00  0.00    -0.202 N 
ATOM      8  N   UNL     1     -18.638 -49.705 -19.117  0.00  0.00    -0.214 NA
ATOM      9  C   UNL     1     -17.388 -49.578 -18.745  0.00  0.00    +0.071 A 
ATOM     10  C   UNL     1     -17.325 -48.895 -17.508  0.00  0.00    -0.006 A 
ATOM     33  C   UNL     1     -18.625 -48.583 -17.199  0.00  0.00    +0.162 A 
BRANCH   7   6
ATOM      3  C   UNL     1     -23.460 -48.335 -19.459  0.00  0.00    +0.115 C 
ATOM      4  C   UNL     1     -23.046 -49.777 -19.153  0.00  0.00    +0.034 C 
ATOM      5  C   UNL     1     -21.520 -49.900 -19.207  0.00  0.00    +0.042 C 
ATOM      6  C   UNL     1     -20.899 -48.981 -18.196  0.00  0.00    +0.151 C 
ATOM     34  C   UNL     1     -21.296 -47.534 -18.475  0.00  0.00    +0.042 C 
ATOM     35  C   UNL     1     -22.821 -47.399 -18.429  0.00  0.00    +0.034 C 
BRANCH   3   1
ATOM      1  O   UNL     1     -24.883 -48.221 -19.390  0.00  0.00    -0.392 OA
ATOM      2  H   UNL     1     -25.278 -48.802 -20.029  0.00  0.00    +0.210 HD
ENDBRANCH   3   1
ENDBRANCH   7   6
ENDBRANCH  11  10
TORSDOF 4
