REMARK  Name = 8PX
REMARK  5 active torsions:
REMARK  status: ('A' for Active; 'I' for Inactive)
REMARK    1  A    between atoms: OAI_2  and  CAD_3
REMARK    2  A    between atoms: CAC_12  and  NAH_13
REMARK    3  A    between atoms: NAH_13  and  SAM_14
REMARK    4  A    between atoms: SAM_14  and  CAP_17
REMARK    5  A    between atoms: CAQ_23  and  OAV_24
REMARK                            x       y       z     vdW  Elec       q    Type
REMARK                         _______ _______ _______ _____ _____    ______ ____
ROOT
ATOM      3  C   UNL     1      12.613   8.494   2.013  0.00  0.00    +0.158 A 
ATOM      4  C   UNL     1      13.620   7.591   1.648  0.00  0.00    +0.078 A 
ATOM      5  C   UNL     1      13.447   6.699   0.679  0.00  0.00    +0.180 A 
ATOM      6  O   UNL     1      14.305   5.783   0.219  0.00  0.00    -0.354 OA
ATOM      7  N   UNL     1      13.558   5.061  -0.822  0.00  0.00    -0.081 NA
ATOM      8  C   UNL     1      12.374   5.637  -0.882  0.00  0.00    +0.101 A 
ATOM      9  C   UNL     1      11.372   5.158  -1.867  0.00  0.00    +0.056 C 
ATOM     10  C   UNL     1      12.261   6.622   0.002  0.00  0.00    +0.055 A 
ATOM     11  C   UNL     1      11.255   7.459   0.333  0.00  0.00    +0.026 A 
ATOM     12  C   UNL     1      11.400   8.425   1.339  0.00  0.00    +0.125 A 
ENDROOT
BRANCH   3   2
ATOM      1  C   UNL     1      13.970   9.586   3.728  0.00  0.00    +0.253 C 
ATOM      2  O   UNL     1      12.727   9.463   3.000  0.00  0.00    -0.470 OA
ENDBRANCH   3   2
BRANCH  12  13
ATOM     13  N   UNL     1      10.463   9.378   1.668  0.00  0.00    -0.093 NA
BRANCH  13  14
ATOM     14  S   UNL     1       8.910   9.012   2.176  0.00  0.00    +0.096 S 
ATOM     23  O   UNL     1       8.168  10.323   2.483  0.00  0.00    -0.148 OA
ATOM     24  O   UNL     1       8.241   8.055   1.247  0.00  0.00    -0.148 OA
BRANCH  14  15
ATOM     15  C   UNL     1       9.207   8.258   3.784  0.00  0.00    +0.161 A 
ATOM     16  C   UNL     1       9.822   8.939   4.861  0.00  0.00    +0.158 A 
ATOM     17  C   UNL     1      10.017   8.241   6.059  0.00  0.00    +0.038 A 
ATOM     18  C   UNL     1       9.618   6.908   6.177  0.00  0.00    +0.003 A 
ATOM     19  C   UNL     1       9.014   6.260   5.124  0.00  0.00    +0.002 A 
ATOM     22  C   UNL     1       8.837   6.929   3.931  0.00  0.00    +0.023 A 
BRANCH  16  20
ATOM     20  O   UNL     1      10.184  10.292   4.664  0.00  0.00    -0.470 OA
ATOM     21  C   UNL     1      10.628  11.067   5.716  0.00  0.00    +0.253 C 
ENDBRANCH  16  20
ENDBRANCH  14  15
ENDBRANCH  13  14
ENDBRANCH  12  13
TORSDOF 5
