REMARK  Name = 4W4X
REMARK  6 active torsions:
REMARK  status: ('A' for Active; 'I' for Inactive)
REMARK    1  A    between atoms: C_2  and  C_3
REMARK    2  A    between atoms: C_5  and  N_6
REMARK    3  A    between atoms: C_7  and  C_9
REMARK    4  A    between atoms: C_12  and  N_14
REMARK    5  A    between atoms: C_16  and  N_17
REMARK    6  A    between atoms: N_20  and  C_21
REMARK                            x       y       z     vdW  Elec       q    Type
REMARK                         _______ _______ _______ _____ _____    ______ ____
ROOT
ATOM      4  N   UNL     1      -4.221  29.385 -31.752  0.00  0.00    -0.238 N 
ATOM      5  N   UNL     1      -5.350  29.890 -32.296  0.00  0.00    -0.173 NA
ATOM      6  C   UNL     1      -6.076  28.893 -32.839  0.00  0.00    +0.158 A 
ATOM      7  C   UNL     1      -5.373  27.719 -32.649  0.00  0.00    +0.073 A 
ATOM     21  C   UNL     1      -4.192  28.071 -32.014  0.00  0.00    +0.138 A 
ENDROOT
BRANCH   4   3
ATOM      1  C   UNL     1      -1.364  30.264 -29.639  0.00  0.00    +0.003 A 
ATOM      2  C   UNL     1      -2.488  29.588 -30.114  0.00  0.00    +0.028 A 
ATOM      3  C   UNL     1      -3.190  30.066 -31.210  0.00  0.00    +0.066 A 
ATOM     22  C   UNL     1      -2.715  31.182 -31.870  0.00  0.00    +0.041 A 
ATOM     23  C   UNL     1      -1.623  31.895 -31.375  0.00  0.00    +0.039 A 
ATOM     35  C   UNL     1      -0.912  31.406 -30.279  0.00  0.00    +0.013 A 
BRANCH  23  24
ATOM     24  C   UNL     1      -1.152  33.116 -32.141  0.00  0.00    +0.248 C 
ATOM     25  O   UNL     1       0.043  33.321 -32.279  0.00  0.00    -0.270 OA
ATOM     26  N   UNL     1      -2.160  33.934 -32.718  0.00  0.00    -0.281 N 
ATOM     27  H   UNL     1      -3.030  33.700 -32.575  0.00  0.00    +0.155 HD
BRANCH  26  28
ATOM     28  C   UNL     1      -1.953  35.087 -33.512  0.00  0.00    +0.037 A 
ATOM     29  C   UNL     1      -0.958  35.179 -34.478  0.00  0.00    +0.043 A 
ATOM     30  C   UNL     1      -0.915  36.271 -35.338  0.00  0.00    +0.113 A 
ATOM     31  N   UNL     1      -1.883  37.206 -35.279  0.00  0.00    -0.260 NA
ATOM     32  C   UNL     1      -2.897  37.101 -34.388  0.00  0.00    +0.040 A 
ATOM     33  C   UNL     1      -3.988  38.155 -34.336  0.00  0.00    +0.065 C 
ATOM     34  C   UNL     1      -2.961  36.037 -33.505  0.00  0.00    +0.046 A 
ENDBRANCH  26  28
ENDBRANCH  23  24
ENDBRANCH   4   3
BRANCH   7   8
ATOM      8  N   UNL     1      -5.790  26.424 -33.071  0.00  0.00    -0.267 N 
ATOM      9  H   UNL     1      -6.480  26.394 -33.662  0.00  0.00    +0.157 HD
ATOM     10  C   UNL     1      -5.142  25.211 -32.663  0.00  0.00    +0.308 C 
ATOM     11  N   UNL     1      -5.524  23.914 -33.070  0.00  0.00    -0.269 N 
ATOM     12  H   UNL     1      -5.052  23.195 -32.755  0.00  0.00    +0.156 HD
ATOM     20  O   UNL     1      -4.226  25.226 -31.883  0.00  0.00    -0.252 OA
BRANCH  11  13
ATOM     13  C   UNL     1      -6.533  23.679 -34.018  0.00  0.00    +0.035 A 
ATOM     14  C   UNL     1      -6.433  24.340 -35.256  0.00  0.00    +0.026 A 
ATOM     15  C   UNL     1      -7.413  24.178 -36.208  0.00  0.00    +0.040 A 
ATOM     16  C   UNL     1      -8.409  23.250 -35.967  0.00  0.00    +0.124 A 
ATOM     17  F   UNL     1      -9.343  23.133 -36.911  0.00  0.00    -0.205 F 
ATOM     18  C   UNL     1      -8.445  22.480 -34.776  0.00  0.00    +0.040 A 
ATOM     19  C   UNL     1      -7.471  22.662 -33.801  0.00  0.00    +0.026 A 
ENDBRANCH  11  13
ENDBRANCH   7   8
TORSDOF 5
