REMARK  Name = 6BLE
REMARK  7 active torsions:
REMARK  status: ('A' for Active; 'I' for Inactive)
REMARK    1  A    between atoms: C_1  and  O_2
REMARK    2  A    between atoms: O_2  and  C_3
REMARK    3  A    between atoms: C_3  and  C_4
REMARK    4  A    between atoms: C_4  and  O_5
REMARK    5  A    between atoms: O_5  and  C_6
REMARK    6  A    between atoms: C_22  and  N_23
REMARK    7  A    between atoms: C_26  and  N_29
REMARK                            x       y       z     vdW  Elec       q    Type
REMARK                         _______ _______ _______ _____ _____    ______ ____
ROOT
ATOM      6  C   UNL     1      -0.142   0.993  23.884  0.00  0.00    +0.123 A 
ATOM      7  C   UNL     1       0.532   2.133  24.365  0.00  0.00    +0.048 A 
ATOM      8  C   UNL     1      -0.088   3.365  24.396  0.00  0.00    +0.032 A 
ATOM      9  C   UNL     1      -1.400   3.437  23.944  0.00  0.00    +0.075 A 
ATOM     10  N   UNL     1      -2.307   4.485  23.822  0.00  0.00    -0.283 N 
ATOM     11  C   UNL     1      -2.121   5.842  24.231  0.00  0.00    +0.140 A 
ATOM     12  C   UNL     1      -3.225   6.658  24.513  0.00  0.00    +0.047 A 
ATOM     13  C   UNL     1      -3.014   7.916  24.985  0.00  0.00    +0.013 A 
ATOM     14  C   UNL     1      -1.704   8.398  25.151  0.00  0.00    +0.002 A 
ATOM     15  C   UNL     1      -1.451   9.701  25.629  0.00  0.00    +0.010 A 
ATOM     16  C   UNL     1      -0.174  10.126  25.825  0.00  0.00    +0.003 A 
ATOM     17  C   UNL     1       0.911   9.299  25.492  0.00  0.00    +0.025 A 
ATOM     18  C   UNL     1       0.708   8.001  25.019  0.00  0.00    +0.056 A 
ATOM     28  C   UNL     1      -0.629   7.536  24.832  0.00  0.00    +0.094 A 
ATOM     29  N   UNL     1      -0.880   6.269  24.366  0.00  0.00    -0.227 NA
ATOM     30  C   UNL     1      -3.473   3.949  23.325  0.00  0.00    +0.206 A 
ATOM     31  N   UNL     1      -3.356   2.667  23.076  0.00  0.00    -0.235 NA
ATOM     32  C   UNL     1      -2.072   2.319  23.460  0.00  0.00    +0.093 A 
ATOM     33  C   UNL     1      -1.440   1.079  23.422  0.00  0.00    +0.075 A 
ENDROOT
BRANCH  18  19
ATOM     19  N   UNL     1       1.831   7.256  24.616  0.00  0.00    -0.328 N 
ATOM     20  C   UNL     1       3.117   7.368  25.341  0.00  0.00    +0.106 C 
ATOM     21  C   UNL     1       4.148   6.304  25.022  0.00  0.00    +0.037 C 
ATOM     22  C   UNL     1       4.232   6.028  23.540  0.00  0.00    +0.054 C 
ATOM     26  C   UNL     1       2.873   5.610  23.046  0.00  0.00    +0.037 C 
ATOM     27  C   UNL     1       1.895   6.731  23.238  0.00  0.00    +0.106 C 
BRANCH  22  23
ATOM     23  N   UNL     1       5.216   4.978  23.218  0.00  0.00    -0.327 NA
ATOM     24  H   UNL     1       4.930   4.063  23.693  0.00  0.00    +0.118 HD
ATOM     25  H   UNL     1       5.251   4.834  22.158  0.00  0.00    +0.118 HD
ENDBRANCH  22  23
ENDBRANCH  18  19
BRANCH   6   5
ATOM      5  O   UNL     1       0.540  -0.198  23.882  0.00  0.00    -0.490 OA
BRANCH   5   4
ATOM      4  C   UNL     1      -0.177  -1.399  23.556  0.00  0.00    +0.257 C 
BRANCH   4   3
ATOM      3  C   UNL     1       0.742  -2.563  23.693  0.00  0.00    +0.200 C 
BRANCH   3   2
ATOM      1  C   UNL     1       2.782  -3.415  22.822  0.00  0.00    +0.194 C 
ATOM      2  O   UNL     1       1.960  -2.279  23.054  0.00  0.00    -0.380 OA
ENDBRANCH   3   2
ENDBRANCH   4   3
ENDBRANCH   5   4
ENDBRANCH   6   5
TORSDOF 6
