REMARK  Name = 3byu_ligand
REMARK  10 active torsions:
REMARK  status: ('A' for Active; 'I' for Inactive)
REMARK    1  A    between atoms: C11_3  and  N3_4
REMARK    2  A    between atoms: C7_5  and  C14_6
REMARK    3  A    between atoms: C17_10  and  C20_12
REMARK    4  A    between atoms: C16_11  and  C27_31
REMARK    5  A    between atoms: C13_17  and  C8_27
REMARK    6  A    between atoms: C21_18  and  C22_19
REMARK    7  A    between atoms: C24_22  and  N6_26
REMARK    8  A    between atoms: N7_29  and  C5_36
REMARK    9  A    between atoms: C29_33  and  N5_42
REMARK   10  A    between atoms: N2_39  and  C2_44
REMARK                            x       y       z     vdW  Elec       q    Type
REMARK                         _______ _______ _______ _____ _____    ______ ____
ROOT
ATOM      5  C   UNL     1      19.647  -1.476  41.277  0.00  0.00    +0.224 C 
ATOM      6  O   UNL     1      20.257  -0.564  41.830  0.00  0.00    -0.377 OA
ATOM      7  N   UNL     1      20.157  -2.415  40.394  0.00  0.00    -0.230 N 
ATOM      8  H   UNL     1      19.510  -3.045  39.965  0.00  0.00    +0.225 HD
ENDROOT
BRANCH   7   9
ATOM      9  C   UNL     1      21.449  -2.543  40.072  0.00  0.00    +0.106 A 
ATOM     10  C   UNL     1      22.432  -1.944  40.917  0.00  0.00    +0.115 A 
ATOM     11  N   UNL     1      23.634  -2.108  40.539  0.00  0.00    -0.265 NA
ATOM     12  C   UNL     1      23.977  -2.807  39.400  0.00  0.00    +0.197 A 
ATOM     13  N   UNL     1      25.221  -2.884  39.107  0.00  0.00    -0.256 N 
ATOM     14  H   UNL     1      25.544  -3.649  38.498  0.00  0.00    +0.210 HD
ATOM     29  N   UNL     1      23.134  -3.394  38.569  0.00  0.00    -0.265 NA
ATOM     30  C   UNL     1      21.846  -3.276  38.886  0.00  0.00    +0.115 A 
BRANCH  13  15
ATOM     15  C   UNL     1      26.109  -2.006  39.566  0.00  0.00    +0.050 A 
ATOM     16  C   UNL     1      25.881  -0.623  40.029  0.00  0.00    +0.001 A 
ATOM     17  C   UNL     1      27.016   0.109  40.456  0.00  0.00    -0.004 A 
ATOM     18  C   UNL     1      28.345  -0.549  40.381  0.00  0.00    +0.029 A 
ATOM     27  C   UNL     1      28.485  -1.962  39.890  0.00  0.00    -0.004 A 
ATOM     28  C   UNL     1      27.297  -2.758  39.458  0.00  0.00    +0.001 A 
BRANCH  18  19
ATOM     19  N   UNL     1      29.384   0.242  40.771  0.00  0.00    -0.305 N 
ATOM     20  C   UNL     1      29.378   1.424  41.786  0.00  0.00    +0.177 C 
ATOM     21  C   UNL     1      30.137   1.003  42.961  0.00  0.00    +0.154 C 
ATOM     22  N   UNL     1      31.482   0.741  42.321  0.00  0.00    +0.236 N 
ATOM     23  H   UNL     1      31.860   1.549  41.852  0.00  0.00    +0.203 HD
ATOM     24  C   UNL     1      32.154   0.325  43.522  0.00  0.00    +0.190 C 
ATOM     25  C   UNL     1      31.592  -0.511  41.480  0.00  0.00    +0.154 C 
ATOM     26  C   UNL     1      30.828  -0.075  40.367  0.00  0.00    +0.177 C 
ENDBRANCH  18  19
ENDBRANCH  13  15
ENDBRANCH   7   9
BRANCH   5   4
ATOM      1  C   UNL     1      16.411  -2.668  42.829  0.00  0.00    -0.014 A 
ATOM      2  C   UNL     1      17.797  -2.565  42.491  0.00  0.00    -0.040 A 
ATOM      3  C   UNL     1      18.838  -3.497  43.068  0.00  0.00    +0.079 C 
ATOM      4  C   UNL     1      18.255  -1.589  41.562  0.00  0.00    +0.044 A 
ATOM     31  C   UNL     1      17.392  -0.674  40.905  0.00  0.00    +0.026 A 
ATOM     32  C   UNL     1      16.008  -0.793  41.234  0.00  0.00    +0.065 A 
ATOM     48  C   UNL     1      15.515  -1.763  42.184  0.00  0.00    +0.010 A 
BRANCH  32  33
ATOM     33  N   UNL     1      15.081  -0.014  40.586  0.00  0.00    -0.237 N 
ATOM     34  H   UNL     1      14.165  -0.016  40.987  0.00  0.00    +0.223 HD
ATOM     35  C   UNL     1      15.236   0.786  39.439  0.00  0.00    +0.233 C 
ATOM     36  O   UNL     1      16.274   0.961  38.793  0.00  0.00    -0.377 OA
BRANCH  35  37
ATOM     37  C   UNL     1      14.042   1.469  39.011  0.00  0.00    +0.087 A 
ATOM     38  C   UNL     1      13.711   1.548  37.594  0.00  0.00    +0.009 A 
ATOM     39  C   UNL     1      14.569   0.876  36.539  0.00  0.00    +0.134 C 
ATOM     40  C   UNL     1      12.528   2.275  37.197  0.00  0.00    +0.055 A 
ATOM     45  C   UNL     1      11.730   2.883  38.246  0.00  0.00    +0.051 A 
ATOM     46  C   UNL     1      12.059   2.796  39.625  0.00  0.00    +0.032 A 
ATOM     47  C   UNL     1      13.219   2.087  40.004  0.00  0.00    +0.068 A 
BRANCH  40  41
ATOM     41  C   UNL     1      12.070   2.448  35.707  0.00  0.00    +0.372 C 
ATOM     42  F   UNL     1      13.095   2.944  34.977  0.00  0.00    -0.226 F 
ATOM     43  F   UNL     1      11.522   1.312  35.252  0.00  0.00    -0.226 F 
ATOM     44  F   UNL     1      11.130   3.303  35.499  0.00  0.00    -0.226 F 
ENDBRANCH  40  41
ENDBRANCH  35  37
ENDBRANCH  32  33
ENDBRANCH   5   4
TORSDOF 7
