REMARK  Name = 5EKO
REMARK  6 active torsions:
REMARK  status: ('A' for Active; 'I' for Inactive)
REMARK    1  A    between atoms: C_2  and  C_3
REMARK    2  A    between atoms: C_8  and  N_9
REMARK    3  A    between atoms: C_13  and  C_14
REMARK    4  A    between atoms: N_15  and  C_16
REMARK    5  A    between atoms: C_19  and  O_22
REMARK    6  A    between atoms: O_22  and  C_23
REMARK                            x       y       z     vdW  Elec       q    Type
REMARK                         _______ _______ _______ _____ _____    ______ ____
ROOT
ATOM      1  O   UNL     1     -13.176  12.439 -26.447  0.00  0.00    -0.270 OA
ATOM      2  C   UNL     1     -13.989  11.551 -26.260  0.00  0.00    +0.248 C 
ATOM      3  N   UNL     1     -14.198  10.549 -27.122  0.00  0.00    -0.281 N 
ATOM      4  H   UNL     1     -14.947   9.830 -26.864  0.00  0.00    +0.155 HD
ENDROOT
BRANCH   3   5
ATOM      5  C   UNL     1     -13.537  10.366 -28.302  0.00  0.00    +0.034 A 
ATOM      6  C   UNL     1     -14.219   9.822 -29.387  0.00  0.00    +0.027 A 
ATOM      7  C   UNL     1     -13.569   9.596 -30.598  0.00  0.00    +0.048 A 
ATOM      8  C   UNL     1     -12.225   9.914 -30.741  0.00  0.00    +0.129 A 
ATOM     16  C   UNL     1     -11.525  10.431 -29.658  0.00  0.00    +0.048 A 
ATOM     17  C   UNL     1     -12.179  10.647 -28.447  0.00  0.00    +0.027 A 
BRANCH   8   9
ATOM      9  O   UNL     1     -11.592   9.674 -31.931  0.00  0.00    -0.456 OA
BRANCH   9  10
ATOM     10  C   UNL     1     -11.144  10.667 -32.759  0.00  0.00    +0.131 A 
ATOM     11  C   UNL     1     -10.094  10.403 -33.632  0.00  0.00    +0.066 A 
ATOM     12  C   UNL     1      -9.644  11.417 -34.477  0.00  0.00    +0.114 A 
ATOM     13  N   UNL     1     -10.213  12.626 -34.447  0.00  0.00    -0.263 NA
ATOM     14  C   UNL     1     -11.226  12.907 -33.612  0.00  0.00    +0.114 A 
ATOM     15  C   UNL     1     -11.721  11.933 -32.753  0.00  0.00    +0.066 A 
ENDBRANCH   9  10
ENDBRANCH   8   9
ENDBRANCH   3   5
BRANCH   2  18
ATOM     18  C   UNL     1     -14.797  11.615 -24.993  0.00  0.00    +0.039 A 
ATOM     19  C   UNL     1     -15.191  10.458 -24.330  0.00  0.00    +0.039 A 
ATOM     20  C   UNL     1     -15.940  10.477 -23.145  0.00  0.00    +0.048 A 
ATOM     27  C   UNL     1     -16.284  11.741 -22.668  0.00  0.00    +0.026 A 
ATOM     28  C   UNL     1     -15.912  12.910 -23.316  0.00  0.00    +0.003 A 
ATOM     29  C   UNL     1     -15.165  12.849 -24.482  0.00  0.00    +0.013 A 
BRANCH  20  21
ATOM     21  N   UNL     1     -16.301   9.349 -22.526  0.00  0.00    -0.306 N 
ATOM     22  C   UNL     1     -17.027   9.323 -21.402  0.00  0.00    +0.204 A 
ATOM     23  N   UNL     1     -17.159   8.002 -21.108  0.00  0.00    -0.241 NA
ATOM     24  C   UNL     1     -16.512   7.319 -22.082  0.00  0.00    +0.056 A 
ATOM     25  C   UNL     1     -16.280   5.861 -22.365  0.00  0.00    +0.067 C 
ATOM     26  C   UNL     1     -15.947   8.166 -23.015  0.00  0.00    +0.115 A 
ENDBRANCH  20  21
ENDBRANCH   2  18
TORSDOF 5
