REMARK  Name = 5EI8
REMARK  7 active torsions:
REMARK  status: ('A' for Active; 'I' for Inactive)
REMARK    1  A    between atoms: C_1  and  N_2
REMARK    2  A    between atoms: C_6  and  C_7
REMARK    3  A    between atoms: N_17  and  C_18
REMARK    4  A    between atoms: C_19  and  O_20
REMARK    5  A    between atoms: O_20  and  C_21
REMARK    6  A    between atoms: C_23  and  C_26
REMARK    7  A    between atoms: N_29  and  C_30
REMARK                            x       y       z     vdW  Elec       q    Type
REMARK                         _______ _______ _______ _____ _____    ______ ____
ROOT
ATOM      6  C   UNL     1       1.921 -34.299 -12.739  0.00  0.00    +0.098 C 
ATOM      7  C   UNL     1       1.305 -33.511 -11.740  0.00  0.00    +0.077 C 
ATOM      8  N   UNL     1       0.526 -34.118 -10.804  0.00  0.00    -0.322 N 
ATOM      9  H   UNL     1       0.404 -35.181 -10.774  0.00  0.00    +0.169 HD
ATOM     10  C   UNL     1      -0.082 -33.308  -9.918  0.00  0.00    +0.229 C 
ATOM     11  N   UNL     1      -0.843 -33.912  -8.971  0.00  0.00    -0.209 NA
ATOM     26  N   UNL     1      -0.003 -31.966  -9.866  0.00  0.00    -0.220 NA
ATOM     27  C   UNL     1       0.761 -31.404 -10.774  0.00  0.00    +0.124 C 
ATOM     28  C   UNL     1       1.474 -32.111 -11.765  0.00  0.00    +0.020 C 
ATOM     29  C   UNL     1       2.256 -31.559 -12.797  0.00  0.00    +0.031 C 
ATOM     30  C   UNL     1       2.812 -32.400 -13.708  0.00  0.00    +0.112 C 
ATOM     31  N   UNL     1       2.659 -33.736 -13.690  0.00  0.00    -0.253 NA
ENDROOT
BRANCH   6   5
ATOM      1  C   UNL     1       1.038 -39.072 -11.708  0.00  0.00    +0.172 C 
ATOM      2  N   UNL     1       1.359 -37.817 -12.374  0.00  0.00    -0.274 N 
ATOM      3  N   UNL     1       1.585 -37.809 -13.697  0.00  0.00    -0.179 NA
ATOM      4  C   UNL     1       1.830 -36.543 -13.977  0.00  0.00    +0.144 A 
ATOM      5  C   UNL     1       1.760 -35.730 -12.837  0.00  0.00    +0.040 A 
ATOM     32  C   UNL     1       1.457 -36.603 -11.823  0.00  0.00    +0.118 A 
ENDBRANCH   6   5
BRANCH  11  12
ATOM     12  C   UNL     1      -1.074 -35.249  -8.658  0.00  0.00    +0.109 A 
ATOM     13  C   UNL     1      -1.246 -36.227  -9.632  0.00  0.00    +0.032 A 
ATOM     14  C   UNL     1      -1.526 -37.529  -9.261  0.00  0.00    +0.011 A 
ATOM     15  C   UNL     1      -1.639 -37.877  -7.921  0.00  0.00    -0.011 A 
ATOM     22  C   UNL     1      -1.448 -36.908  -6.943  0.00  0.00    +0.056 A 
ATOM     23  C   UNL     1      -1.168 -35.605  -7.308  0.00  0.00    +0.146 A 
BRANCH  15  16
ATOM     16  C   UNL     1      -2.005 -39.258  -7.514  0.00  0.00    +0.020 A 
ATOM     17  C   UNL     1      -2.066 -40.405  -8.265  0.00  0.00    +0.116 A 
ATOM     18  N   UNL     1      -2.465 -41.384  -7.444  0.00  0.00    -0.274 N 
ATOM     19  C   UNL     1      -2.683 -42.786  -7.773  0.00  0.00    +0.172 C 
ATOM     20  N   UNL     1      -2.672 -40.960  -6.188  0.00  0.00    -0.179 NA
ATOM     21  C   UNL     1      -2.393 -39.670  -6.230  0.00  0.00    +0.143 A 
ENDBRANCH  15  16
BRANCH  23  24
ATOM     24  O   UNL     1      -0.953 -34.580  -6.430  0.00  0.00    -0.493 OA
ATOM     25  C   UNL     1      -1.428 -34.736  -5.097  0.00  0.00    +0.277 C 
ENDBRANCH  23  24
ENDBRANCH  11  12
TORSDOF 4
