REMARK  Name = 5F95
REMARK  4 active torsions:
REMARK  status: ('A' for Active; 'I' for Inactive)
REMARK    1  A    between atoms: C_1  and  C_7
REMARK    2  A    between atoms: N_9  and  C_16
REMARK    3  A    between atoms: C_11  and  C_12
REMARK    4  A    between atoms: C_21  and  C_22
REMARK                            x       y       z     vdW  Elec       q    Type
REMARK                         _______ _______ _______ _____ _____    ______ ____
ROOT
ATOM      2  C   UNL     1      76.444  -2.380 141.512  0.00  0.00    +0.249 C 
ATOM      3  O   UNL     1      76.059  -3.445 141.036  0.00  0.00    -0.270 OA
ATOM      4  N   UNL     1      76.091  -1.949 142.743  0.00  0.00    -0.280 N 
ATOM      5  H   UNL     1      76.614  -1.095 143.119  0.00  0.00    +0.155 HD
ENDROOT
BRANCH   2   1
ATOM      1  C   UNL     1      77.315  -1.459 140.723  0.00  0.00    +0.042 A 
ATOM     18  C   UNL     1      77.793  -1.902 139.498  0.00  0.00    +0.033 A 
ATOM     19  C   UNL     1      78.536  -1.040 138.725  0.00  0.00    +0.113 A 
ATOM     20  N   UNL     1      78.830   0.213 139.088  0.00  0.00    -0.240 NA
ATOM     21  C   UNL     1      78.376   0.638 140.277  0.00  0.00    +0.126 A 
ATOM     22  N   UNL     1      78.792   1.957 140.524  0.00  0.00    -0.270 N 
ATOM     23  H   UNL     1      79.350   2.410 139.732  0.00  0.00    +0.156 HD
ATOM     24  C   UNL     1      78.596   2.743 141.608  0.00  0.00    +0.221 C 
ATOM     25  O   UNL     1      78.195   2.329 142.689  0.00  0.00    -0.275 OA
ATOM     29  C   UNL     1      77.614  -0.162 141.133  0.00  0.00    +0.057 A 
BRANCH  24  26
ATOM     26  C   UNL     1      78.864   4.213 141.373  0.00  0.00    +0.075 C 
ATOM     27  C   UNL     1      78.525   5.170 142.478  0.00  0.00    +0.013 C 
ATOM     28  C   UNL     1      79.940   4.871 142.187  0.00  0.00    +0.013 C 
ENDBRANCH  24  26
ENDBRANCH   2   1
BRANCH   4   6
ATOM      6  C   UNL     1      75.102  -2.508 143.587  0.00  0.00    +0.060 A 
ATOM      7  C   UNL     1      74.529  -1.671 144.554  0.00  0.00    +0.006 A 
ATOM     14  C   UNL     1      73.522  -2.187 145.363  0.00  0.00    +0.030 A 
ATOM     15  C   UNL     1      73.127  -3.497 145.184  0.00  0.00    +0.111 A 
ATOM     16  N   UNL     1      73.655  -4.314 144.276  0.00  0.00    -0.261 NA
ATOM     17  C   UNL     1      74.621  -3.812 143.506  0.00  0.00    +0.134 A 
BRANCH   7   8
ATOM      8  C   UNL     1      74.955  -0.253 144.715  0.00  0.00    -0.016 A 
ATOM      9  C   UNL     1      75.830   0.117 145.734  0.00  0.00    +0.008 A 
ATOM     10  C   UNL     1      76.252   1.428 145.857  0.00  0.00    +0.001 A 
ATOM     11  C   UNL     1      75.805   2.391 144.969  0.00  0.00    +0.000 A 
ATOM     12  C   UNL     1      74.937   2.039 143.955  0.00  0.00    +0.001 A 
ATOM     13  C   UNL     1      74.514   0.727 143.827  0.00  0.00    +0.008 A 
ENDBRANCH   7   8
ENDBRANCH   4   6
TORSDOF 4
