REMARK  Name = 2zv2_ligand
REMARK  1 active torsions:
REMARK  status: ('A' for Active; 'I' for Inactive)
REMARK    1  A    between atoms: CAO_21  and  CAN_22
REMARK                            x       y       z     vdW  Elec       q    Type
REMARK                         _______ _______ _______ _____ _____    ______ ____
ROOT
ATOM      1  C   UNL     1       1.100  -8.261 -26.327  0.00  0.00    +0.019 A 
ATOM      2  C   UNL     1       2.237  -7.653 -25.803  0.00  0.00    +0.048 A 
ATOM      3  C   UNL     1       3.334  -8.425 -25.437  0.00  0.00    +0.031 A 
ATOM      4  C   UNL     1       3.294  -9.806 -25.594  0.00  0.00    +0.027 A 
ATOM      5  C   UNL     1       2.159 -10.419 -26.113  0.00  0.00    +0.023 A 
ATOM      9  C   UNL     1       2.276  -6.275 -25.625  0.00  0.00    +0.171 A 
ATOM     10  N   UNL     1       3.189  -5.470 -25.084  0.00  0.00    -0.309 NA
ATOM     11  C   UNL     1       2.736  -4.218 -25.051  0.00  0.00    +0.033 A 
ATOM     12  C   UNL     1       3.288  -3.047 -24.543  0.00  0.00    -0.008 A 
ATOM     13  C   UNL     1       2.566  -1.860 -24.593  0.00  0.00    -0.026 A 
ATOM     14  C   UNL     1       1.293  -1.836 -25.153  0.00  0.00    -0.021 A 
ATOM     15  C   UNL     1       0.739  -3.004 -25.664  0.00  0.00    +0.020 A 
ATOM     16  C   UNL     1       1.463  -4.189 -25.609  0.00  0.00    +0.115 A 
ATOM     17  N   UNL     1       1.165  -5.503 -25.981  0.00  0.00    -0.144 N 
ATOM     18  C   UNL     1       0.024  -6.109 -26.518  0.00  0.00    +0.276 A 
ATOM     19  O   UNL     1      -0.938  -5.421 -26.856  0.00  0.00    -0.352 OA
ATOM     20  C   UNL     1      -0.003  -7.490 -26.683  0.00  0.00    +0.075 A 
ATOM     21  C   UNL     1      -1.147  -8.097 -27.191  0.00  0.00    +0.033 A 
ATOM     22  C   UNL     1      -1.183  -9.478 -27.343  0.00  0.00    +0.013 A 
ATOM     23  C   UNL     1      -0.081 -10.248 -26.990  0.00  0.00    +0.024 A 
ATOM     24  C   UNL     1       1.063  -9.644 -26.479  0.00  0.00    +0.005 A 
ENDROOT
BRANCH   5   6
ATOM      6  C   UNL     1       2.134 -11.946 -26.239  0.00  0.00    +0.066 C 
ATOM      7  O   UNL     1       3.222 -12.528 -26.437  0.00  0.00    -0.560 OA
ATOM      8  O   UNL     1       1.046 -12.544 -26.099  0.00  0.00    -0.560 OA
ENDBRANCH   5   6
TORSDOF 1
