REMARK  Name = 3b8r_ligand
REMARK  8 active torsions:
REMARK  status: ('A' for Active; 'I' for Inactive)
REMARK    1  A    between atoms: C1_1  and  O17_11
REMARK    2  A    between atoms: C13_10  and  C42_26
REMARK    3  A    between atoms: O17_11  and  C18_12
REMARK    4  A    between atoms: C27_19  and  O32_22
REMARK    5  A    between atoms: C28_20  and  O33_23
REMARK    6  A    between atoms: O32_22  and  C38_25
REMARK    7  A    between atoms: O33_23  and  C34_24
REMARK    8  A    between atoms: N43_27  and  C44_28
REMARK                            x       y       z     vdW  Elec       q    Type
REMARK                         _______ _______ _______ _____ _____    ______ ____
ROOT
ATOM      1  C   UNL     1       9.663  -0.974  57.790  0.00  0.00    +0.124 A 
ATOM     17  C   UNL     1      10.405   0.247  57.790  0.00  0.00    +0.040 A 
ATOM     18  C   UNL     1       9.794   1.462  57.404  0.00  0.00    +0.008 A 
ATOM     19  C   UNL     1       8.393   1.506  57.002  0.00  0.00    -0.007 A 
ATOM     20  C   UNL     1       7.713   2.742  56.588  0.00  0.00    +0.052 A 
ATOM     28  C   UNL     1       6.343   2.662  56.220  0.00  0.00    +0.022 A 
ATOM     29  C   UNL     1       5.638   1.431  56.239  0.00  0.00    +0.005 A 
ATOM     30  C   UNL     1       6.279   0.226  56.628  0.00  0.00    +0.010 A 
ATOM     31  C   UNL     1       7.646   0.247  57.008  0.00  0.00    -0.021 A 
ATOM     32  C   UNL     1       8.280  -0.980  57.403  0.00  0.00    +0.032 A 
ENDROOT
BRANCH  20  21
ATOM     21  C   UNL     1       8.382   4.067  56.532  0.00  0.00    +0.203 C 
ATOM     22  O   UNL     1       9.572   4.207  56.247  0.00  0.00    -0.386 OA
ATOM     23  N   UNL     1       7.577   5.157  56.812  0.00  0.00    -0.284 N 
ATOM     24  H   UNL     1       6.614   5.001  57.030  0.00  0.00    +0.185 HD
BRANCH  23  25
ATOM     25  C   UNL     1       8.077   6.513  56.801  0.00  0.00    +0.097 C 
ATOM     26  C   UNL     1       7.293   7.645  56.338  0.00  0.00    +0.030 C 
ATOM     27  C   UNL     1       8.055   6.851  55.330  0.00  0.00    +0.030 C 
ENDBRANCH  23  25
ENDBRANCH  20  21
BRANCH   1   2
ATOM      2  O   UNL     1      10.310  -2.149  58.188  0.00  0.00    -0.244 OA
BRANCH   2   3
ATOM      3  C   UNL     1      10.985  -2.967  57.249  0.00  0.00    +0.139 A 
ATOM      4  C   UNL     1      10.878  -2.811  55.821  0.00  0.00    +0.047 A 
ATOM      5  C   UNL     1      11.596  -3.700  54.988  0.00  0.00    +0.064 A 
ATOM      6  N   UNL     1      12.378  -4.702  55.500  0.00  0.00    -0.328 NA
ATOM      7  C   UNL     1      12.522  -4.893  56.869  0.00  0.00    +0.018 A 
ATOM      8  C   UNL     1      13.334  -5.921  57.402  0.00  0.00    +0.027 A 
ATOM      9  C   UNL     1      13.488  -6.115  58.818  0.00  0.00    +0.129 A 
ATOM     12  C   UNL     1      12.781  -5.243  59.716  0.00  0.00    +0.128 A 
ATOM     15  C   UNL     1      11.953  -4.200  59.178  0.00  0.00    +0.030 A 
ATOM     16  C   UNL     1      11.812  -4.019  57.766  0.00  0.00    +0.028 A 
BRANCH   9  10
ATOM     10  O   UNL     1      14.300  -7.133  59.379  0.00  0.00    -0.318 OA
ATOM     11  C   UNL     1      14.721  -8.217  58.547  0.00  0.00    +0.233 C 
ENDBRANCH   9  10
BRANCH  12  13
ATOM     13  O   UNL     1      12.841  -5.340  61.145  0.00  0.00    -0.321 OA
ATOM     14  C   UNL     1      12.953  -4.159  61.942  0.00  0.00    +0.231 C 
ENDBRANCH  12  13
ENDBRANCH   2   3
ENDBRANCH   1   2
TORSDOF 6
