REMARK  Name = 9O5
REMARK  7 active torsions:
REMARK  status: ('A' for Active; 'I' for Inactive)
REMARK    1  A    between atoms: CAC_7  and  CAD_9
REMARK    2  A    between atoms: CAD_9  and  CAE_10
REMARK    3  A    between atoms: CAE_10  and  CAO_11
REMARK    4  A    between atoms: CAQ_16  and  C2_17
REMARK    5  A    between atoms: NAT_23  and  CAS_24
REMARK    6  A    between atoms: CAS_24  and  CAR_25
REMARK    7  A    between atoms: CAR_25  and  CAK_26
REMARK                            x       y       z     vdW  Elec       q    Type
REMARK                         _______ _______ _______ _____ _____    ______ ____
ROOT
ATOM      1  C   UNL     1      23.836 -15.196  -8.184  0.00  0.00    +0.078 A 
ATOM      2  C   UNL     1      24.195 -14.858  -6.892  0.00  0.00    +0.035 A 
ATOM      3  C   UNL     1      24.725 -13.591  -6.613  0.00  0.00    +0.090 A 
ATOM      4  N   UNL     1      25.042 -13.287  -5.345  0.00  0.00    -0.128 NA
ATOM      5  C   UNL     1      24.903 -12.644  -7.656  0.00  0.00    +0.018 A 
ATOM      6  C   UNL     1      24.537 -12.983  -8.954  0.00  0.00    +0.007 A 
ATOM      7  N   UNL     1      23.383 -16.413  -8.438  0.00  0.00    -0.183 NA
ATOM      8  C   UNL     1      23.029 -16.777  -9.686  0.00  0.00    +0.205 C 
ATOM     20  N   UNL     1      23.178 -15.909 -10.712  0.00  0.00    -0.369 NA
ATOM     21  C   UNL     1      23.644 -14.680 -10.498  0.00  0.00    +0.202 C 
ATOM     22  N   UNL     1      23.784 -13.893 -11.559  0.00  0.00    -0.209 NA
ATOM     31  C   UNL     1      23.993 -14.255  -9.229  0.00  0.00    +0.061 A 
ENDROOT
BRANCH   8   9
ATOM      9  C   UNL     1      22.463 -18.003  -9.981  0.00  0.00    +0.045 A 
ATOM     10  C   UNL     1      22.462 -19.115  -9.129  0.00  0.00    -0.000 A 
ATOM     11  C   UNL     1      21.837 -20.318  -9.483  0.00  0.00    -0.022 A 
ATOM     17  C   UNL     1      21.183 -20.390 -10.710  0.00  0.00    -0.004 A 
ATOM     18  C   UNL     1      21.162 -19.270 -11.541  0.00  0.00    -0.000 A 
ATOM     19  C   UNL     1      21.783 -18.080 -11.190  0.00  0.00    +0.004 A 
BRANCH  11  12
ATOM     12  C   UNL     1      21.900 -21.519  -8.653  0.00  0.00    +0.034 C 
BRANCH  12  13
ATOM     13  C   UNL     1      20.537 -22.029  -8.249  0.00  0.00    +0.069 C 
BRANCH  13  14
ATOM     14  C   UNL     1      19.674 -20.961  -7.594  0.00  0.00    +0.151 C 
ATOM     15  C   UNL     1      20.100 -20.581  -6.204  0.00  0.00    +0.072 C 
ATOM     16  O   UNL     1      18.683 -20.438  -8.136  0.00  0.00    -0.296 OA
ENDBRANCH  13  14
ENDBRANCH  12  13
ENDBRANCH  11  12
ENDBRANCH   8   9
BRANCH  22  23
ATOM     23  C   UNL     1      24.056 -14.596 -12.770  0.00  0.00    +0.120 C 
BRANCH  23  24
ATOM     24  C   UNL     1      24.670 -13.731 -13.716  0.00  0.00    +0.050 C 
BRANCH  24  25
ATOM     25  C   UNL     1      24.944 -14.406 -14.958  0.00  0.00    -0.020 A 
ATOM     26  C   UNL     1      26.225 -14.703 -15.448  0.00  0.00    -0.004 A 
ATOM     27  C   UNL     1      26.366 -15.276 -16.702  0.00  0.00    -0.000 A 
ATOM     28  C   UNL     1      25.254 -15.524 -17.490  0.00  0.00    -0.000 A 
ATOM     29  C   UNL     1      23.977 -15.211 -17.014  0.00  0.00    -0.000 A 
ATOM     30  C   UNL     1      23.828 -14.658 -15.745  0.00  0.00    -0.004 A 
ENDBRANCH  24  25
ENDBRANCH  23  24
ENDBRANCH  22  23
TORSDOF 7
