REMARK  Name = 4f09_ligand
REMARK  2 active torsions:
REMARK  status: ('A' for Active; 'I' for Inactive)
REMARK    1  A    between atoms: C1_1  and  C2_2
REMARK    2  A    between atoms: N10_10  and  C11_11
REMARK                            x       y       z     vdW  Elec       q    Type
REMARK                         _______ _______ _______ _____ _____    ______ ____
ROOT
ATOM      1  C   UNL     1      16.931   6.318  12.440  0.00  0.00    +0.164 C 
ATOM      2  C   UNL     1      16.597   7.752  12.314  0.00  0.00    +0.120 A 
ATOM      3  N   UNL     1      15.513   8.150  11.726  0.00  0.00    -0.227 N 
ATOM     12  C   UNL     1      15.480   9.524  11.785  0.00  0.00    +0.089 A 
ATOM     13  C   UNL     1      14.574  10.528  11.428  0.00  0.00    +0.019 A 
ATOM     14  C   UNL     1      13.308  10.630  10.768  0.00  0.00    -0.032 A 
ATOM     15  C   UNL     1      12.964  11.926  10.778  0.00  0.00    +0.113 A 
ATOM     16  N   UNL     1      13.920  12.650  11.399  0.00  0.00    -0.274 N 
ATOM     17  H   UNL     1      13.893  13.668  11.551  0.00  0.00    +0.228 HD
ATOM     18  C   UNL     1      14.923  11.822  11.792  0.00  0.00    +0.120 A 
ATOM     19  N   UNL     1      16.046  12.171  12.426  0.00  0.00    -0.305 NA
ATOM     20  C   UNL     1      16.893  11.201  12.747  0.00  0.00    +0.061 A 
ATOM     21  C   UNL     1      16.624   9.876  12.447  0.00  0.00    +0.033 A 
ATOM     22  N   UNL     1      17.313   8.724  12.767  0.00  0.00    -0.320 NA
ENDROOT
BRANCH   3   4
ATOM      4  C   UNL     1      14.506   7.217  11.218  0.00  0.00    +0.144 C 
ATOM      5  C   UNL     1      13.200   7.291  11.973  0.00  0.00    +0.087 C 
ATOM      6  C   UNL     1      12.239   6.255  11.464  0.00  0.00    +0.132 C 
ATOM      7  N   UNL     1      12.135   6.063  10.026  0.00  0.00    +0.227 N 
ATOM      8  H   UNL     1      11.507   6.758   9.653  0.00  0.00    +0.201 HD
ATOM      9  H   UNL     1      11.762   5.144   9.850  0.00  0.00    +0.201 HD
ATOM     10  C   UNL     1      13.405   6.181   9.355  0.00  0.00    +0.132 C 
ATOM     11  C   UNL     1      14.275   7.329   9.739  0.00  0.00    +0.087 C 
ENDBRANCH   3   4
TORSDOF 1
