REMARK  Name = AQG
REMARK  7 active torsions:
REMARK  status: ('A' for Active; 'I' for Inactive)
REMARK    1  A    between atoms: C6_3  and  O6_30
REMARK    2  A    between atoms: N2_6  and  CAX_24
REMARK    3  A    between atoms: CAL_18  and  NBE_29
REMARK    4  A    between atoms: CAM_19  and  NBE_29
REMARK    5  A    between atoms: CAP_22  and  CBD_26
REMARK    6  A    between atoms: CAP_22  and  O6_30
REMARK    7  A    between atoms: CAW_23  and  CAY_25
REMARK                            x       y       z     vdW  Elec       q    Type
REMARK                         _______ _______ _______ _____ _____    ______ ____
ROOT
ATOM      1  C   UNL     1      -0.642  -5.129   0.586  0.00  0.00    +0.252 C 
ATOM      2  N   UNL     1      -0.381  -5.649   1.825  0.00  0.00    -0.305 NA
ATOM      3  C   UNL     1      -1.277  -6.397   2.461  0.00  0.00    +0.229 C 
ATOM      4  N   UNL     1      -0.900  -6.908   3.803  0.00  0.00    -0.125 NA
ATOM     18  N   UNL     1      -2.476  -6.659   1.916  0.00  0.00    -0.288 NA
ATOM     19  C   UNL     1      -2.813  -6.189   0.705  0.00  0.00    +0.311 C 
ATOM     28  C   UNL     1      -1.866  -5.387  -0.001  0.00  0.00    +0.199 C 
ATOM     29  N   UNL     1      -1.838  -4.751  -1.209  0.00  0.00    -0.214 NA
ATOM     30  C   UNL     1      -0.661  -4.135  -1.357  0.00  0.00    +0.201 C 
ATOM     31  N   UNL     1       0.084  -4.352  -0.275  0.00  0.00    -0.192 NA
ENDROOT
BRANCH   4   5
ATOM      5  C   UNL     1      -1.575  -7.967   4.590  0.00  0.00    +0.084 A 
ATOM      6  C   UNL     1      -1.149  -8.150   5.898  0.00  0.00    +0.018 A 
ATOM      7  C   UNL     1      -1.723  -9.125   6.709  0.00  0.00    +0.006 A 
ATOM      8  C   UNL     1      -2.758  -9.924   6.215  0.00  0.00    +0.054 A 
ATOM     16  C   UNL     1      -3.190  -9.754   4.907  0.00  0.00    +0.006 A 
ATOM     17  C   UNL     1      -2.605  -8.774   4.089  0.00  0.00    +0.018 A 
BRANCH   8   9
ATOM      9  C   UNL     1      -3.385 -11.012   7.137  0.00  0.00    +0.249 C 
ATOM     10  N   UNL     1      -4.160 -10.665   8.361  0.00  0.00    -0.276 N 
ATOM     15  O   UNL     1      -3.229 -12.147   6.861  0.00  0.00    -0.270 OA
BRANCH  10  11
ATOM     11  C   UNL     1      -4.722 -11.761   9.188  0.00  0.00    +0.094 C 
ATOM     12  C   UNL     1      -3.639 -12.367  10.106  0.00  0.00    +0.023 C 
ENDBRANCH  10  11
BRANCH  10  13
ATOM     13  C   UNL     1      -4.393  -9.271   8.759  0.00  0.00    +0.094 C 
ATOM     14  C   UNL     1      -3.350  -8.791   9.774  0.00  0.00    +0.023 C 
ENDBRANCH  10  13
ENDBRANCH   8   9
ENDBRANCH   4   5
BRANCH  19  20
ATOM     20  O   UNL     1      -4.093  -6.483   0.139  0.00  0.00    -0.450 OA
BRANCH  20  21
ATOM     21  C   UNL     1      -5.033  -6.952   1.097  0.00  0.00    +0.208 C 
BRANCH  21  22
ATOM     22  C   UNL     1      -5.310  -8.448   0.807  0.00  0.00    +0.044 C 
ATOM     23  C   UNL     1      -6.411  -8.912   1.765  0.00  0.00    +0.004 C 
ATOM     24  C   UNL     1      -7.468  -9.795   1.106  0.00  0.00    +0.000 C 
ATOM     25  C   UNL     1      -6.843 -10.712   0.064  0.00  0.00    +0.000 C 
ATOM     26  C   UNL     1      -6.272  -9.909  -1.103  0.00  0.00    +0.000 C 
ATOM     27  C   UNL     1      -5.651  -8.576  -0.683  0.00  0.00    +0.004 C 
ENDBRANCH  21  22
ENDBRANCH  20  21
ENDBRANCH  19  20
TORSDOF 7
