REMARK  Name = 3PXK
REMARK  6 active torsions:
REMARK  status: ('A' for Active; 'I' for Inactive)
REMARK    1  A    between atoms: C_8  and  C_9
REMARK    2  A    between atoms: C_9  and  C_10
REMARK    3  A    between atoms: C_11  and  C_12
REMARK    4  A    between atoms: C_12  and  C_13
REMARK    5  A    between atoms: C_12  and  C_14
REMARK    6  A    between atoms: C_12  and  C_15
REMARK                            x       y       z     vdW  Elec       q    Type
REMARK                         _______ _______ _______ _____ _____    ______ ____
ROOT
ATOM      1  S   UNL     1      -1.433  -3.941  20.715  0.00  0.00    -0.126 S 
ATOM      2  C   UNL     1      -2.085  -2.818  19.601  0.00  0.00    +0.161 C 
ATOM      3  N   UNL     1      -1.332  -2.698  18.562  0.00  0.00    -0.196 NA
ATOM      4  C   UNL     1      -0.243  -3.468  18.507  0.00  0.00    +0.155 C 
ATOM      5  N   UNL     1       0.821  -3.754  17.675  0.00  0.00    -0.207 NA
ATOM      6  C   UNL     1       1.569  -4.736  18.272  0.00  0.00    +0.104 C 
ATOM      7  C   UNL     1       1.058  -5.040  19.479  0.00  0.00    +0.029 C 
ATOM     15  C   UNL     1      -0.082  -4.258  19.635  0.00  0.00    +0.082 C 
ENDROOT
BRANCH   7   8
ATOM      8  C   UNL     1       1.597  -6.094  20.438  0.00  0.00    +0.099 C 
BRANCH   8   9
ATOM      9  C   UNL     1       0.537  -6.608  21.336  0.00  0.00    -0.101 C 
ATOM     10  C   UNL     1      -0.332  -6.968  22.039  0.00  0.00    -0.096 C 
BRANCH  10  11
ATOM     11  C   UNL     1      -1.446  -7.381  22.913  0.00  0.00    +0.024 C 
ATOM     12  C   UNL     1      -2.255  -8.502  22.258  0.00  0.00    +0.024 C 
ATOM     13  C   UNL     1      -2.370  -6.186  23.149  0.00  0.00    +0.024 C 
ATOM     14  C   UNL     1      -0.912  -7.866  24.260  0.00  0.00    +0.024 C 
ENDBRANCH  10  11
ENDBRANCH   8   9
ENDBRANCH   7   8
TORSDOF 3
