REMARK  Name = TVP
REMARK  0 active torsions:
REMARK  status: ('A' for Active; 'I' for Inactive)
REMARK                            x       y       z     vdW  Elec       q    Type
REMARK                         _______ _______ _______ _____ _____    ______ ____
ROOT
ATOM      1  O   UNL     1      20.930   8.543  -7.907  0.00  0.00    -0.275 OA
ATOM      2  C   UNL     1      19.876   9.022  -8.265  0.00  0.00    +0.230 C 
ATOM      3  C   UNL     1      18.761   9.225  -7.262  0.00  0.00    +0.095 C 
ATOM      4  N   UNL     1      19.684   9.385  -9.581  0.00  0.00    -0.261 N 
ATOM      5  C   UNL     1      18.475   9.944 -10.121  0.00  0.00    +0.050 A 
ATOM      6  C   UNL     1      17.212   9.443  -9.814  0.00  0.00    +0.015 A 
ATOM      7  C   UNL     1      16.073  10.054 -10.352  0.00  0.00    +0.001 A 
ATOM      8  C   UNL     1      16.194  11.155 -11.163  0.00  0.00    -0.000 A 
ATOM      9  C   UNL     1      17.462  11.662 -11.457  0.00  0.00    -0.003 A 
ATOM     10  C   UNL     1      18.602  11.087 -10.908  0.00  0.00    -0.008 A 
ATOM     11  C   UNL     1      19.996  11.535 -11.244  0.00  0.00    +0.029 C 
ATOM     12  C   UNL     1      20.805  10.295 -11.562  0.00  0.00    +0.025 C 
ATOM     13  C   UNL     1      20.860   9.232 -10.469  0.00  0.00    +0.080 C 
ATOM     14  C   UNL     1      20.959   7.815 -11.020  0.00  0.00    +0.022 C 
ENDROOT
TORSDOF 0
