REMARK  Name = 3lw0_ligand
REMARK  9 active torsions:
REMARK  status: ('A' for Active; 'I' for Inactive)
REMARK    1  A    between atoms: C5_5  and  C11_11
REMARK    2  A    between atoms: C7_7  and  C10_10
REMARK    3  A    between atoms: C10_10  and  C13_13
REMARK    4  A    between atoms: C13_13  and  C14_14
REMARK    5  A    between atoms: C14_14  and  C15_15
REMARK    6  A    between atoms: C15_15  and  N20_20
REMARK    7  A    between atoms: C17_17  and  N22_22
REMARK    8  A    between atoms: C23_23  and  C24_24
REMARK    9  A    between atoms: C30_30  and  C33_33
REMARK                            x       y       z     vdW  Elec       q    Type
REMARK                         _______ _______ _______ _____ _____    ______ ____
ROOT
ATOM      7  N   UNL     1      -5.747 -23.541 -50.945  0.00  0.00    +0.403 NA
ATOM      8  C   UNL     1      -6.396 -22.225 -50.727  0.00  0.00    -0.107 C 
ATOM      9  C   UNL     1      -7.657 -22.337 -49.868  0.00  0.00    +0.005 C 
ATOM     10  C   UNL     1      -7.292 -22.986 -48.537  0.00  0.00    +0.093 C 
ATOM     27  C   UNL     1      -6.863 -24.419 -48.843  0.00  0.00    +0.005 C 
ATOM     28  C   UNL     1      -5.574 -24.332 -49.684  0.00  0.00    -0.107 C 
ENDROOT
BRANCH  10  11
ATOM     11  N   UNL     1      -8.422 -22.930 -47.598  0.00  0.00    -0.285 N 
ATOM     12  H   UNL     1      -9.068 -23.718 -47.543  0.00  0.00    +0.184 HD
ATOM     13  C   UNL     1      -8.631 -21.786 -46.758  0.00  0.00    +0.200 C 
ATOM     14  O   UNL     1      -7.869 -20.845 -46.767  0.00  0.00    -0.389 OA
BRANCH  13  15
ATOM     15  C   UNL     1      -9.798 -21.745 -45.859  0.00  0.00    +0.071 A 
ATOM     16  C   UNL     1     -10.652 -20.640 -45.890  0.00  0.00    +0.006 A 
ATOM     17  C   UNL     1     -11.771 -20.571 -45.051  0.00  0.00    -0.017 A 
ATOM     18  C   UNL     1     -12.051 -21.611 -44.171  0.00  0.00    -0.007 A 
ATOM     19  C   UNL     1     -11.196 -22.698 -44.156  0.00  0.00    +0.013 A 
ATOM     20  C   UNL     1     -11.235 -23.840 -43.398  0.00  0.00    +0.100 A 
ATOM     23  C   UNL     1     -10.143 -24.600 -43.777  0.00  0.00    +0.195 A 
ATOM     24  N   UNL     1      -9.465 -23.933 -44.736  0.00  0.00    -0.256 N 
ATOM     25  H   UNL     1      -8.617 -24.257 -45.200  0.00  0.00    +0.239 HD
ATOM     26  C   UNL     1     -10.095 -22.773 -44.975  0.00  0.00    +0.095 A 
BRANCH  20  21
ATOM     21  C   UNL     1     -12.227 -24.163 -42.420  0.00  0.00    +0.060 C 
ATOM     22  N   UNL     1     -13.093 -24.356 -41.666  0.00  0.00    -0.365 NA
ENDBRANCH  20  21
ENDBRANCH  13  15
ENDBRANCH  10  11
BRANCH   7   6
ATOM      6  C   UNL     1      -4.439 -23.264 -51.593  0.00  0.00    -0.110 C 
BRANCH   6   5
ATOM      5  C   UNL     1      -3.682 -24.527 -52.016  0.00  0.00    -0.021 C 
BRANCH   5   4
ATOM      4  C   UNL     1      -2.568 -24.188 -53.001  0.00  0.00    +0.006 C 
BRANCH   4   3
ATOM      3  C   UNL     1      -3.019 -24.154 -54.462  0.00  0.00    +0.035 C 
BRANCH   3   2
ATOM      1  C   UNL     1      -1.702 -22.557 -56.016  0.00  0.00    -0.008 A 
ATOM      2  C   UNL     1      -1.867 -23.775 -55.380  0.00  0.00    -0.042 A 
ATOM     29  C   UNL     1      -0.772 -24.564 -55.738  0.00  0.00    +0.099 A 
ATOM     30  N   UNL     1       0.019 -23.858 -56.561  0.00  0.00    -0.285 N 
ATOM     31  H   UNL     1       0.889 -24.189 -56.978  0.00  0.00    +0.224 HD
ATOM     32  C   UNL     1      -2.491 -21.404 -56.017  0.00  0.00    +0.030 A 
ATOM     33  C   UNL     1      -2.047 -20.314 -56.788  0.00  0.00    +0.079 A 
ATOM     36  C   UNL     1      -0.848 -20.394 -57.521  0.00  0.00    +0.018 A 
ATOM     37  C   UNL     1      -0.074 -21.553 -57.500  0.00  0.00    +0.021 A 
ATOM     38  C   UNL     1      -0.529 -22.636 -56.746  0.00  0.00    +0.069 A 
BRANCH  33  34
ATOM     34  C   UNL     1      -2.828 -19.113 -56.811  0.00  0.00    +0.089 C 
ATOM     35  N   UNL     1      -3.478 -18.150 -56.800  0.00  0.00    -0.336 NA
ENDBRANCH  33  34
ENDBRANCH   3   2
ENDBRANCH   4   3
ENDBRANCH   5   4
ENDBRANCH   6   5
ENDBRANCH   7   6
TORSDOF 9
