REMARK  Name = 2IZR
REMARK  8 active torsions:
REMARK  status: ('A' for Active; 'I' for Inactive)
REMARK    1  A    between atoms: C_1  and  O_2
REMARK    2  A    between atoms: O_2  and  C_3
REMARK    3  A    between atoms: C_8  and  C_9
REMARK    4  A    between atoms: C_9  and  C_11
REMARK    5  A    between atoms: C_13  and  N_14
REMARK    6  A    between atoms: N_17  and  C_18
REMARK    7  A    between atoms: C_21  and  O_22
REMARK    8  A    between atoms: O_22  and  C_23
REMARK                            x       y       z     vdW  Elec       q    Type
REMARK                         _______ _______ _______ _____ _____    ______ ____
ROOT
ATOM      8  C   UNL     1       9.065  34.358  26.958  0.00  0.00    +0.100 A 
ATOM      9  C   UNL     1       8.759  34.889  28.215  0.00  0.00    +0.113 A 
ATOM     10  N   UNL     1       8.140  34.021  29.044  0.00  0.00    -0.322 N 
ATOM     11  H   UNL     1       7.842  34.274  30.040  0.00  0.00    +0.169 HD
ATOM     12  C   UNL     1       7.931  32.794  28.493  0.00  0.00    +0.173 A 
ATOM     13  N   UNL     1       7.299  31.837  29.103  0.00  0.00    -0.224 NA
ATOM     25  S   UNL     1       8.526  32.735  26.848  0.00  0.00    -0.045 S 
ENDROOT
BRANCH  13  14
ATOM     14  C   UNL     1       7.067  30.600  28.589  0.00  0.00    +0.067 A 
ATOM     15  C   UNL     1       8.065  29.846  28.002  0.00  0.00    +0.031 A 
ATOM     16  C   UNL     1       7.796  28.569  27.507  0.00  0.00    +0.048 A 
ATOM     17  C   UNL     1       6.527  28.018  27.623  0.00  0.00    +0.120 A 
ATOM     20  C   UNL     1       5.514  28.756  28.238  0.00  0.00    +0.048 A 
ATOM     21  C   UNL     1       5.798  30.031  28.727  0.00  0.00    +0.031 A 
BRANCH  17  18
ATOM     18  O   UNL     1       6.303  26.752  27.128  0.00  0.00    -0.495 OA
ATOM     19  C   UNL     1       5.021  26.587  26.497  0.00  0.00    +0.277 C 
ENDBRANCH  17  18
ENDBRANCH  13  14
BRANCH   9  22
ATOM     22  N   UNL     1       9.049  36.140  28.611  0.00  0.00    -0.344 N 
ATOM     23  H   UNL     1       8.778  36.467  29.593  0.00  0.00    +0.144 HD
ATOM     24  H   UNL     1       9.551  36.810  27.944  0.00  0.00    +0.144 HD
ENDBRANCH   9  22
BRANCH   8   7
ATOM      7  C   UNL     1       9.831  35.077  25.887  0.00  0.00    +0.203 C 
ATOM     26  O   UNL     1      10.352  36.173  26.120  0.00  0.00    -0.286 OA
BRANCH   7   6
ATOM      3  C   UNL     1      10.565  33.097  22.126  0.00  0.00    +0.120 A 
ATOM      4  C   UNL     1       9.288  33.052  22.680  0.00  0.00    +0.046 A 
ATOM      5  C   UNL     1       9.026  33.685  23.902  0.00  0.00    +0.015 A 
ATOM      6  C   UNL     1      10.058  34.357  24.568  0.00  0.00    +0.023 A 
ATOM     27  C   UNL     1      11.339  34.412  24.015  0.00  0.00    +0.015 A 
ATOM     28  C   UNL     1      11.574  33.768  22.804  0.00  0.00    +0.046 A 
BRANCH   3   2
ATOM      1  C   UNL     1       9.799  31.963  20.155  0.00  0.00    +0.277 C 
ATOM      2  O   UNL     1      10.895  32.485  20.928  0.00  0.00    -0.495 OA
ENDBRANCH   3   2
ENDBRANCH   7   6
ENDBRANCH   8   7
TORSDOF 6
