REMARK  Name = 5otp
REMARK  7 active torsions:
REMARK  status: ('A' for Active; 'I' for Inactive)
REMARK    1  A    between atoms: C8_3  and  C7_4
REMARK    2  A    between atoms: C2_9  and  C1_10
REMARK    3  A    between atoms: C11_13  and  C12_16
REMARK    4  A    between atoms: C12_16  and  N_17
REMARK    5  A    between atoms: N_17  and  C13_18
REMARK    6  A    between atoms: C13_18  and  C14_19
REMARK    7  A    between atoms: C14_19  and  C15_20
REMARK                            x       y       z     vdW  Elec       q    Type
REMARK                         _______ _______ _______ _____ _____    ______ ____
ROOT
ATOM      1 CL   UNL     1       6.426 144.175 353.170  0.00  0.00    -0.084 Cl
ATOM      2  C   UNL     1       5.720 142.968 352.151  0.00  0.00    +0.049 A 
ATOM      3  C   UNL     1       5.643 141.669 352.613  0.00  0.00    +0.026 A 
ATOM      4  C   UNL     1       5.099 140.670 351.816  0.00  0.00    -0.033 A 
ATOM     20  C   UNL     1       4.672 141.009 350.538  0.00  0.00    +0.006 A 
ATOM     21  C   UNL     1       4.748 142.316 350.078  0.00  0.00    +0.010 A 
ATOM     22  C   UNL     1       5.255 143.331 350.895  0.00  0.00    +0.001 A 
ENDROOT
BRANCH  22  23
ATOM     23  C   UNL     1       5.234 144.752 350.430  0.00  0.00    -0.014 A 
ATOM     24  C   UNL     1       4.198 145.651 350.744  0.00  0.00    -0.040 A 
ATOM     27  C   UNL     1       4.370 147.010 350.468  0.00  0.00    +0.004 A 
ATOM     28  C   UNL     1       5.544 147.478 349.903  0.00  0.00    +0.000 A 
ATOM     29  C   UNL     1       6.552 146.597 349.580  0.00  0.00    +0.001 A 
ATOM     30  C   UNL     1       6.396 145.240 349.823  0.00  0.00    +0.009 A 
BRANCH  24  25
ATOM     25  C   UNL     1       2.911 145.178 351.396  0.00  0.00    +0.033 C 
ATOM     26  C   UNL     1       1.672 145.997 351.089  0.00  0.00    +0.009 C 
ENDBRANCH  24  25
ENDBRANCH  22  23
BRANCH   4   5
ATOM      5  C   UNL     1       4.922 139.272 352.360  0.00  0.00    +0.116 C 
BRANCH   5   6
ATOM      6  N   UNL     1       6.173 138.674 352.842  0.00  0.00    -0.190 NA
BRANCH   6   7
ATOM      7  C   UNL     1       5.977 137.357 353.458  0.00  0.00    +0.089 C 
BRANCH   7   8
ATOM      8  C   UNL     1       7.326 136.672 353.468  0.00  0.00    +0.090 C 
BRANCH   8   9
ATOM      9  C   UNL     1       7.403 135.548 354.443  0.00  0.00    +0.108 A 
ATOM     10  N   UNL     1       8.576 135.144 354.984  0.00  0.00    -0.174 NA
ATOM     11  C   UNL     1       8.305 134.032 355.759  0.00  0.00    +0.067 A 
ATOM     12  C   UNL     1       9.112 133.169 356.492  0.00  0.00    +0.050 A 
ATOM     13  C   UNL     1       8.514 132.092 357.124  0.00  0.00    +0.061 A 
ATOM     14 CL   UNL     1       9.537 130.915 357.882  0.00  0.00    -0.083 Cl
ATOM     15  C   UNL     1       7.124 131.910 357.065  0.00  0.00    +0.061 A 
ATOM     16 CL   UNL     1       6.343 130.659 357.984  0.00  0.00    -0.083 Cl
ATOM     17  C   UNL     1       6.328 132.763 356.318  0.00  0.00    +0.052 A 
ATOM     18  C   UNL     1       6.929 133.833 355.653  0.00  0.00    +0.090 A 
ATOM     19  N   UNL     1       6.379 134.806 354.820  0.00  0.00    -0.233 NA
ENDBRANCH   8   9
ENDBRANCH   7   8
ENDBRANCH   6   7
ENDBRANCH   5   6
ENDBRANCH   4   5
TORSDOF 7
