REMARK  Name = 5TWY
REMARK  6 active torsions:
REMARK  status: ('A' for Active; 'I' for Inactive)
REMARK    1  A    between atoms: C_1  and  N_10
REMARK    2  A    between atoms: O_2  and  C_22
REMARK    3  A    between atoms: O_2  and  C_23
REMARK    4  A    between atoms: C_11  and  C_25
REMARK    5  A    between atoms: C_20  and  C_30
REMARK    6  A    between atoms: C_23  and  C_24
REMARK                            x       y       z     vdW  Elec       q    Type
REMARK                         _______ _______ _______ _____ _____    ______ ____
ROOT
ATOM     15  C   UNL     1      21.113   2.877  14.058  0.00  0.00    +0.079 A 
ATOM     16  C   UNL     1      21.782   1.710  13.699  0.00  0.00    +0.134 A 
ATOM     17  C   UNL     1      21.428   0.477  14.255  0.00  0.00    +0.055 A 
ATOM     18  C   UNL     1      20.389   0.427  15.180  0.00  0.00    -0.012 A 
ATOM     25  C   UNL     1      19.727   1.597  15.556  0.00  0.00    +0.009 A 
ATOM     34  C   UNL     1      20.090   2.813  15.000  0.00  0.00    +0.017 A 
ENDROOT
BRANCH  18  19
ATOM     19  C   UNL     1      19.973  -0.837  15.727  0.00  0.00    +0.019 A 
ATOM     20  C   UNL     1      20.466  -2.133  15.368  0.00  0.00    +0.142 A 
ATOM     21  N   UNL     1      19.829  -3.093  16.093  0.00  0.00    -0.182 NA
ATOM     22  N   UNL     1      18.951  -2.430  16.894  0.00  0.00    -0.284 N 
ATOM     23  H   UNL     1      18.296  -2.913  17.589  0.00  0.00    +0.188 HD
ATOM     24  C   UNL     1      19.003  -1.054  16.706  0.00  0.00    +0.113 A 
ENDBRANCH  18  19
BRANCH  15  14
ATOM     12  N   UNL     1      22.773   4.357  13.053  0.00  0.00    -0.281 N 
ATOM     13  H   UNL     1      23.433   3.553  13.305  0.00  0.00    +0.155 HD
ATOM     14  C   UNL     1      21.422   4.178  13.411  0.00  0.00    +0.252 C 
ATOM     35  O   UNL     1      20.547   5.010  13.245  0.00  0.00    -0.270 OA
BRANCH  12   1
ATOM      1  C   UNL     1      23.375   5.474  12.397  0.00  0.00    +0.034 A 
ATOM      2  C   UNL     1      24.777   5.472  12.269  0.00  0.00    +0.027 A 
ATOM      3  C   UNL     1      25.446   6.548  11.685  0.00  0.00    -0.041 A 
ATOM      4  C   UNL     1      26.943   6.495  11.600  0.00  0.00    +0.050 C 
ATOM      5  C   UNL     1      27.571   7.853  11.983  0.00  0.00    +0.085 C 
ATOM      6  N   UNL     1      27.769   8.647  10.757  0.00  0.00    -0.315 NA
ATOM      7  H   UNL     1      27.894   9.674  11.032  0.00  0.00    +0.122 HD
ATOM      8  C   UNL     1      26.638   8.547   9.818  0.00  0.00    +0.085 C 
ATOM      9  C   UNL     1      25.335   8.864  10.574  0.00  0.00    +0.050 C 
ATOM     10  C   UNL     1      24.711   7.653  11.205  0.00  0.00    -0.043 A 
ATOM     11  C   UNL     1      23.329   7.634  11.333  0.00  0.00    +0.006 A 
ATOM     36  C   UNL     1      22.659   6.572  11.920  0.00  0.00    +0.023 A 
ENDBRANCH  12   1
ENDBRANCH  15  14
BRANCH  16  26
ATOM     26  O   UNL     1      22.800   1.741  12.778  0.00  0.00    -0.487 OA
BRANCH  26  27
ATOM     27  C   UNL     1      23.535   0.524  12.678  0.00  0.00    +0.264 C 
BRANCH  27  28
ATOM     28  C   UNL     1      24.972   0.937  12.688  0.00  0.00    -0.010 A 
ATOM     29  C   UNL     1      25.686   0.974  13.884  0.00  0.00    +0.007 A 
ATOM     30  C   UNL     1      27.014   1.387  13.876  0.00  0.00    +0.000 A 
ATOM     31  C   UNL     1      27.622   1.758  12.681  0.00  0.00    +0.000 A 
ATOM     32  C   UNL     1      26.902   1.713  11.489  0.00  0.00    +0.000 A 
ATOM     33  C   UNL     1      25.579   1.302  11.490  0.00  0.00    +0.007 A 
ENDBRANCH  27  28
ENDBRANCH  26  27
ENDBRANCH  16  26
TORSDOF 6
