REMARK  Name = 5BNJ
REMARK  4 active torsions:
REMARK  status: ('A' for Active; 'I' for Inactive)
REMARK    1  A    between atoms: C_1  and  N_18
REMARK    2  A    between atoms: C_3  and  C_5
REMARK    3  A    between atoms: C_11  and  N_26
REMARK    4  A    between atoms: C_21  and  C_22
REMARK                            x       y       z     vdW  Elec       q    Type
REMARK                         _______ _______ _______ _____ _____    ______ ____
ROOT
ATOM     10  C   UNL     1      42.182  59.788  52.867  0.00  0.00    +0.023 A 
ATOM     11  C   UNL     1      43.371  60.468  52.571  0.00  0.00    +0.121 A 
ATOM     12  N   UNL     1      43.996  61.176  53.496  0.00  0.00    -0.261 NA
ATOM     13  C   UNL     1      43.531  61.268  54.736  0.00  0.00    +0.132 A 
ATOM     14  C   UNL     1      42.371  60.631  55.128  0.00  0.00    +0.081 A 
ATOM     15 CL   UNL     1      41.837  60.811  56.776  0.00  0.00    -0.080 Cl
ATOM     16  C   UNL     1      41.659  59.861  54.194  0.00  0.00    +0.059 A 
ENDROOT
BRANCH  16  17
ATOM     17  N   UNL     1      40.483  59.230  54.612  0.00  0.00    -0.328 N 
ATOM     18  C   UNL     1      39.242  59.432  53.852  0.00  0.00    +0.106 C 
ATOM     19  C   UNL     1      38.066  59.447  54.831  0.00  0.00    +0.035 C 
ATOM     20  C   UNL     1      38.021  58.131  55.609  0.00  0.00    +0.051 C 
ATOM     21  C   UNL     1      39.345  57.886  56.341  0.00  0.00    +0.035 C 
ATOM     22  C   UNL     1      36.907  58.159  56.625  0.00  0.00    +0.219 C 
ATOM     23  N   UNL     1      36.268  56.974  56.632  0.00  0.00    -0.315 N 
ATOM     24  H   UNL     1      35.443  56.735  57.270  0.00  0.00    +0.149 HD
ATOM     25  C   UNL     1      36.852  56.053  55.650  0.00  0.00    +0.105 C 
ATOM     26  O   UNL     1      36.629  59.102  57.335  0.00  0.00    -0.275 OA
ATOM     27  C   UNL     1      37.633  56.959  54.678  0.00  0.00    +0.035 C 
ATOM     28  C   UNL     1      40.566  58.003  55.417  0.00  0.00    +0.106 C 
ENDBRANCH  16  17
BRANCH  10   9
ATOM      6  C   UNL     1      40.365  57.417  49.801  0.00  0.00    -0.015 A 
ATOM      7  C   UNL     1      40.887  56.825  50.958  0.00  0.00    +0.009 A 
ATOM      8  C   UNL     1      41.469  57.606  51.935  0.00  0.00    +0.009 A 
ATOM      9  C   UNL     1      41.547  58.996  51.786  0.00  0.00    -0.015 A 
ATOM     29  C   UNL     1      41.035  59.597  50.633  0.00  0.00    +0.009 A 
ATOM     30  C   UNL     1      40.450  58.813  49.650  0.00  0.00    +0.009 A 
BRANCH   6   5
ATOM      1  C   UNL     1      37.545  55.882  45.943  0.00  0.00    +0.172 C 
ATOM      2  N   UNL     1      38.506  55.901  47.050  0.00  0.00    -0.274 N 
ATOM      3  N   UNL     1      39.278  54.821  47.480  0.00  0.00    -0.179 NA
ATOM      4  C   UNL     1      40.014  55.209  48.487  0.00  0.00    +0.143 A 
ATOM      5  C   UNL     1      39.742  56.568  48.742  0.00  0.00    +0.020 A 
ATOM     31  C   UNL     1      38.803  56.958  47.832  0.00  0.00    +0.116 A 
ENDBRANCH   6   5
ENDBRANCH  10   9
TORSDOF 3
