REMARK  Name = 4eh7_ligand
REMARK  4 active torsions:
REMARK  status: ('A' for Active; 'I' for Inactive)
REMARK    1  A    between atoms: CAN_6  and  OAL_7
REMARK    2  A    between atoms: OAL_7  and  CAO_8
REMARK    3  A    between atoms: CAM_13  and  CAK_14
REMARK    4  A    between atoms: CAK_14  and  OAA_15
REMARK                            x       y       z     vdW  Elec       q    Type
REMARK                         _______ _______ _______ _____ _____    ______ ____
ROOT
ATOM      4  C   UNL     1       2.887  -0.128  21.021  0.00  0.00    +0.110 A 
ATOM      5  C   UNL     1       2.868   1.097  20.349  0.00  0.00    +0.014 A 
ATOM      6  C   UNL     1       2.244   2.209  20.919  0.00  0.00    -0.019 A 
ATOM      7  C   UNL     1       1.631   2.120  22.173  0.00  0.00    -0.022 A 
ATOM      8  C   UNL     1       1.641   0.901  22.856  0.00  0.00    -0.026 A 
ATOM     12  C   UNL     1       2.269  -0.214  22.277  0.00  0.00    +0.024 A 
ENDROOT
BRANCH   4   3
ATOM      3  O   UNL     1       3.492  -1.261  20.502  0.00  0.00    -0.260 OA
BRANCH   3   2
ATOM      1  C   UNL     1       5.305  -0.791  18.953  0.00  0.00    +0.027 A 
ATOM      2  C   UNL     1       4.026  -1.313  19.222  0.00  0.00    +0.116 A 
ATOM     13  C   UNL     1       3.305  -1.931  18.185  0.00  0.00    +0.027 A 
ATOM     14  C   UNL     1       3.838  -2.003  16.895  0.00  0.00    -0.011 A 
ATOM     15  C   UNL     1       5.104  -1.461  16.637  0.00  0.00    -0.020 A 
ATOM     16  C   UNL     1       5.846  -0.853  17.663  0.00  0.00    -0.011 A 
ENDBRANCH   3   2
ENDBRANCH   4   3
BRANCH   8   9
ATOM      9  C   UNL     1       0.970   0.777  24.236  0.00  0.00    +0.220 C 
BRANCH   9  10
ATOM     10  O   UNL     1       0.402   2.017  24.678  0.00  0.00    -0.383 OA
ATOM     11  H   UNL     1      -0.004   1.893  25.539  0.00  0.00    +0.213 HD
ENDBRANCH   9  10
ENDBRANCH   8   9
TORSDOF 4
