REMARK  Name = 8FV
REMARK  2 active torsions:
REMARK  status: ('A' for Active; 'I' for Inactive)
REMARK    1  A    between atoms: C5_2  and  O1_23
REMARK    2  A    between atoms: C12_9  and  C13_24
REMARK                            x       y       z     vdW  Elec       q    Type
REMARK                         _______ _______ _______ _____ _____    ______ ____
ROOT
ATOM      1  N   UNL     1      21.837  -2.546   8.130  0.00  0.00    -0.374 NA
ATOM      2  C   UNL     1      22.483  -2.819   9.313  0.00  0.00    +0.192 C 
ATOM      3  N   UNL     1      22.041  -3.597  10.369  0.00  0.00    -0.223 NA
ATOM      4  C   UNL     1      20.830  -4.215  10.219  0.00  0.00    +0.073 C 
ATOM     15  C   UNL     1      20.093  -4.088   9.022  0.00  0.00    +0.132 C 
ATOM     16  C   UNL     1      18.884  -4.624   8.480  0.00  0.00    +0.009 A 
ATOM     17  C   UNL     1      17.983  -5.581   8.946  0.00  0.00    +0.035 A 
ATOM     18  C   UNL     1      16.900  -5.935   8.116  0.00  0.00    +0.139 A 
ATOM     21  C   UNL     1      16.733  -5.322   6.843  0.00  0.00    +0.038 A 
ATOM     22  C   UNL     1      17.656  -4.365   6.368  0.00  0.00    +0.019 A 
ATOM     23  C   UNL     1      18.720  -4.036   7.196  0.00  0.00    +0.070 A 
ATOM     24  N   UNL     1      19.799  -3.166   6.928  0.00  0.00    -0.187 NA
ATOM     25  C   UNL     1      23.867  -2.240   9.437  0.00  0.00    +0.088 C 
ATOM     26  C   UNL     1      20.636  -3.212   8.020  0.00  0.00    +0.191 C 
ENDROOT
BRANCH   4   5
ATOM      5  C   UNL     1      20.333  -4.963  11.394  0.00  0.00    +0.017 A 
ATOM      6  C   UNL     1      19.049  -4.687  12.023  0.00  0.00    +0.019 A 
ATOM      7  C   UNL     1      18.646  -5.557  13.092  0.00  0.00    +0.081 A 
ATOM      8  C   UNL     1      17.360  -5.399  13.708  0.00  0.00    +0.019 A 
ATOM      9  C   UNL     1      16.513  -4.415  13.260  0.00  0.00    +0.002 A 
ATOM     10  C   UNL     1      16.928  -3.542  12.207  0.00  0.00    +0.000 A 
ATOM     11  N   UNL     1      19.451  -6.620  13.553  0.00  0.00    -0.244 NA
ATOM     12  C   UNL     1      20.617  -6.808  12.941  0.00  0.00    +0.099 A 
ATOM     13  C   UNL     1      18.139  -3.658  11.618  0.00  0.00    +0.002 A 
ATOM     14  C   UNL     1      21.105  -6.004  11.853  0.00  0.00    +0.022 A 
ENDBRANCH   4   5
BRANCH  18  19
ATOM     19  O   UNL     1      15.956  -6.889   8.522  0.00  0.00    -0.471 OA
ATOM     20  C   UNL     1      16.195  -7.702   9.665  0.00  0.00    +0.253 C 
ENDBRANCH  18  19
TORSDOF 2
