REMARK  Name = 2bak_ligand
REMARK  12 active torsions:
REMARK  status: ('A' for Active; 'I' for Inactive)
REMARK    1  A    between atoms: C1_1  and  O2_2
REMARK    2  A    between atoms: O2_2  and  C3_3
REMARK    3  A    between atoms: C9_9  and  N10_10
REMARK    4  A    between atoms: N10_10  and  C11_11
REMARK    5  A    between atoms: C13_13  and  N14_14
REMARK    6  A    between atoms: C15_15  and  C17_17
REMARK    7  A    between atoms: C21_21  and  N23_23
REMARK    8  A    between atoms: C31_31  and  C32_32
REMARK    9  A    between atoms: C35_35  and  O36_36
REMARK   10  A    between atoms: O36_36  and  C37_37
REMARK   11  A    between atoms: C37_37  and  C38_38
REMARK   12  A    between atoms: C38_38  and  N39_39
REMARK                            x       y       z     vdW  Elec       q    Type
REMARK                         _______ _______ _______ _____ _____    ______ ____
ROOT
ATOM     17  N   UNL     1      -4.135   1.372  20.141  0.00  0.00    -0.255 N 
ATOM     18  H   UNL     1      -3.966   2.189  20.745  0.00  0.00    +0.219 HD
ENDROOT
BRANCH  17  16
ATOM      3  C   UNL     1      -3.924  -0.424  24.935  0.00  0.00    +0.132 A 
ATOM      4  C   UNL     1      -3.996   0.884  24.426  0.00  0.00    +0.133 A 
ATOM     14  C   UNL     1      -4.046   1.132  23.020  0.00  0.00    +0.037 A 
ATOM     15  C   UNL     1      -4.035   0.025  22.137  0.00  0.00    +0.039 A 
ATOM     16  C   UNL     1      -4.076   0.102  20.750  0.00  0.00    +0.149 A 
ATOM     42  N   UNL     1      -4.066  -0.981  19.965  0.00  0.00    -0.261 NA
ATOM     43  C   UNL     1      -3.976  -2.170  20.570  0.00  0.00    +0.154 A 
ATOM     44  N   UNL     1      -3.918  -2.363  21.879  0.00  0.00    -0.305 NA
ATOM     45  C   UNL     1      -3.949  -1.282  22.648  0.00  0.00    +0.026 A 
ATOM     46  C   UNL     1      -3.895  -1.488  24.017  0.00  0.00    +0.033 A 
BRANCH   3   2
ATOM      1  C   UNL     1      -3.991  -1.788  26.967  0.00  0.00    +0.234 C 
ATOM      2  O   UNL     1      -3.876  -0.517  26.330  0.00  0.00    -0.316 OA
ENDBRANCH   3   2
BRANCH   4   5
ATOM      5  O   UNL     1      -4.013   1.841  25.399  0.00  0.00    -0.311 OA
BRANCH   5   6
ATOM      6  C   UNL     1      -3.852   3.185  24.929  0.00  0.00    +0.242 C 
BRANCH   6   7
ATOM      7  C   UNL     1      -3.809   4.181  26.122  0.00  0.00    +0.165 C 
BRANCH   7   8
ATOM      8  N   UNL     1      -2.975   3.718  27.246  0.00  0.00    +0.237 N 
ATOM      9  H   UNL     1      -3.231   2.747  27.337  0.00  0.00    +0.203 HD
ATOM     10  C   UNL     1      -1.513   3.732  27.063  0.00  0.00    +0.131 C 
ATOM     11  C   UNL     1      -1.001   3.488  28.493  0.00  0.00    +0.056 C 
ATOM     12  C   UNL     1      -2.241   3.433  29.381  0.00  0.00    +0.056 C 
ATOM     13  C   UNL     1      -3.189   4.309  28.576  0.00  0.00    +0.131 C 
ENDBRANCH   7   8
ENDBRANCH   6   7
ENDBRANCH   5   6
ENDBRANCH   4   5
ENDBRANCH  17  16
BRANCH  17  19
ATOM     19  C   UNL     1      -4.403   1.623  18.789  0.00  0.00    +0.057 A 
ATOM     20  C   UNL     1      -5.692   1.311  18.253  0.00  0.00    -0.035 A 
ATOM     21  C   UNL     1      -6.844   0.687  19.023  0.00  0.00    +0.063 C 
ATOM     22  C   UNL     1      -5.936   1.621  16.927  0.00  0.00    -0.032 A 
ATOM     23  C   UNL     1      -4.969   2.193  16.130  0.00  0.00    -0.018 A 
ATOM     24  C   UNL     1      -3.716   2.519  16.640  0.00  0.00    +0.051 A 
ATOM     41  C   UNL     1      -3.423   2.217  17.979  0.00  0.00    +0.017 A 
BRANCH  24  25
ATOM     25  N   UNL     1      -2.721   3.114  15.837  0.00  0.00    -0.238 N 
ATOM     26  H   UNL     1      -3.026   3.776  15.152  0.00  0.00    +0.223 HD
ATOM     27  C   UNL     1      -1.361   2.865  15.910  0.00  0.00    +0.237 C 
ATOM     40  O   UNL     1      -0.825   2.072  16.710  0.00  0.00    -0.369 OA
BRANCH  27  28
ATOM     28  C   UNL     1      -0.498   3.580  14.897  0.00  0.00    +0.063 A 
ATOM     29  C   UNL     1       0.635   2.870  14.487  0.00  0.00    +0.070 A 
ATOM     30  C   UNL     1       1.526   3.401  13.531  0.00  0.00    +0.119 A 
ATOM     37  N   UNL     1       1.283   4.604  12.977  0.00  0.00    -0.281 NA
ATOM     38  C   UNL     1       0.148   5.299  13.345  0.00  0.00    +0.080 A 
ATOM     39  C   UNL     1      -0.771   4.825  14.288  0.00  0.00    +0.036 A 
BRANCH  30  31
ATOM     31  N   UNL     1       2.675   2.673  13.137  0.00  0.00    -0.289 N 
ATOM     32  C   UNL     1       2.932   1.426  13.858  0.00  0.00    +0.162 C 
ATOM     33  C   UNL     1       3.718   0.631  12.845  0.00  0.00    +0.184 C 
ATOM     34  O   UNL     1       5.031   1.217  12.809  0.00  0.00    -0.376 OA
ATOM     35  C   UNL     1       4.934   2.408  12.026  0.00  0.00    +0.184 C 
ATOM     36  C   UNL     1       3.881   3.391  12.636  0.00  0.00    +0.162 C 
ENDBRANCH  30  31
ENDBRANCH  27  28
ENDBRANCH  24  25
ENDBRANCH  17  19
TORSDOF 10
