REMARK  Name = 6Q3B
REMARK  0 active torsions:
REMARK  status: ('A' for Active; 'I' for Inactive)
REMARK                            x       y       z     vdW  Elec       q    Type
REMARK                         _______ _______ _______ _____ _____    ______ ____
ROOT
ATOM      1  N   UNL     1       1.380  -4.784 -28.621  0.00  0.00    -0.100 NA
ATOM      2  C   UNL     1       0.495  -5.113 -27.670  0.00  0.00    +0.000 A 
ATOM      3  C   UNL     1      -0.110  -3.954 -27.170  0.00  0.00    +0.000 A 
ATOM      4  I   UNL     1      -1.565  -3.757 -25.712  0.00  0.00    +0.000 I 
ATOM      5  C   UNL     1       0.519  -2.928 -27.767  0.00  0.00    +0.000 A 
ATOM      6  N   UNL     1       1.423  -3.455 -28.604  0.00  0.00    -0.100 NA
ENDROOT
TORSDOF 0
