REMARK  Name = 3bgz_ligand
REMARK  3 active torsions:
REMARK  status: ('A' for Active; 'I' for Inactive)
REMARK    1  A    between atoms: C16_2  and  C17_16
REMARK    2  A    between atoms: C3_4  and  C5_6
REMARK    3  A    between atoms: C9_9  and  C10_10
REMARK                            x       y       z     vdW  Elec       q    Type
REMARK                         _______ _______ _______ _____ _____    ______ ____
ROOT
ATOM      3  C   UNL     1     -17.671  36.548   1.986  0.00  0.00    +0.030 A 
ATOM      4  C   UNL     1     -18.102  37.426   2.993  0.00  0.00    -0.002 A 
ATOM      5  C   UNL     1     -19.054  38.406   2.716  0.00  0.00    -0.020 A 
ATOM      6  C   UNL     1     -19.547  38.542   1.437  0.00  0.00    -0.011 A 
ATOM      7  C   UNL     1     -19.125  37.695   0.406  0.00  0.00    -0.007 A 
ATOM      8  C   UNL     1     -19.469  37.586  -1.023  0.00  0.00    -0.002 A 
ATOM     15  C   UNL     1     -18.705  36.549  -1.523  0.00  0.00    +0.080 A 
ATOM     22  N   UNL     1     -17.957  36.014  -0.504  0.00  0.00    -0.268 N 
ATOM     23  H   UNL     1     -17.313  35.217  -0.607  0.00  0.00    +0.227 HD
ATOM     24  C   UNL     1     -18.184  36.687   0.672  0.00  0.00    +0.082 A 
ENDROOT
BRANCH   8   9
ATOM      9  C   UNL     1     -20.369  38.526  -1.750  0.00  0.00    -0.036 A 
ATOM     10  C   UNL     1     -19.885  39.096  -2.954  0.00  0.00    -0.006 A 
ATOM     11  C   UNL     1     -20.633  40.014  -3.668  0.00  0.00    -0.007 A 
ATOM     12  C   UNL     1     -21.872  40.405  -3.177  0.00  0.00    -0.010 A 
ATOM     13  C   UNL     1     -22.352  39.879  -1.977  0.00  0.00    -0.007 A 
ATOM     14  C   UNL     1     -21.609  38.952  -1.253  0.00  0.00    -0.006 A 
ENDBRANCH   8   9
BRANCH  15  16
ATOM     16  C   UNL     1     -18.694  36.030  -2.915  0.00  0.00    +0.009 A 
ATOM     17  C   UNL     1     -17.509  35.501  -3.459  0.00  0.00    +0.011 A 
ATOM     18  C   UNL     1     -17.504  35.011  -4.748  0.00  0.00    +0.001 A 
ATOM     19  C   UNL     1     -18.669  35.029  -5.512  0.00  0.00    -0.000 A 
ATOM     20  C   UNL     1     -19.854  35.527  -4.979  0.00  0.00    +0.001 A 
ATOM     21  C   UNL     1     -19.878  36.024  -3.684  0.00  0.00    +0.011 A 
ENDBRANCH  15  16
BRANCH   3   2
ATOM      1  O   UNL     1     -16.353  34.639   1.306  0.00  0.00    -0.564 OA
ATOM      2  C   UNL     1     -16.636  35.537   2.261  0.00  0.00    +0.058 C 
ATOM     25  O   UNL     1     -15.997  35.542   3.310  0.00  0.00    -0.564 OA
ENDBRANCH   3   2
TORSDOF 3
