REMARK  Name = 4D4M
REMARK  2 active torsions:
REMARK  status: ('A' for Active; 'I' for Inactive)
REMARK    1  A    between atoms: N_2  and  C_18
REMARK    2  A    between atoms: C_9  and  C_12
REMARK                            x       y       z     vdW  Elec       q    Type
REMARK                         _______ _______ _______ _____ _____    ______ ____
ROOT
ATOM      5  C   UNL     1     -39.958 -41.007 -11.306  0.00  0.00    +0.015 C 
ATOM      6  C   UNL     1     -41.329 -41.341 -11.589  0.00  0.00    +0.091 C 
ATOM      7  C   UNL     1     -42.201 -42.425 -11.231  0.00  0.00    +0.283 C 
ATOM      8  N   UNL     1     -43.488 -42.287 -11.751  0.00  0.00    -0.199 NA
ATOM      9  C   UNL     1     -43.884 -41.254 -12.539  0.00  0.00    +0.202 C 
ATOM     10  N   UNL     1     -43.117 -40.247 -12.906  0.00  0.00    -0.331 NA
ATOM     11  H   UNL     1     -43.452 -39.451 -13.538  0.00  0.00    +0.168 HD
ATOM     12  O   UNL     1     -41.897 -43.393 -10.544  0.00  0.00    -0.265 OA
ATOM     13  C   UNL     1     -41.849 -40.323 -12.397  0.00  0.00    +0.130 C 
ATOM     14  N   UNL     1     -40.851 -39.382 -12.592  0.00  0.00    -0.302 N 
ATOM     22  C   UNL     1     -39.727 -39.805 -11.918  0.00  0.00    +0.102 C 
ENDROOT
BRANCH  14  15
ATOM     15  C   UNL     1     -40.924 -38.158 -13.339  0.00  0.00    +0.048 A 
ATOM     16  C   UNL     1     -42.047 -37.348 -13.230  0.00  0.00    +0.027 A 
ATOM     17  C   UNL     1     -42.167 -36.218 -14.012  0.00  0.00    +0.017 A 
ATOM     18  C   UNL     1     -41.156 -35.902 -14.897  0.00  0.00    +0.018 A 
ATOM     19  C   UNL     1     -40.011 -36.674 -14.998  0.00  0.00    +0.017 A 
ATOM     20 BR   UNL     1     -41.332 -34.354 -15.985  0.00  0.00    -0.050 Br
ATOM     21  C   UNL     1     -39.898 -37.808 -14.214  0.00  0.00    +0.027 A 
ENDBRANCH  14  15
BRANCH   5   4
ATOM      1  C   UNL     1     -36.998 -42.962  -8.921  0.00  0.00    +0.000 A 
ATOM      2  C   UNL     1     -36.686 -42.534 -10.196  0.00  0.00    +0.001 A 
ATOM      3  C   UNL     1     -37.652 -41.927 -10.987  0.00  0.00    +0.008 A 
ATOM      4  C   UNL     1     -38.943 -41.730 -10.499  0.00  0.00    -0.016 A 
ATOM     23  C   UNL     1     -39.247 -42.176  -9.217  0.00  0.00    +0.008 A 
ATOM     24  C   UNL     1     -38.279 -42.789  -8.435  0.00  0.00    +0.001 A 
ENDBRANCH   5   4
TORSDOF 2
