REMARK  Name = 3ppj_ligand
REMARK  6 active torsions:
REMARK  status: ('A' for Active; 'I' for Inactive)
REMARK    1  A    between atoms: C7_7  and  N14_14
REMARK    2  A    between atoms: C8_8  and  C10_10
REMARK    3  A    between atoms: C10_10  and  O12_12
REMARK    4  A    between atoms: O12_12  and  C13_13
REMARK    5  A    between atoms: N14_14  and  C15_15
REMARK    6  A    between atoms: N24_24  and  O25_25
REMARK                            x       y       z     vdW  Elec       q    Type
REMARK                         _______ _______ _______ _____ _____    ______ ____
ROOT
ATOM      5  N   UNL     1      83.528   7.141  -7.289  0.00  0.00    -0.281 N 
ATOM      6  H   UNL     1      84.389   6.651  -7.048  0.00  0.00    +0.206 HD
ENDROOT
BRANCH   5   7
ATOM      7  C   UNL     1      82.348   6.410  -7.023  0.00  0.00    +0.051 A 
ATOM      8  C   UNL     1      81.278   6.433  -7.908  0.00  0.00    +0.010 A 
ATOM      9  C   UNL     1      80.156   5.710  -7.617  0.00  0.00    -0.040 A 
ATOM     10  C   UNL     1      78.921   5.626  -8.449  0.00  0.00    +0.081 C 
ATOM     11  C   UNL     1      78.018   4.695  -7.628  0.00  0.00    +0.092 C 
ATOM     12  C   UNL     1      78.856   4.354  -6.419  0.00  0.00    +0.043 C 
ATOM     13  N   UNL     1      78.534   3.598  -5.414  0.00  0.00    -0.188 NA
ATOM     16  C   UNL     1      80.075   5.018  -6.519  0.00  0.00    -0.013 A 
ATOM     17  C   UNL     1      81.105   4.962  -5.637  0.00  0.00    -0.010 A 
ATOM     18  C   UNL     1      82.253   5.671  -5.881  0.00  0.00    +0.003 A 
BRANCH  13  14
ATOM     14  O   UNL     1      77.244   3.077  -5.579  0.00  0.00    -0.275 OA
ATOM     15  H   UNL     1      77.212   2.555  -6.384  0.00  0.00    +0.270 HD
ENDBRANCH  13  14
ENDBRANCH   5   7
BRANCH   5   4
ATOM      1  C   UNL     1      80.794  10.790  -8.151  0.00  0.00    +0.066 A 
ATOM      2  C   UNL     1      81.409   9.581  -7.814  0.00  0.00    +0.028 A 
ATOM      3  C   UNL     1      82.761   9.455  -8.023  0.00  0.00    +0.050 A 
ATOM      4  C   UNL     1      83.717   8.382  -7.809  0.00  0.00    +0.111 A 
ATOM     19  C   UNL     1      84.927   8.881  -8.228  0.00  0.00    +0.219 A 
ATOM     24  O   UNL     1      84.766  10.168  -8.697  0.00  0.00    -0.247 OA
ATOM     25  C   UNL     1      83.448  10.455  -8.555  0.00  0.00    +0.151 A 
ATOM     26  C   UNL     1      82.835  11.650  -8.886  0.00  0.00    +0.120 A 
ATOM     27  N   UNL     1      81.505  11.813  -8.687  0.00  0.00    -0.311 NA
BRANCH  19  20
ATOM     20  C   UNL     1      86.323   8.345  -8.278  0.00  0.00    +0.280 C 
ATOM     23  O   UNL     1      87.293   8.961  -8.715  0.00  0.00    -0.369 OA
BRANCH  20  21
ATOM     21  O   UNL     1      86.389   7.069  -7.754  0.00  0.00    -0.283 OA
ATOM     22  C   UNL     1      87.699   6.491  -7.754  0.00  0.00    +0.236 C 
ENDBRANCH  20  21
ENDBRANCH  19  20
ENDBRANCH   5   4
TORSDOF 5
