REMARK  Name = 3RAI
REMARK  10 active torsions:
REMARK  status: ('A' for Active; 'I' for Inactive)
REMARK    1  A    between atoms: C_2  and  N_15
REMARK    2  A    between atoms: C_3  and  N_10
REMARK    3  A    between atoms: C_5  and  C_7
REMARK    4  A    between atoms: C_6  and  N_13
REMARK    5  A    between atoms: N_13  and  C_14
REMARK    6  A    between atoms: C_14  and  C_28
REMARK    7  A    between atoms: N_15  and  C_16
REMARK    8  A    between atoms: C_16  and  C_17
REMARK    9  A    between atoms: C_17  and  C_18
REMARK   10  A    between atoms: C_18  and  N_21
REMARK                            x       y       z     vdW  Elec       q    Type
REMARK                         _______ _______ _______ _____ _____    ______ ____
ROOT
ATOM      1  C   UNL     1     -65.232 -44.636 -10.616  0.00  0.00    +0.049 A 
ATOM      2  C   UNL     1     -65.106 -45.286 -11.897  0.00  0.00    +0.042 A 
ATOM     12  C   UNL     1     -66.275 -45.442 -12.725  0.00  0.00    +0.059 A 
ATOM     18  C   UNL     1     -67.547 -44.958 -12.254  0.00  0.00    +0.049 A 
ATOM     19  C   UNL     1     -67.668 -44.317 -10.968  0.00  0.00    +0.148 A 
ATOM     23  C   UNL     1     -66.492 -44.154 -10.154  0.00  0.00    +0.059 A 
ENDROOT
BRANCH  12  13
ATOM     13  C   UNL     1     -66.186 -46.090 -14.062  0.00  0.00    +0.243 C 
ATOM     14  O   UNL     1     -65.385 -46.961 -14.348  0.00  0.00    -0.270 OA
ATOM     15  N   UNL     1     -67.062 -45.617 -15.021  0.00  0.00    -0.325 N 
ATOM     16  H   UNL     1     -67.055 -46.036 -16.006  0.00  0.00    +0.145 HD
ATOM     17  H   UNL     1     -67.747 -44.832 -14.779  0.00  0.00    +0.145 HD
ENDBRANCH  12  13
BRANCH  19  20
ATOM     20  N   UNL     1     -68.906 -43.868 -10.539  0.00  0.00    +0.058 N 
ATOM     21  O   UNL     1     -68.999 -43.315  -9.422  0.00  0.00    -0.126 OA
ATOM     22  O   UNL     1     -69.878 -44.044 -11.287  0.00  0.00    -0.126 OA
ENDBRANCH  19  20
BRANCH   2   3
ATOM      3  N   UNL     1     -63.862 -45.761 -12.336  0.00  0.00    -0.339 N 
ATOM      4  H   UNL     1     -63.815 -46.235 -13.294  0.00  0.00    +0.146 HD
BRANCH   3   5
ATOM      5  C   UNL     1     -62.618 -45.647 -11.559  0.00  0.00    +0.138 C 
BRANCH   5   6
ATOM      6  C   UNL     1     -62.563 -46.708 -10.459  0.00  0.00    -0.012 A 
ATOM      7  C   UNL     1     -62.211 -46.325  -9.131  0.00  0.00    +0.008 A 
ATOM      8  C   UNL     1     -62.158 -47.293  -8.083  0.00  0.00    +0.020 A 
ATOM      9  C   UNL     1     -62.459 -48.650  -8.368  0.00  0.00    +0.111 A 
ATOM     10  N   UNL     1     -62.812 -49.035  -9.699  0.00  0.00    -0.263 NA
ATOM     11  C   UNL     1     -62.866 -48.074 -10.746  0.00  0.00    +0.115 A 
ENDBRANCH   5   6
ENDBRANCH   3   5
ENDBRANCH   2   3
BRANCH  23  24
ATOM     24  N   UNL     1     -66.573 -43.524  -8.911  0.00  0.00    -0.342 N 
ATOM     25  H   UNL     1     -66.996 -42.543  -8.857  0.00  0.00    +0.146 HD
BRANCH  24  26
ATOM     26  C   UNL     1     -66.105 -44.151  -7.690  0.00  0.00    +0.103 C 
BRANCH  26  27
ATOM     27  C   UNL     1     -64.859 -43.415  -7.239  0.00  0.00    +0.034 C 
BRANCH  27  28
ATOM     28  C   UNL     1     -64.204 -44.136  -6.077  0.00  0.00    +0.086 C 
BRANCH  28  29
ATOM     29  N   UNL     1     -63.017 -43.355  -5.722  0.00  0.00    -0.298 NA
ATOM     30  C   UNL     1     -63.345 -42.418  -4.527  0.00  0.00    +0.112 C 
ATOM     31  C   UNL     1     -62.104 -41.577  -4.148  0.00  0.00    +0.175 C 
ATOM     32  O   UNL     1     -60.911 -41.930  -5.072  0.00  0.00    -0.377 OA
ATOM     33  C   UNL     1     -60.581 -43.451  -5.037  0.00  0.00    +0.175 C 
ATOM     34  C   UNL     1     -61.823 -44.290  -5.406  0.00  0.00    +0.112 C 
ENDBRANCH  28  29
ENDBRANCH  27  28
ENDBRANCH  26  27
ENDBRANCH  24  26
ENDBRANCH  23  24
TORSDOF 10
