REMARK  Name = 6RX
REMARK  2 active torsions:
REMARK  status: ('A' for Active; 'I' for Inactive)
REMARK    1  A    between atoms: C05_10  and  C06_11
REMARK    2  A    between atoms: N11_15  and  C12_16
REMARK                            x       y       z     vdW  Elec       q    Type
REMARK                         _______ _______ _______ _____ _____    ______ ____
ROOT
ATOM      1  C   UNL     1       8.554  -6.432 -20.691  0.00  0.00    +0.354 C 
ATOM      2  N   UNL     1       8.402  -5.337 -19.870  0.00  0.00    -0.265 N 
ATOM      5  C   UNL     1       7.878  -4.165 -20.386  0.00  0.00    +0.152 A 
ATOM      6  N   UNL     1       7.724  -3.056 -19.589  0.00  0.00    -0.228 NA
ATOM      7  C   UNL     1       7.203  -1.899 -20.030  0.00  0.00    +0.111 A 
ATOM      8  C   UNL     1       6.916  -0.750 -19.207  0.00  0.00    +0.255 C 
ATOM      9  O   UNL     1       6.398   0.167 -20.178  0.00  0.00    -0.439 OA
ATOM     10  C   UNL     1       6.261  -0.442 -21.377  0.00  0.00    +0.343 C 
ATOM     11  O   UNL     1       5.718   0.132 -22.365  0.00  0.00    -0.245 OA
ATOM     12  C   UNL     1       6.801  -1.713 -21.289  0.00  0.00    +0.093 A 
ATOM     13  C   UNL     1       6.945  -2.765 -22.299  0.00  0.00    +0.015 A 
ATOM     21  C   UNL     1       7.463  -4.078 -21.747  0.00  0.00    +0.092 A 
ATOM     22  C   UNL     1       7.658  -5.247 -22.542  0.00  0.00    +0.286 C 
ATOM     23  O   UNL     1       7.341  -5.306 -23.764  0.00  0.00    -0.265 OA
ATOM     24  O   UNL     1       9.041  -7.519 -20.281  0.00  0.00    -0.244 OA
ATOM     25  N   UNL     1       8.181  -6.377 -21.993  0.00  0.00    -0.153 NA
ENDROOT
BRANCH  13  14
ATOM     14  C   UNL     1       7.924  -2.228 -23.300  0.00  0.00    +0.001 A 
ATOM     15  C   UNL     1       9.167  -1.720 -22.850  0.00  0.00    -0.000 A 
ATOM     16  C   UNL     1      10.123  -1.209 -23.736  0.00  0.00    -0.004 A 
ATOM     17  C   UNL     1       9.876  -1.189 -25.116  0.00  0.00    -0.022 A 
ATOM     18  C   UNL     1       8.652  -1.699 -25.587  0.00  0.00    -0.004 A 
ATOM     19  C   UNL     1      10.866  -0.654 -26.066  0.00  0.00    +0.031 C 
ATOM     20  C   UNL     1       7.690  -2.210 -24.693  0.00  0.00    -0.000 A 
ENDBRANCH  13  14
BRANCH   2   3
ATOM      3  C   UNL     1       8.789  -5.466 -18.476  0.00  0.00    +0.112 C 
ATOM      4  C   UNL     1      10.249  -5.104 -18.176  0.00  0.00    +0.027 C 
ENDBRANCH   2   3
TORSDOF 2
