REMARK  Name = 1pxn_ligand
REMARK  5 active torsions:
REMARK  status: ('A' for Active; 'I' for Inactive)
REMARK    1  A    between atoms: C6A_1  and  C1A_2
REMARK    2  A    between atoms: N7A_5  and  C8A_6
REMARK    3  A    between atoms: C5A_7  and  C4_9
REMARK    4  A    between atoms: N7_15  and  C1B_16
REMARK    5  A    between atoms: C4B_21  and  O7B_22
REMARK                            x       y       z     vdW  Elec       q    Type
REMARK                         _______ _______ _______ _____ _____    ______ ____
ROOT
ATOM      4  C   UNL     1       0.520   5.234  26.718  0.00  0.00    +0.036 A 
ATOM      5  N   UNL     1       1.643   5.803  27.215  0.00  0.00    -0.269 NA
ATOM      6  C   UNL     1       2.455   5.119  28.075  0.00  0.00    +0.191 A 
ATOM      7  N   UNL     1       3.561   5.687  28.573  0.00  0.00    -0.250 N 
ATOM      8  H   UNL     1       4.101   5.096  29.221  0.00  0.00    +0.215 HD
ATOM     17  N   UNL     1       2.179   3.833  28.465  0.00  0.00    -0.268 NA
ATOM     18  C   UNL     1       1.033   3.290  27.935  0.00  0.00    +0.085 A 
ATOM     19  C   UNL     1       0.151   3.925  27.058  0.00  0.00    +0.027 A 
ENDROOT
BRANCH   4   3
ATOM      1  C   UNL     1      -2.460   4.753  25.077  0.00  0.00    +0.101 C 
ATOM      2  C   UNL     1      -1.487   5.893  25.148  0.00  0.00    +0.005 A 
ATOM      3  C   UNL     1      -0.303   6.069  25.802  0.00  0.00    +0.061 A 
ATOM     20  S   UNL     1       0.364   7.708  25.472  0.00  0.00    +0.018 S 
ATOM     21  C   UNL     1      -1.031   8.017  24.460  0.00  0.00    +0.190 A 
ATOM     22  N   UNL     1      -1.323   9.116  23.777  0.00  0.00    -0.281 N 
ATOM     23  H   UNL     1      -2.200   9.105  23.237  0.00  0.00    +0.194 HD
ATOM     24  C   UNL     1      -0.527  10.344  23.712  0.00  0.00    +0.174 C 
ATOM     25  N   UNL     1      -1.823   6.990  24.436  0.00  0.00    -0.291 NA
ENDBRANCH   4   3
BRANCH   7   9
ATOM      9  C   UNL     1       4.094   6.957  28.349  0.00  0.00    +0.055 A 
ATOM     10  C   UNL     1       5.289   7.398  28.990  0.00  0.00    +0.005 A 
ATOM     11  C   UNL     1       5.813   8.691  28.749  0.00  0.00    +0.009 A 
ATOM     12  C   UNL     1       5.157   9.568  27.859  0.00  0.00    +0.076 A 
ATOM     15  C   UNL     1       3.993   9.144  27.228  0.00  0.00    +0.009 A 
ATOM     16  C   UNL     1       3.498   7.887  27.478  0.00  0.00    +0.005 A 
BRANCH  12  13
ATOM     13  O   UNL     1       5.602  10.853  27.560  0.00  0.00    -0.340 OA
ATOM     14  H   UNL     1       5.006  11.257  26.940  0.00  0.00    +0.244 HD
ENDBRANCH  12  13
ENDBRANCH   7   9
TORSDOF 3
