REMARK  Name = 7K7
REMARK  2 active torsions:
REMARK  status: ('A' for Active; 'I' for Inactive)
REMARK    1  A    between atoms: C6_9  and  S_11
REMARK    2  A    between atoms: S_11  and  N_13
REMARK                            x       y       z     vdW  Elec       q    Type
REMARK                         _______ _______ _______ _____ _____    ______ ____
ROOT
ATOM      5  S   UNL     1     -13.790  24.981 -27.494  0.00  0.00    +0.063 S 
ATOM     16  O   UNL     1     -13.145  26.015 -26.746  0.00  0.00    -0.153 OA
ATOM     17  O   UNL     1     -14.431  25.291 -28.729  0.00  0.00    -0.153 OA
ENDROOT
BRANCH   5   6
ATOM      6  C   UNL     1     -14.979  24.229 -26.442  0.00  0.00    +0.122 A 
ATOM      7  C   UNL     1     -15.822  25.005 -25.588  0.00  0.00    +0.022 A 
ATOM      8  C   UNL     1     -16.648  24.298 -24.672  0.00  0.00    +0.021 A 
ATOM      9  C   UNL     1     -17.415  25.068 -23.769  0.00  0.00    +0.099 A 
ATOM     10  N   UNL     1     -17.424  26.393 -23.739  0.00  0.00    -0.242 NA
ATOM     11  C   UNL     1     -16.666  27.039 -24.641  0.00  0.00    +0.099 A 
ATOM     12  C   UNL     1     -16.654  22.881 -24.694  0.00  0.00    +0.002 A 
ATOM     13  C   UNL     1     -15.857  22.191 -25.560  0.00  0.00    +0.001 A 
ATOM     14  C   UNL     1     -15.875  26.419 -25.559  0.00  0.00    +0.022 A 
ATOM     15  C   UNL     1     -15.010  22.862 -26.427  0.00  0.00    +0.020 A 
ENDBRANCH   5   6
BRANCH   5   4
ATOM      1  C   UNL     1      -9.466  23.679 -27.651  0.00  0.00    +0.090 C 
ATOM      2  C   UNL     1     -10.472  24.196 -26.644  0.00  0.00    +0.038 C 
ATOM      3  C   UNL     1     -11.770  23.420 -26.688  0.00  0.00    +0.097 C 
ATOM      4  N   UNL     1     -12.646  23.840 -27.799  0.00  0.00    -0.155 NA
ATOM     18  C   UNL     1     -12.491  23.125 -29.091  0.00  0.00    +0.097 C 
ATOM     19  C   UNL     1     -13.247  21.808 -29.103  0.00  0.00    +0.021 C 
ATOM     20  C   UNL     1     -11.013  22.719 -29.415  0.00  0.00    +0.106 C 
ATOM     21  N   UNL     1      -9.980  23.730 -29.053  0.00  0.00    -0.217 NA
ENDBRANCH   5   4
TORSDOF 2
