REMARK  Name = 1N1
REMARK  4 active torsions:
REMARK  status: ('A' for Active; 'I' for Inactive)
REMARK    1  A    between atoms: C2_2  and  C3_3
REMARK    2  A    between atoms: N6_4  and  C20_12
REMARK    3  A    between atoms: C11_5  and  N_14
REMARK    4  A    between atoms: C20_12  and  C21_13
REMARK                            x       y       z     vdW  Elec       q    Type
REMARK                         _______ _______ _______ _____ _____    ______ ____
ROOT
ATOM      5  C   UNL     1      11.993   1.947  24.806  0.00  0.00    +0.158 A 
ATOM      6  C   UNL     1      11.894   1.804  26.198  0.00  0.00    +0.070 A 
ATOM      7  C   UNL     1      11.855   0.512  26.762  0.00  0.00    +0.136 A 
ATOM      8  N   UNL     1      11.741   0.354  28.158  0.00  0.00    -0.290 N 
ATOM      9  C   UNL     1      11.492   1.578  28.923  0.00  0.00    +0.110 C 
ATOM     10  C   UNL     1      11.869   1.313  30.372  0.00  0.00    +0.094 C 
ATOM     11  N   UNL     1      10.965   0.251  30.799  0.00  0.00    -0.268 NA
ATOM     15  C   UNL     1      10.948  -1.019  30.051  0.00  0.00    +0.094 C 
ATOM     16  C   UNL     1      11.873  -0.957  28.814  0.00  0.00    +0.110 C 
ATOM     17  N   UNL     1      11.912  -0.563  25.944  0.00  0.00    -0.216 NA
ATOM     18  C   UNL     1      12.004  -0.396  24.597  0.00  0.00    +0.142 A 
ATOM     19  C   UNL     1      12.083  -1.589  23.683  0.00  0.00    +0.074 C 
ATOM     20  N   UNL     1      12.068   0.834  24.045  0.00  0.00    -0.214 NA
ENDROOT
BRANCH   5   4
ATOM      1  C   UNL     1      12.366   4.779  21.080  0.00  0.00    +0.112 A 
ATOM      2  N   UNL     1      12.181   4.693  22.425  0.00  0.00    -0.221 NA
ATOM      3  C   UNL     1      12.175   3.431  22.896  0.00  0.00    +0.185 A 
ATOM      4  N   UNL     1      12.039   3.185  24.234  0.00  0.00    -0.170 NA
ATOM     21  S   UNL     1      12.474   2.210  21.635  0.00  0.00    -0.045 S 
ATOM     22  C   UNL     1      12.557   3.538  20.457  0.00  0.00    +0.108 A 
BRANCH  22  23
ATOM     23  C   UNL     1      12.768   3.163  19.034  0.00  0.00    +0.292 C 
ATOM     24  O   UNL     1      12.673   1.996  18.715  0.00  0.00    -0.266 OA
ATOM     25  N   UNL     1      13.042   4.127  18.150  0.00  0.00    -0.083 NA
ENDBRANCH  22  23
ENDBRANCH   5   4
BRANCH  11  12
ATOM     12  C   UNL     1      10.100   0.406  31.994  0.00  0.00    +0.108 C 
BRANCH  12  13
ATOM     13  C   UNL     1       9.701   1.877  32.253  0.00  0.00    +0.199 C 
ATOM     14  O   UNL     1       8.266   2.064  32.413  0.00  0.00    -0.219 OA
ENDBRANCH  12  13
ENDBRANCH  11  12
TORSDOF 4
