REMARK  Name = 1K0
REMARK  3 active torsions:
REMARK  status: ('A' for Active; 'I' for Inactive)
REMARK    1  A    between atoms: O1_1  and  C2_3
REMARK    2  A    between atoms: C4_5  and  O2_8
REMARK    3  A    between atoms: C8_13  and  C9_15
REMARK                            x       y       z     vdW  Elec       q    Type
REMARK                         _______ _______ _______ _____ _____    ______ ____
ROOT
ATOM      3  C   UNL     1      44.580  -3.636  23.585  0.00  0.00    +0.143 A 
ATOM      4  C   UNL     1      44.846  -4.727  24.315  0.00  0.00    +0.056 A 
ATOM      5  C   UNL     1      43.962  -5.833  24.200  0.00  0.00    +0.094 A 
ATOM      6  N   UNL     1      44.172  -6.962  25.005  0.00  0.00    -0.226 NA
ATOM      7  C   UNL     1      43.331  -8.053  24.963  0.00  0.00    +0.165 A 
ATOM     17  N   UNL     1      42.262  -8.098  24.154  0.00  0.00    -0.189 NA
ATOM     18  C   UNL     1      41.980  -6.966  23.297  0.00  0.00    +0.285 A 
ATOM     19  O   UNL     1      40.950  -7.045  22.510  0.00  0.00    -0.265 OA
ATOM     20  C   UNL     1      42.841  -5.808  23.363  0.00  0.00    +0.110 A 
ATOM     21  C   UNL     1      42.589  -4.662  22.694  0.00  0.00    +0.148 A 
ATOM     24  C   UNL     1      43.429  -3.567  22.770  0.00  0.00    +0.074 A 
ENDROOT
BRANCH   7   8
ATOM      8  C   UNL     1      43.674  -9.249  25.809  0.00  0.00    +0.035 A 
ATOM      9  C   UNL     1      44.968  -9.396  26.357  0.00  0.00    +0.002 A 
ATOM     10  C   UNL     1      45.267 -10.550  27.015  0.00  0.00    +0.017 A 
ATOM     11  C   UNL     1      46.698 -10.647  27.520  0.00  0.00    +0.034 C 
ATOM     12  C   UNL     1      44.301 -11.568  27.163  0.00  0.00    +0.188 A 
ATOM     13  O   UNL     1      44.561 -12.723  27.907  0.00  0.00    -0.287 OA
ATOM     14  C   UNL     1      43.027 -11.447  26.612  0.00  0.00    +0.017 A 
ATOM     15  C   UNL     1      42.055 -12.519  26.695  0.00  0.00    +0.034 C 
ATOM     16  C   UNL     1      42.721 -10.240  25.932  0.00  0.00    +0.002 A 
ENDBRANCH   7   8
BRANCH   3   1
ATOM      1  O   UNL     1      45.438  -2.567  23.640  0.00  0.00    -0.471 OA
ATOM      2  C   UNL     1      46.655  -2.647  24.380  0.00  0.00    +0.253 C 
ENDBRANCH   3   1
BRANCH  21  22
ATOM     22  O   UNL     1      41.418  -4.555  21.946  0.00  0.00    -0.471 OA
ATOM     23  C   UNL     1      41.020  -3.267  21.399  0.00  0.00    +0.253 C 
ENDBRANCH  21  22
TORSDOF 3
