REMARK  Name = 6HVJ
REMARK  4 active torsions:
REMARK  status: ('A' for Active; 'I' for Inactive)
REMARK    1  A    between atoms: SBB_2  and  CBA_5
REMARK    2  A    between atoms: CAM_10  and  NAL_11
REMARK    3  A    between atoms: NAL_11  and  CAI_12
REMARK    4  A    between atoms: CAG_21  and  CAK_22
REMARK                            x       y       z     vdW  Elec       q    Type
REMARK                         _______ _______ _______ _____ _____    ______ ____
ROOT
ATOM      6  C   UNL     1      40.050 -41.218  11.677  0.00  0.00    +0.050 A 
ATOM      7  C   UNL     1      41.078 -42.173  11.522  0.00  0.00    -0.130 A 
ATOM      8  C   UNL     1      42.361 -41.852  11.971  0.00  0.00    +0.000 A 
ATOM      9  C   UNL     1      42.639 -40.621  12.538  0.00  0.00    +0.000 A 
ATOM     10  C   UNL     1      41.617 -39.674  12.665  0.00  0.00    +0.000 A 
ATOM     21  N   UNL     1      43.896 -40.314  12.968  0.00  0.00    -0.380 NA
ATOM     22  C   UNL     1      44.936 -41.226  12.837  0.00  0.00    +0.250 A 
ATOM     23  C   UNL     1      44.656 -42.454  12.258  0.00  0.00    +0.250 A 
ATOM     24  N   UNL     1      43.355 -42.736  11.843  0.00  0.00    -0.380 NA
ATOM     25  C   UNL     1      40.342 -39.983  12.241  0.00  0.00    -0.130 A 
ENDROOT
BRANCH  10  11
ATOM     11  C   UNL     1      41.882 -38.431  13.286  0.00  0.00    +0.000 A 
ATOM     12  C   UNL     1      42.906 -37.618  12.832  0.00  0.00    -0.130 A 
ATOM     13  C   UNL     1      43.141 -36.411  13.464  0.00  0.00    -0.130 A 
ATOM     14  C   UNL     1      42.417 -36.056  14.514  0.00  0.00    +0.000 A 
ATOM     15  O   UNL     1      42.489 -34.874  15.346  0.00  0.00    +0.000 OA
ATOM     16  C   UNL     1      41.544 -35.016  16.264  0.00  0.00    -0.100 A 
ATOM     17  C   UNL     1      40.936 -36.181  16.050  0.00  0.00    -0.050 A 
ATOM     18  C   UNL     1      39.785 -36.655  16.939  0.00  0.00    -0.150 C 
ATOM     19  C   UNL     1      41.439 -36.840  14.993  0.00  0.00    +0.050 A 
ATOM     20  C   UNL     1      41.157 -38.015  14.418  0.00  0.00    -0.130 A 
ENDBRANCH  10  11
BRANCH   6   5
ATOM      5  N   UNL     1      38.778 -41.428  11.287  0.00  0.00    -0.350 NA
BRANCH   5   4
ATOM      3  C   UNL     1      37.431 -43.020  10.297  0.00  0.00    +0.060 A 
ATOM      4  C   UNL     1      38.583 -42.256  10.280  0.00  0.00    +0.050 A 
ATOM     26  C   UNL     1      39.487 -42.373   9.232  0.00  0.00    +0.250 A 
ATOM     27  N   UNL     1      39.253 -43.266   8.181  0.00  0.00    -0.760 NA
ATOM     28  C   UNL     1      38.101 -44.037   8.207  0.00  0.00    +0.250 A 
ATOM     29  C   UNL     1      37.213 -43.925   9.261  0.00  0.00    -0.130 A 
BRANCH   3   2
ATOM      1  C   UNL     1      37.174 -43.529  13.046  0.00  0.00    -0.090 C 
ATOM      2  S   UNL     1      36.277 -42.948  11.630  0.00  0.00    +1.180 S 
ATOM     30  O   UNL     1      35.595 -41.594  11.811  0.00  0.00    -0.650 OA
ATOM     31  O   UNL     1      35.167 -43.950  11.387  0.00  0.00    -0.650 OA
ENDBRANCH   3   2
ENDBRANCH   5   4
ENDBRANCH   6   5
TORSDOF 4
