REMARK  Name = 3BM
REMARK  7 active torsions:
REMARK  status: ('A' for Active; 'I' for Inactive)
REMARK    1  A    between atoms: C01_1  and  N07_7
REMARK    2  A    between atoms: N07_7  and  C08_8
REMARK    3  A    between atoms: C09_9  and  C14_14
REMARK    4  A    between atoms: N15_15  and  O17_17
REMARK    5  A    between atoms: O17_17  and  C18_18
REMARK    6  A    between atoms: C18_18  and  C19_19
REMARK    7  A    between atoms: C19_19  and  C20_20
REMARK                            x       y       z     vdW  Elec       q    Type
REMARK                         _______ _______ _______ _____ _____    ______ ____
ROOT
ATOM      8  C   UNL     1      -0.918  58.595  34.078  0.00  0.00    +0.105 A 
ATOM      9  C   UNL     1      -2.253  58.148  33.858  0.00  0.00    +0.075 A 
ATOM     19  C   UNL     1      -2.505  56.835  33.421  0.00  0.00    +0.008 A 
ATOM     20  C   UNL     1      -1.448  55.947  33.207  0.00  0.00    +0.032 A 
ATOM     21  C   UNL     1      -0.146  56.378  33.424  0.00  0.00    +0.169 A 
ATOM     22  F   UNL     1       0.861  55.545  33.175  0.00  0.00    -0.202 F 
ATOM     23  C   UNL     1       0.122  57.682  33.856  0.00  0.00    +0.183 A 
ATOM     24  F   UNL     1       1.413  58.048  34.003  0.00  0.00    -0.200 F 
ENDROOT
BRANCH   9  10
ATOM     10  C   UNL     1      -3.412  59.020  34.213  0.00  0.00    +0.291 C 
ATOM     11  O   UNL     1      -3.289  59.872  35.097  0.00  0.00    -0.266 OA
ATOM     12  N   UNL     1      -4.602  58.748  33.582  0.00  0.00    -0.058 NA
BRANCH  12  13
ATOM     13  O   UNL     1      -5.722  59.571  33.938  0.00  0.00    -0.241 OA
BRANCH  13  14
ATOM     14  C   UNL     1      -6.032  59.444  35.345  0.00  0.00    +0.209 C 
BRANCH  14  15
ATOM     15  C   UNL     1      -7.543  59.622  35.545  0.00  0.00    +0.217 C 
ATOM     16  O   UNL     1      -7.803  60.591  36.588  0.00  0.00    -0.218 OA
BRANCH  15  17
ATOM     17  C   UNL     1      -8.206  58.311  35.961  0.00  0.00    +0.217 C 
ATOM     18  O   UNL     1      -9.612  58.540  36.061  0.00  0.00    -0.217 OA
ENDBRANCH  15  17
ENDBRANCH  14  15
ENDBRANCH  13  14
ENDBRANCH  12  13
ENDBRANCH   9  10
BRANCH   8   7
ATOM      7  N   UNL     1      -0.667  59.914  34.445  0.00  0.00    -0.210 NA
BRANCH   7   1
ATOM      1  C   UNL     1       0.225  60.889  33.924  0.00  0.00    +0.071 A 
ATOM      2  C   UNL     1       0.223  62.173  34.500  0.00  0.00    +0.017 A 
ATOM      3  C   UNL     1       1.044  63.189  34.030  0.00  0.00    +0.007 A 
ATOM      4  C   UNL     1       1.933  62.920  32.981  0.00  0.00    +0.030 A 
ATOM      5  C   UNL     1       1.957  61.656  32.345  0.00  0.00    +0.007 A 
ATOM      6  I   UNL     1       3.145  64.424  32.278  0.00  0.00    -0.043 I 
ATOM     25  C   UNL     1       1.112  60.646  32.845  0.00  0.00    +0.017 A 
ENDBRANCH   7   1
ENDBRANCH   8   7
TORSDOF 7
