REMARK  Name = M03
REMARK  4 active torsions:
REMARK  status: ('A' for Active; 'I' for Inactive)
REMARK    1  A    between atoms: C4_4  and  C5_5
REMARK    2  A    between atoms: C4_4  and  C9_9
REMARK    3  A    between atoms: C4_28  and  C5_29
REMARK    4  A    between atoms: C4_28  and  C9_33
REMARK                            x       y       z     vdW  Elec       q    Type
REMARK                         _______ _______ _______ _____ _____    ______ ____
ROOT
ATOM      1  N   UNL     1      -5.995  -9.127  -8.328  0.00  0.00    -0.293 N 
ATOM      2  C   UNL     1      -7.173  -9.877  -7.874  0.00  0.00    +0.092 C 
ATOM      3  C   UNL     1      -7.938 -10.423  -9.075  0.00  0.00    +0.027 C 
ATOM      4  C   UNL     1      -8.434  -9.305 -10.006  0.00  0.00    +0.040 C 
ATOM     12  C   UNL     1      -7.208  -8.444 -10.364  0.00  0.00    +0.027 C 
ATOM     15  C   UNL     1      -4.837  -9.844  -8.570  0.00  0.00    +0.133 A 
ATOM     16  N   UNL     1      -4.874 -11.171  -8.288  0.00  0.00    -0.209 NA
ATOM     17  C   UNL     1      -3.767 -11.888  -8.500  0.00  0.00    +0.201 A 
ATOM     18  N   UNL     1      -2.575 -11.475  -8.943  0.00  0.00    -0.205 NA
ATOM     19  C   UNL     1      -2.564 -10.151  -9.203  0.00  0.00    +0.163 A 
ATOM     20  N   UNL     1      -1.502  -9.425  -9.681  0.00  0.00    -0.230 NA
ATOM     21  C   UNL     1      -1.860  -8.126  -9.769  0.00  0.00    +0.079 C 
ATOM     22  C   UNL     1      -3.178  -8.006  -9.387  0.00  0.00    +0.079 C 
ATOM     23  C   UNL     1      -3.636  -9.280  -9.029  0.00  0.00    +0.051 A 
ATOM     24  C   UNL     1      -6.446  -7.979  -9.136  0.00  0.00    +0.092 C 
ENDROOT
BRANCH   4   5
ATOM      5  C   UNL     1      -9.555  -8.495  -9.357  0.00  0.00    -0.021 A 
ATOM      6  C   UNL     1     -10.308  -9.029  -8.312  0.00  0.00    -0.003 A 
ATOM      7  C   UNL     1     -11.345  -8.309  -7.762  0.00  0.00    +0.011 A 
ATOM      8  C   UNL     1     -11.655  -7.058  -8.260  0.00  0.00    +0.058 A 
ATOM      9 CL   UNL     1     -12.957  -6.156  -7.571  0.00  0.00    -0.082 Cl
ATOM     10  C   UNL     1     -10.926  -6.526  -9.309  0.00  0.00    +0.011 A 
ATOM     11  C   UNL     1      -9.887  -7.240  -9.857  0.00  0.00    -0.003 A 
ENDBRANCH   4   5
BRANCH   4  13
ATOM     13  C   UNL     1      -8.999  -9.903 -11.322  0.00  0.00    +0.113 C 
ATOM     14  N   UNL     1     -10.158 -10.822 -11.119  0.00  0.00    -0.131 NA
ENDBRANCH   4  13
TORSDOF 2
