REMARK  Name = 4BZD
REMARK  8 active torsions:
REMARK  status: ('A' for Active; 'I' for Inactive)
REMARK    1  A    between atoms: C_13  and  O_29
REMARK    2  A    between atoms: C_14  and  N_26
REMARK    3  A    between atoms: C_17  and  N_28
REMARK    4  A    between atoms: C_18  and  N_28
REMARK    5  A    between atoms: C_19  and  C_20
REMARK    6  A    between atoms: C_19  and  C_21
REMARK    7  A    between atoms: C_20  and  N_28
REMARK    8  A    between atoms: C_21  and  O_29
REMARK                            x       y       z     vdW  Elec       q    Type
REMARK                         _______ _______ _______ _____ _____    ______ ____
ROOT
ATOM      7  C   UNL     1      13.490  -8.866  13.665  0.00  0.00    +0.144 A 
ATOM      8  N   UNL     1      13.563  -9.152  14.966  0.00  0.00    -0.218 NA
ATOM      9  C   UNL     1      12.613  -9.980  15.404  0.00  0.00    +0.225 A 
ATOM     10  N   UNL     1      11.631 -10.553  14.711  0.00  0.00    -0.221 NA
ATOM     11  C   UNL     1      11.609 -10.263  13.406  0.00  0.00    +0.129 A 
ATOM     12  N   UNL     1      10.588 -10.903  12.727  0.00  0.00    -0.284 N 
ATOM     13  H   UNL     1      10.122 -11.688  13.285  0.00  0.00    +0.155 HD
ATOM     14  C   UNL     1      10.056 -10.720  11.465  0.00  0.00    +0.124 A 
ATOM     15  N   UNL     1      10.628  -9.823  10.653  0.00  0.00    -0.236 NA
ATOM     16  C   UNL     1      10.119  -9.671   9.422  0.00  0.00    +0.158 A 
ATOM     17  C   UNL     1       9.047 -10.412   8.962  0.00  0.00    +0.139 A 
ATOM     25  C   UNL     1       8.447 -11.316   9.811  0.00  0.00    +0.050 A 
ATOM     26  C   UNL     1       8.955 -11.482  11.081  0.00  0.00    +0.047 A 
ATOM     27  C   UNL     1      12.556  -9.435  12.798  0.00  0.00    +0.090 A 
ENDROOT
BRANCH   7   6
ATOM      1  C   UNL     1      15.056  -5.482   9.989  0.00  0.00    +0.002 A 
ATOM      2  C   UNL     1      15.995  -5.656  10.993  0.00  0.00    +0.030 A 
ATOM      3  C   UNL     1      15.716  -6.540  12.034  0.00  0.00    +0.089 A 
ATOM      4  N   UNL     1      16.473  -6.895  13.144  0.00  0.00    -0.235 NA
ATOM      5  C   UNL     1      15.736  -7.755  13.806  0.00  0.00    +0.206 A 
ATOM      6  N   UNL     1      14.533  -8.021  13.186  0.00  0.00    -0.283 N 
ATOM     28  C   UNL     1      14.497  -7.211  12.047  0.00  0.00    +0.075 A 
ATOM     29  C   UNL     1      13.554  -7.037  11.043  0.00  0.00    +0.028 A 
ATOM     30  C   UNL     1      13.855  -6.155  10.016  0.00  0.00    +0.002 A 
ENDBRANCH   7   6
BRANCH  17  18
ATOM     18  O   UNL     1       8.548 -10.248   7.693  0.00  0.00    -0.490 OA
BRANCH  18  19
ATOM     19  C   UNL     1       9.269  -9.431   6.764  0.00  0.00    +0.230 C 
BRANCH  19  20
ATOM     20  C   UNL     1       8.790  -9.762   5.377  0.00  0.00    +0.056 C 
BRANCH  20  21
ATOM     21  C   UNL     1       8.500 -11.236   5.171  0.00  0.00    +0.087 C 
BRANCH  21  22
ATOM     22  N   UNL     1       9.156 -11.806   3.998  0.00  0.00    -0.308 NA
ATOM     23  C   UNL     1       9.560 -13.181   4.247  0.00  0.00    +0.104 C 
ATOM     24  C   UNL     1       8.278 -11.754   2.840  0.00  0.00    +0.104 C 
ENDBRANCH  21  22
ENDBRANCH  20  21
ENDBRANCH  19  20
ENDBRANCH  18  19
ENDBRANCH  17  18
TORSDOF 6
