REMARK  Name = 4bi2_ligand
REMARK  0 active torsions:
REMARK  status: ('A' for Active; 'I' for Inactive)
REMARK                            x       y       z     vdW  Elec       q    Type
REMARK                         _______ _______ _______ _____ _____    ______ ____
ROOT
ATOM      1  C   UNL     1      -0.721  42.143  17.031  0.00  0.00    +0.008 A 
ATOM      2  C   UNL     1       0.147  42.885  16.148  0.00  0.00    +0.011 A 
ATOM      3  C   UNL     1       0.787  44.014  16.764  0.00  0.00    +0.110 A 
ATOM      4  S   UNL     1       1.758  44.822  15.579  0.00  0.00    -0.015 S 
ATOM      5  C   UNL     1       1.361  43.701  14.332  0.00  0.00    +0.089 A 
ATOM      6  N   UNL     1       0.694  44.397  18.043  0.00  0.00    -0.280 NA
ATOM      7  C   UNL     1      -0.087  43.673  18.821  0.00  0.00    +0.105 A 
ATOM      8  C   UNL     1       0.516  42.729  14.732  0.00  0.00    -0.006 A 
ATOM      9  C   UNL     1      -1.519  41.051  16.604  0.00  0.00    +0.044 A 
ATOM     10  C   UNL     1      -2.346  40.446  17.497  0.00  0.00    +0.090 A 
ATOM     11  N   UNL     1      -2.468  40.800  18.784  0.00  0.00    -0.295 NA
ATOM     12  C   UNL     1      -1.730  41.823  19.207  0.00  0.00    +0.112 A 
ATOM     13  C   UNL     1      -0.836  42.549  18.394  0.00  0.00    +0.027 A 
ENDROOT
TORSDOF 0
