REMARK  Name = 4CTC
REMARK  5 active torsions:
REMARK  status: ('A' for Active; 'I' for Inactive)
REMARK    1  A    between atoms: C_1  and  C_5
REMARK    2  A    between atoms: N_6  and  C_15
REMARK    3  A    between atoms: N_11  and  C_18
REMARK    4  A    between atoms: N_13  and  C_21
REMARK    5  A    between atoms: C_17  and  C_29
REMARK                            x       y       z     vdW  Elec       q    Type
REMARK                         _______ _______ _______ _____ _____    ______ ____
ROOT
ATOM      1  C   UNL     1      32.646  42.167   8.314  0.00  0.00    +0.057 C 
ATOM      2  C   UNL     1      32.021  43.537   8.496  0.00  0.00    +0.202 C 
ATOM      3  C   UNL     1      32.976  44.545   9.124  0.00  0.00    +0.007 A 
ATOM      4  C   UNL     1      33.454  44.341  10.423  0.00  0.00    +0.046 A 
ATOM      5  C   UNL     1      34.276  45.282  10.999  0.00  0.00    +0.124 A 
ATOM      6  C   UNL     1      34.674  46.415  10.355  0.00  0.00    +0.039 A 
ATOM      7  C   UNL     1      34.234  46.619   9.063  0.00  0.00    +0.016 A 
ATOM      8  F   UNL     1      34.698  45.084  12.273  0.00  0.00    -0.205 F 
ATOM      9  C   UNL     1      33.381  45.703   8.437  0.00  0.00    +0.044 A 
ATOM     10  C   UNL     1      33.033  45.977   7.000  0.00  0.00    +0.247 C 
ATOM     11  N   UNL     1      32.274  47.049   6.694  0.00  0.00    -0.295 N 
ATOM     12  C   UNL     1      32.074  47.384   5.288  0.00  0.00    +0.133 C 
ATOM     13  C   UNL     1      31.670  47.945   7.672  0.00  0.00    +0.163 C 
ATOM     14  C   UNL     1      30.192  48.330   7.488  0.00  0.00    +0.064 A 
ATOM     15  C   UNL     1      29.030  47.646   7.800  0.00  0.00    +0.029 A 
ATOM     16  C   UNL     1      27.983  48.483   7.279  0.00  0.00    +0.074 A 
ATOM     20  N   UNL     1      28.467  49.564   6.741  0.00  0.00    -0.175 NA
ATOM     21  C   UNL     1      28.910  46.379   8.590  0.00  0.00    +0.007 A 
ATOM     22  C   UNL     1      27.939  46.199   9.570  0.00  0.00    +0.121 A 
ATOM     23  N   UNL     1      27.883  45.113  10.358  0.00  0.00    -0.236 NA
ATOM     24  C   UNL     1      28.836  44.162  10.225  0.00  0.00    +0.158 A 
ATOM     25  C   UNL     1      29.863  44.274   9.276  0.00  0.00    +0.161 A 
ATOM     29  C   UNL     1      29.857  45.374   8.428  0.00  0.00    +0.059 A 
ATOM     30  N   UNL     1      29.809  49.489   6.891  0.00  0.00    -0.269 N 
ATOM     31  C   UNL     1      30.628  50.614   6.455  0.00  0.00    +0.173 C 
ATOM     32  O   UNL     1      33.521  45.249   6.150  0.00  0.00    -0.270 OA
ATOM     33  O   UNL     1      30.873  43.339   9.321  0.00  0.00    -0.481 OA
ENDROOT
BRANCH  16  17
ATOM     17  C   UNL     1      26.492  48.249   7.292  0.00  0.00    +0.040 C 
ATOM     18  C   UNL     1      25.597  49.152   8.104  0.00  0.00    +0.010 C 
ATOM     19  C   UNL     1      25.565  49.238   6.630  0.00  0.00    +0.010 C 
ENDBRANCH  16  17
BRANCH  24  26
ATOM     26  N   UNL     1      28.775  43.085  11.026  0.00  0.00    -0.340 N 
ATOM     27  H   UNL     1      29.514  42.316  10.945  0.00  0.00    +0.144 HD
ATOM     28  H   UNL     1      27.987  42.997  11.745  0.00  0.00    +0.144 HD
ENDBRANCH  24  26
TORSDOF 2
