REMARK  Name = 5CQU
REMARK  8 active torsions:
REMARK  status: ('A' for Active; 'I' for Inactive)
REMARK    1  A    between atoms: N_1  and  C_2
REMARK    2  A    between atoms: C_2  and  C_3
REMARK    3  A    between atoms: C_3  and  C_4
REMARK    4  A    between atoms: C_4  and  C_5
REMARK    5  A    between atoms: C_5  and  N_6
REMARK    6  A    between atoms: C_8  and  C_9
REMARK    7  A    between atoms: C_9  and  C_10
REMARK    8  A    between atoms: C_10  and  N_11
REMARK                            x       y       z     vdW  Elec       q    Type
REMARK                         _______ _______ _______ _____ _____    ______ ____
ROOT
ATOM     14  N   UNL     1       4.545  -1.569 -13.899  0.00  0.00    -0.149 NA
ATOM     15  N   UNL     1       4.758  -2.886 -13.730  0.00  0.00    -0.259 N 
ATOM     16  H   UNL     1       4.734  -3.403 -12.794  0.00  0.00    +0.168 HD
ATOM     17  C   UNL     1       5.006  -3.451 -14.928  0.00  0.00    +0.081 A 
ATOM     18  C   UNL     1       5.279  -4.698 -15.350  0.00  0.00    +0.057 A 
ATOM     19 BR   UNL     1       5.383  -6.183 -14.046  0.00  0.00    -0.047 Br
ATOM     20  C   UNL     1       5.504  -4.956 -16.813  0.00  0.00    +0.049 A 
ATOM     21 BR   UNL     1       5.897  -6.733 -17.436  0.00  0.00    -0.048 Br
ATOM     22  C   UNL     1       5.429  -3.905 -17.732  0.00  0.00    +0.049 A 
ATOM     23 BR   UNL     1       5.731  -4.302 -19.632  0.00  0.00    -0.048 Br
ATOM     24  C   UNL     1       5.152  -2.632 -17.312  0.00  0.00    +0.057 A 
ATOM     25 BR   UNL     1       5.050  -1.240 -18.523  0.00  0.00    -0.047 Br
ATOM     26  C   UNL     1       4.928  -2.369 -15.869  0.00  0.00    +0.081 A 
ATOM     27  N   UNL     1       4.633  -1.225 -15.108  0.00  0.00    -0.259 N 
ATOM     28  H   UNL     1       4.505  -0.233 -15.489  0.00  0.00    +0.168 HD
ENDROOT
BRANCH  14  13
ATOM     13  C   UNL     1       4.239  -0.626 -12.751  0.00  0.00    +0.134 C 
BRANCH  13  12
ATOM     12  C   UNL     1       5.181  -0.651 -11.617  0.00  0.00    +0.077 C 
BRANCH  12  11
ATOM      8  N   UNL     1       4.934  -3.742  -9.359  0.00  0.00    -0.252 N 
ATOM      9  N   UNL     1       4.398  -2.725  -8.585  0.00  0.00    -0.066 NA
ATOM     10  N   UNL     1       4.402  -1.596  -9.203  0.00  0.00    -0.135 NA
ATOM     11  C   UNL     1       4.970  -1.755 -10.508  0.00  0.00    +0.084 A 
ATOM     29  C   UNL     1       5.311  -3.202 -10.571  0.00  0.00    +0.133 A 
BRANCH   8   7
ATOM      7  C   UNL     1       5.065  -5.094  -8.953  0.00  0.00    +0.145 C 
BRANCH   7   6
ATOM      6  C   UNL     1       4.760  -6.221 -10.010  0.00  0.00    +0.024 C 
BRANCH   6   5
ATOM      5  C   UNL     1       4.992  -7.638  -9.601  0.00  0.00    +0.017 C 
BRANCH   5   4
ATOM      4  C   UNL     1       4.162  -8.189  -8.490  0.00  0.00    +0.078 C 
BRANCH   4   1
ATOM      1  N   UNL     1       4.740  -9.145  -7.667  0.00  0.00    -0.330 NA
ATOM      2  H   UNL     1       5.026  -9.994  -8.252  0.00  0.00    +0.118 HD
ATOM      3  H   UNL     1       5.606  -8.732  -7.193  0.00  0.00    +0.118 HD
ENDBRANCH   4   1
ENDBRANCH   5   4
ENDBRANCH   6   5
ENDBRANCH   7   6
ENDBRANCH   8   7
ENDBRANCH  12  11
ENDBRANCH  13  12
ENDBRANCH  14  13
TORSDOF 8
