REMARK  Name = 5N1V
REMARK  3 active torsions:
REMARK  status: ('A' for Active; 'I' for Inactive)
REMARK    1  A    between atoms: C_13  and  C_19
REMARK    2  A    between atoms: C_17  and  C_21
REMARK    3  A    between atoms: C_19  and  O_28
REMARK                            x       y       z     vdW  Elec       q    Type
REMARK                         _______ _______ _______ _____ _____    ______ ____
ROOT
ATOM      1  C   UNL     1     -70.285  21.117  -1.009  0.00  0.00    +0.036 A 
ATOM      2  C   UNL     1     -71.421  21.489  -1.725  0.00  0.00    +0.029 A 
ATOM      3  C   UNL     1     -71.389  21.544  -3.117  0.00  0.00    -0.020 A 
ATOM      4  C   UNL     1     -72.604  21.956  -3.914  0.00  0.00    +0.046 C 
ATOM      5  C   UNL     1     -72.215  22.587  -5.248  0.00  0.00    +0.101 C 
ATOM      6  C   UNL     1     -71.102  21.875  -5.967  0.00  0.00    +0.218 C 
ATOM      7  O   UNL     1     -71.024  21.855  -7.194  0.00  0.00    -0.276 OA
ATOM      8  N   UNL     1     -70.166  21.287  -5.190  0.00  0.00    -0.282 N 
ATOM      9  H   UNL     1     -69.340  20.813  -5.678  0.00  0.00    +0.155 HD
ATOM     10  C   UNL     1     -70.201  21.255  -3.799  0.00  0.00    +0.079 A 
ATOM     11  C   UNL     1     -69.072  20.847  -3.069  0.00  0.00    +0.144 A 
ATOM     12  O   UNL     1     -67.942  20.624  -3.817  0.00  0.00    -0.486 OA
ATOM     13  C   UNL     1     -67.421  19.284  -3.884  0.00  0.00    +0.256 C 
ATOM     14  C   UNL     1     -66.473  18.993  -2.781  0.00  0.00    +0.011 C 
ATOM     15  C   UNL     1     -65.625  17.980  -2.708  0.00  0.00    -0.000 C 
ATOM     16  C   UNL     1     -65.929  16.546  -2.481  0.00  0.00    +0.187 C 
ATOM     17  O   UNL     1     -65.669  16.140  -1.121  0.00  0.00    -0.371 OA
ATOM     18  C   UNL     1     -66.803  15.499  -0.524  0.00  0.00    +0.134 C 
ATOM     19  C   UNL     1     -67.985  16.438  -0.295  0.00  0.00    +0.119 C 
ATOM     20  N   UNL     1     -67.730  16.957   1.063  0.00  0.00    -0.264 NA
ATOM     21  C   UNL     1     -68.279  18.132   1.550  0.00  0.00    +0.181 C 
ATOM     22  N   UNL     1     -68.170  18.374   2.883  0.00  0.00    -0.233 NA
ATOM     23  C   UNL     1     -68.713  19.519   3.335  0.00  0.00    +0.171 A 
ATOM     24  N   UNL     1     -69.398  20.414   2.520  0.00  0.00    -0.222 N 
ATOM     25  N   UNL     1     -69.867  21.509   3.227  0.00  0.00    -0.296 N 
ATOM     26  H   UNL     1     -70.404  22.356   2.854  0.00  0.00    +0.187 HD
ATOM     27  C   UNL     1     -69.486  21.255   4.501  0.00  0.00    +0.124 A 
ATOM     28  C   UNL     1     -69.578  20.141   1.196  0.00  0.00    +0.124 C 
ATOM     29  C   UNL     1     -68.763  20.059   4.634  0.00  0.00    +0.113 A 
ATOM     32  C   UNL     1     -69.024  18.962   0.704  0.00  0.00    +0.066 C 
ATOM     33  C   UNL     1     -66.715  16.177   1.791  0.00  0.00    +0.087 C 
ATOM     37  C   UNL     1     -66.493  14.971   0.867  0.00  0.00    +0.054 C 
ATOM     38  N   UNL     1     -70.285  21.047   0.400  0.00  0.00    -0.299 N 
ATOM     39  H   UNL     1     -70.891  21.764   0.914  0.00  0.00    +0.154 HD
ATOM     40  C   UNL     1     -69.103  20.818  -1.685  0.00  0.00    +0.070 A 
ENDROOT
BRANCH  29  30
ATOM     30  C   UNL     1     -68.173  19.525   5.822  0.00  0.00    +0.104 C 
ATOM     31  N   UNL     1     -67.720  19.126   6.790  0.00  0.00    -0.191 NA
ENDBRANCH  29  30
BRANCH  33  34
ATOM     34  C   UNL     1     -65.423  16.864   2.202  0.00  0.00    +0.174 C 
BRANCH  34  35
ATOM     35  O   UNL     1     -64.688  16.015   3.079  0.00  0.00    -0.394 OA
ATOM     36  H   UNL     1     -65.263  15.813   3.934  0.00  0.00    +0.209 HD
ENDBRANCH  34  35
ENDBRANCH  33  34
TORSDOF 3
