REMARK  Name = 4p7e_ligand
REMARK  4 active torsions:
REMARK  status: ('A' for Active; 'I' for Inactive)
REMARK    1  A    between atoms: C8_1  and  C7_6
REMARK    2  A    between atoms: C7_6  and  N6_25
REMARK    3  A    between atoms: C11_9  and  C14_12
REMARK    4  A    between atoms: C24_18  and  C26_19
REMARK                            x       y       z     vdW  Elec       q    Type
REMARK                         _______ _______ _______ _____ _____    ______ ____
ROOT
ATOM      5  C   UNL     1       4.236  45.729   6.863  0.00  0.00    +0.083 A 
ATOM      6  N   UNL     1       4.593  45.092   5.721  0.00  0.00    -0.216 N 
ATOM      7  N   UNL     1       3.881  44.870   4.610  0.00  0.00    -0.118 NA
ATOM      8  C   UNL     1       4.707  44.190   3.785  0.00  0.00    +0.351 A 
ATOM      9  N   UNL     1       5.889  43.961   4.376  0.00  0.00    -0.179 N 
ATOM     10  H   UNL     1       6.694  43.456   3.979  0.00  0.00    +0.243 HD
ATOM     11  N   UNL     1       4.403  43.756   2.466  0.00  0.00    -0.141 N 
ATOM     12  H   UNL     1       5.090  43.241   1.953  0.00  0.00    +0.284 HD
ATOM     13  C   UNL     1       3.209  44.020   1.885  0.00  0.00    +0.251 C 
ATOM     14  O   UNL     1       2.345  44.684   2.435  0.00  0.00    -0.359 OA
ATOM     18  C   UNL     1       5.808  44.523   5.587  0.00  0.00    +0.178 A 
ATOM     19  C   UNL     1       6.784  44.556   6.583  0.00  0.00    +0.090 A 
ATOM     20  C   UNL     1       6.474  45.266   7.745  0.00  0.00    +0.051 A 
ATOM     21  C   UNL     1       5.205  45.847   7.876  0.00  0.00    +0.054 A 
ENDROOT
BRANCH   5   4
ATOM      1  C   UNL     1       0.418  47.429   7.540  0.00  0.00    +0.025 A 
ATOM      2  C   UNL     1       1.070  47.616   6.316  0.00  0.00    +0.032 A 
ATOM      3  C   UNL     1       2.302  47.004   6.060  0.00  0.00    +0.039 A 
ATOM      4  C   UNL     1       2.955  46.268   7.057  0.00  0.00    +0.026 A 
ATOM     22  C   UNL     1       2.301  46.085   8.282  0.00  0.00    +0.039 A 
ATOM     23  C   UNL     1       1.043  46.649   8.519  0.00  0.00    +0.032 A 
BRANCH   1  24
ATOM     24  C   UNL     1      -0.965  48.044   7.814  0.00  0.00    +0.222 C 
BRANCH  24  25
ATOM     25  N   UNL     1      -0.877  49.354   8.504  0.00  0.00    +0.254 N 
ATOM     26  H   UNL     1      -1.854  49.601   8.504  0.00  0.00    +0.205 HD
ATOM     27  C   UNL     1      -0.348  50.481   7.697  0.00  0.00    +0.156 C 
ATOM     28  C   UNL     1      -0.433  51.777   8.460  0.00  0.00    +0.216 C 
ATOM     29  S   UNL     1       0.532  51.920   9.946  0.00  0.00    -0.021 S 
ATOM     30  O   UNL     1      -0.248  52.614  10.953  0.00  0.00    -0.174 OA
ATOM     31  O   UNL     1       1.869  52.370   9.610  0.00  0.00    -0.174 OA
ATOM     32  C   UNL     1       0.576  50.182  10.312  0.00  0.00    +0.216 C 
ATOM     33  C   UNL     1      -0.642  49.365   9.971  0.00  0.00    +0.156 C 
ENDBRANCH  24  25
ENDBRANCH   1  24
ENDBRANCH   5   4
BRANCH  13  15
ATOM     15  C   UNL     1       2.948  43.461   0.501  0.00  0.00    +0.120 C 
ATOM     16  C   UNL     1       2.228  44.387  -0.503  0.00  0.00    +0.029 C 
ATOM     17  C   UNL     1       1.466  43.214   0.140  0.00  0.00    +0.029 C 
ENDBRANCH  13  15
TORSDOF 4
