REMARK  Name = 5U6C
REMARK  7 active torsions:
REMARK  status: ('A' for Active; 'I' for Inactive)
REMARK    1  A    between atoms: C_5  and  C_31
REMARK    2  A    between atoms: C_7  and  C_23
REMARK    3  A    between atoms: C_11  and  N_16
REMARK    4  A    between atoms: C_11  and  C_29
REMARK    5  A    between atoms: C_13  and  N_32
REMARK    6  A    between atoms: N_19  and  C_28
REMARK    7  A    between atoms: C_29  and  O_30
REMARK                            x       y       z     vdW  Elec       q    Type
REMARK                         _______ _______ _______ _____ _____    ______ ____
ROOT
ATOM      1  N   UNL     1      -2.121 -22.926 -18.073  0.00  0.00    -0.234 NA
ATOM      2  C   UNL     1      -2.853 -22.762 -19.199  0.00  0.00    +0.179 A 
ATOM      6  C   UNL     1      -3.733 -21.616 -19.236  0.00  0.00    +0.257 A 
ATOM      7  O   UNL     1      -4.489 -21.470 -20.344  0.00  0.00    -0.466 OA
ATOM      8  C   UNL     1      -5.375 -20.362 -20.502  0.00  0.00    +0.205 C 
ATOM      9  C   UNL     1      -6.499 -20.777 -21.429  0.00  0.00    +0.057 C 
ATOM     10  C   UNL     1      -4.582 -19.118 -20.968  0.00  0.00    +0.026 A 
ATOM     11  C   UNL     1      -3.714 -19.132 -22.067  0.00  0.00    +0.083 A 
ATOM     12 CL   UNL     1      -3.462 -20.575 -22.990  0.00  0.00    -0.080 Cl
ATOM     13  C   UNL     1      -3.004 -18.000 -22.451  0.00  0.00    +0.142 A 
ATOM     14  F   UNL     1      -2.208 -18.029 -23.542  0.00  0.00    -0.204 F 
ATOM     15  C   UNL     1      -3.121 -16.822 -21.757  0.00  0.00    +0.040 A 
ATOM     16  C   UNL     1      -3.976 -16.772 -20.671  0.00  0.00    +0.016 A 
ATOM     17  C   UNL     1      -4.698 -17.905 -20.269  0.00  0.00    +0.045 A 
ATOM     18  C   UNL     1      -5.611 -17.758 -19.075  0.00  0.00    +0.247 C 
ATOM     19  O   UNL     1      -6.821 -17.746 -19.259  0.00  0.00    -0.270 OA
ATOM     20  N   UNL     1      -5.067 -17.654 -17.848  0.00  0.00    -0.295 N 
ATOM     21  C   UNL     1      -5.973 -17.407 -16.729  0.00  0.00    +0.133 C 
ATOM     22  C   UNL     1      -3.641 -17.723 -17.537  0.00  0.00    +0.163 C 
ATOM     23  C   UNL     1      -3.248 -18.491 -16.262  0.00  0.00    +0.066 A 
ATOM     24  N   UNL     1      -3.079 -17.945 -15.024  0.00  0.00    -0.264 N 
ATOM     25  N   UNL     1      -2.777 -18.879 -14.062  0.00  0.00    -0.175 NA
ATOM     26  C   UNL     1      -2.732 -20.039 -14.680  0.00  0.00    +0.070 A 
ATOM     27  C   UNL     1      -2.452 -21.279 -13.898  0.00  0.00    +0.068 C 
ATOM     32  C   UNL     1      -3.027 -19.855 -16.114  0.00  0.00    +0.047 A 
ATOM     33  C   UNL     1      -3.045 -20.915 -17.162  0.00  0.00    +0.097 A 
ATOM     34  N   UNL     1      -3.816 -20.740 -18.246  0.00  0.00    -0.208 NA
ATOM     35  C   UNL     1      -2.216 -22.030 -17.081  0.00  0.00    +0.141 A 
ENDROOT
BRANCH   2   3
ATOM      3  N   UNL     1      -2.688 -23.647 -20.191  0.00  0.00    -0.339 N 
ATOM      4  H   UNL     1      -3.251 -23.548 -21.096  0.00  0.00    +0.144 HD
ATOM      5  H   UNL     1      -1.994 -24.453 -20.079  0.00  0.00    +0.144 HD
ENDBRANCH   2   3
BRANCH  24  28
ATOM     28  C   UNL     1      -3.091 -16.539 -14.619  0.00  0.00    +0.171 C 
BRANCH  28  29
ATOM     29  C   UNL     1      -1.697 -15.951 -14.551  0.00  0.00    +0.179 C 
BRANCH  29  30
ATOM     30  O   UNL     1      -1.095 -16.097 -15.823  0.00  0.00    -0.393 OA
ATOM     31  H   UNL     1      -1.046 -17.116 -16.073  0.00  0.00    +0.209 HD
ENDBRANCH  29  30
ENDBRANCH  28  29
ENDBRANCH  24  28
TORSDOF 4
