REMARK  Name = 5C8N
REMARK  10 active torsions:
REMARK  status: ('A' for Active; 'I' for Inactive)
REMARK    1  A    between atoms: C_3  and  C_7
REMARK    2  A    between atoms: C_3  and  C_8
REMARK    3  A    between atoms: C_3  and  N_13
REMARK    4  A    between atoms: C_10  and  C_11
REMARK    5  A    between atoms: N_14  and  C_15
REMARK    6  A    between atoms: C_24  and  C_27
REMARK    7  A    between atoms: C_24  and  O_30
REMARK    8  A    between atoms: C_27  and  C_28
REMARK    9  A    between atoms: C_28  and  N_29
REMARK   10  A    between atoms: O_30  and  C_31
REMARK                            x       y       z     vdW  Elec       q    Type
REMARK                         _______ _______ _______ _____ _____    ______ ____
ROOT
ATOM     14  C   UNL     1     -54.786   1.117 -24.482  0.00  0.00    +0.129 A 
ATOM     15  N   UNL     1     -53.800   0.286 -24.816  0.00  0.00    -0.199 NA
ATOM     16  C   UNL     1     -53.891  -0.473 -25.891  0.00  0.00    +0.220 A 
ATOM     17  N   UNL     1     -52.852  -1.345 -26.179  0.00  0.00    -0.299 N 
ATOM     18  C   UNL     1     -51.646  -1.169 -25.354  0.00  0.00    +0.111 C 
ATOM     19  C   UNL     1     -50.932  -2.540 -25.300  0.00  0.00    +0.054 C 
ATOM     20  C   UNL     1     -50.676  -3.108 -26.717  0.00  0.00    +0.073 C 
ATOM     28  C   UNL     1     -51.931  -3.049 -27.618  0.00  0.00    +0.054 C 
ATOM     29  C   UNL     1     -52.566  -1.657 -27.597  0.00  0.00    +0.111 C 
ATOM     30  N   UNL     1     -54.971  -0.431 -26.658  0.00  0.00    -0.223 NA
ATOM     31  C   UNL     1     -55.987   0.384 -26.402  0.00  0.00    +0.118 A 
ATOM     32  C   UNL     1     -55.927   1.206 -25.285  0.00  0.00    +0.063 A 
ENDROOT
BRANCH  14  12
ATOM      1  C   UNL     1     -52.730   1.340 -19.787  0.00  0.00    +0.107 A 
ATOM      2  N   UNL     1     -51.962   0.961 -18.729  0.00  0.00    -0.231 NA
ATOM      3  C   UNL     1     -51.181  -0.015 -19.096  0.00  0.00    +0.108 A 
ATOM      4  N   UNL     1     -51.389  -0.307 -20.431  0.00  0.00    -0.325 N 
ATOM      8  C   UNL     1     -50.214  -0.647 -18.126  0.00  0.00    +0.086 C 
ATOM      9  C   UNL     1     -52.366   0.534 -20.895  0.00  0.00    +0.074 A 
ATOM     10  C   UNL     1     -53.006   0.700 -22.134  0.00  0.00    +0.071 A 
ATOM     11  C   UNL     1     -53.997   1.670 -22.213  0.00  0.00    +0.126 A 
ATOM     12  N   UNL     1     -54.696   1.935 -23.378  0.00  0.00    -0.284 N 
ATOM     13  H   UNL     1     -55.218   2.868 -23.425  0.00  0.00    +0.155 HD
ATOM     33  N   UNL     1     -54.305   2.429 -21.160  0.00  0.00    -0.238 NA
ATOM     34  C   UNL     1     -53.719   2.297 -19.976  0.00  0.00    +0.142 A 
BRANCH   4   5
ATOM      5  C   UNL     1     -50.784  -1.278 -21.336  0.00  0.00    +0.083 C 
ATOM      6  C   UNL     1     -51.086  -2.742 -21.057  0.00  0.00    +0.030 C 
ATOM      7  C   UNL     1     -49.345  -0.935 -21.697  0.00  0.00    +0.030 C 
ENDBRANCH   4   5
ENDBRANCH  14  12
BRANCH  20  21
ATOM     21  O   UNL     1     -49.649  -2.351 -27.394  0.00  0.00    -0.376 OA
ATOM     22  C   UNL     1     -48.432  -2.084 -26.681  0.00  0.00    +0.194 C 
ENDBRANCH  20  21
BRANCH  20  23
ATOM     23  C   UNL     1     -50.263  -4.579 -26.557  0.00  0.00    +0.050 C 
BRANCH  23  24
ATOM     24  C   UNL     1     -49.713  -5.127 -27.885  0.00  0.00    +0.080 C 
BRANCH  24  25
ATOM     25  N   UNL     1     -49.176  -6.481 -27.712  0.00  0.00    -0.330 NA
ATOM     26  H   UNL     1     -48.383  -6.462 -26.994  0.00  0.00    +0.118 HD
ATOM     27  H   UNL     1     -49.952  -7.132 -27.368  0.00  0.00    +0.118 HD
ENDBRANCH  24  25
ENDBRANCH  23  24
ENDBRANCH  20  23
TORSDOF 6
