REMARK  Name = 4QMM
REMARK  4 active torsions:
REMARK  status: ('A' for Active; 'I' for Inactive)
REMARK    1  A    between atoms: C_2  and  N_7
REMARK    2  A    between atoms: N_3  and  C_4
REMARK    3  A    between atoms: C_18  and  C_19
REMARK    4  A    between atoms: C_19  and  N_20
REMARK                            x       y       z     vdW  Elec       q    Type
REMARK                         _______ _______ _______ _____ _____    ______ ____
ROOT
ATOM      3  N   UNL     1     126.070   1.136  75.825  0.00  0.00    -0.160 NA
ATOM      4  C   UNL     1     126.307   0.093  74.981  0.00  0.00    +0.104 C 
ATOM      5  C   UNL     1     127.032   0.170  73.781  0.00  0.00    +0.113 C 
ATOM      6  C   UNL     1     127.633   1.305  73.179  0.00  0.00    +0.135 A 
ATOM      7  N   UNL     1     127.620   2.556  73.693  0.00  0.00    -0.338 N 
ATOM      8  H   UNL     1     127.171   2.861  74.615  0.00  0.00    +0.167 HD
ATOM      9  C   UNL     1     128.278   3.342  72.824  0.00  0.00    +0.065 A 
ATOM     10  C   UNL     1     128.562   4.718  72.873  0.00  0.00    +0.032 A 
ATOM     11  C   UNL     1     129.286   5.324  71.809  0.00  0.00    -0.031 A 
ATOM     19  C   UNL     1     129.696   4.520  70.706  0.00  0.00    +0.007 A 
ATOM     20  C   UNL     1     129.410   3.135  70.675  0.00  0.00    +0.028 A 
ATOM     21  C   UNL     1     128.693   2.568  71.747  0.00  0.00    +0.064 A 
ATOM     22  N   UNL     1     128.285   1.314  71.994  0.00  0.00    -0.338 N 
ATOM     23  H   UNL     1     128.448   0.466  71.362  0.00  0.00    +0.167 HD
ATOM     24  N   UNL     1     127.042  -1.057  73.228  0.00  0.00    -0.232 N 
ATOM     25  H   UNL     1     127.506  -1.318  72.300  0.00  0.00    +0.175 HD
ATOM     26  N   UNL     1     126.396  -1.873  74.007  0.00  0.00    -0.188 NA
ATOM     27  C   UNL     1     125.929  -1.241  75.093  0.00  0.00    +0.157 C 
ENDROOT
BRANCH   3   2
ATOM      1  O   UNL     1     124.816   0.116  77.439  0.00  0.00    -0.251 OA
ATOM      2  C   UNL     1     125.347   1.145  76.966  0.00  0.00    +0.324 C 
ATOM     28  N   UNL     1     125.240   2.346  77.579  0.00  0.00    -0.295 N 
ATOM     29  H   UNL     1     124.995   2.356  78.621  0.00  0.00    +0.151 HD
BRANCH  28  30
ATOM     30  C   UNL     1     125.432   3.596  76.928  0.00  0.00    +0.075 C 
ATOM     31  C   UNL     1     125.936   4.729  77.833  0.00  0.00    +0.024 C 
ATOM     32  C   UNL     1     126.878   4.106  76.792  0.00  0.00    +0.024 C 
ENDBRANCH  28  30
ENDBRANCH   3   2
BRANCH  11  12
ATOM     12  C   UNL     1     129.576   6.790  71.818  0.00  0.00    +0.120 C 
BRANCH  12  13
ATOM     13  N   UNL     1     130.999   7.256  71.970  0.00  0.00    -0.294 NA
ATOM     14  C   UNL     1     131.228   8.577  71.289  0.00  0.00    +0.113 C 
ATOM     15  C   UNL     1     132.668   9.110  71.512  0.00  0.00    +0.175 C 
ATOM     16  O   UNL     1     133.033   9.113  72.911  0.00  0.00    -0.377 OA
ATOM     17  C   UNL     1     132.876   7.821  73.535  0.00  0.00    +0.175 C 
ATOM     18  C   UNL     1     131.416   7.330  73.403  0.00  0.00    +0.113 C 
ENDBRANCH  12  13
ENDBRANCH  11  12
TORSDOF 4
