REMARK  Name = 2zjw_ligand
REMARK  4 active torsions:
REMARK  status: ('A' for Active; 'I' for Inactive)
REMARK    1  A    between atoms: C9_9  and  O20_18
REMARK    2  A    between atoms: C10_10  and  O19_17
REMARK    3  A    between atoms: C15_15  and  O23_21
REMARK    4  A    between atoms: C16_16  and  O22_20
REMARK                            x       y       z     vdW  Elec       q    Type
REMARK                         _______ _______ _______ _____ _____    ______ ____
ROOT
ATOM      1  C   UNL     1      36.299  -4.121  11.346  0.00  0.00    +0.045 A 
ATOM      2  C   UNL     1      36.020  -2.965  12.064  0.00  0.00    +0.019 A 
ATOM      3  C   UNL     1      36.226  -1.726  11.463  0.00  0.00    +0.115 A 
ATOM      6  C   UNL     1      36.690  -1.618  10.156  0.00  0.00    +0.156 A 
ATOM      9  C   UNL     1      36.957  -2.765   9.429  0.00  0.00    +0.158 A 
ATOM     10  O   UNL     1      37.384  -2.676   8.203  0.00  0.00    -0.220 OA
ATOM     11  C   UNL     1      37.650  -3.759   7.528  0.00  0.00    +0.266 A 
ATOM     12  O   UNL     1      38.094  -3.672   6.271  0.00  0.00    -0.366 OA
ATOM     13  C   UNL     1      37.495  -5.030   8.077  0.00  0.00    +0.045 A 
ATOM     14  C   UNL     1      37.802  -6.167   7.341  0.00  0.00    +0.019 A 
ATOM     15  C   UNL     1      37.638  -7.409   7.936  0.00  0.00    +0.115 A 
ATOM     18  C   UNL     1      37.173  -7.517   9.234  0.00  0.00    +0.156 A 
ATOM     21  C   UNL     1      36.854  -6.391   9.987  0.00  0.00    +0.158 A 
ATOM     22  O   UNL     1      36.408  -6.478  11.213  0.00  0.00    -0.220 OA
ATOM     23  C   UNL     1      37.036  -5.156   9.373  0.00  0.00    +0.016 A 
ATOM     24  C   UNL     1      36.127  -5.396  11.893  0.00  0.00    +0.266 A 
ATOM     25  O   UNL     1      35.654  -5.501  13.160  0.00  0.00    -0.366 OA
ATOM     26  C   UNL     1      36.762  -3.998  10.051  0.00  0.00    +0.016 A 
ENDROOT
BRANCH   3   4
ATOM      4  O   UNL     1      35.981  -0.586  12.165  0.00  0.00    -0.339 OA
ATOM      5  H   UNL     1      35.672  -0.811  13.035  0.00  0.00    +0.244 HD
ENDBRANCH   3   4
BRANCH   6   7
ATOM      7  O   UNL     1      36.897  -0.367   9.596  0.00  0.00    -0.338 OA
ATOM      8  H   UNL     1      37.212  -0.468   8.705  0.00  0.00    +0.242 HD
ENDBRANCH   6   7
BRANCH  15  16
ATOM     16  O   UNL     1      37.939  -8.572   7.254  0.00  0.00    -0.339 OA
ATOM     17  H   UNL     1      37.160  -9.113   7.193  0.00  0.00    +0.244 HD
ENDBRANCH  15  16
BRANCH  18  19
ATOM     19  O   UNL     1      37.057  -8.750   9.708  0.00  0.00    -0.338 OA
ATOM     20  H   UNL     1      36.733  -8.716  10.600  0.00  0.00    +0.242 HD
ENDBRANCH  18  19
TORSDOF 4
