REMARK  Name = 2w1h_ligand
REMARK  3 active torsions:
REMARK  status: ('A' for Active; 'I' for Inactive)
REMARK    1  A    between atoms: C2_2  and  C20_18
REMARK    2  A    between atoms: N3_3  and  C4_4
REMARK    3  A    between atoms: C9_8  and  C10_9
REMARK                            x       y       z     vdW  Elec       q    Type
REMARK                         _______ _______ _______ _____ _____    ______ ____
ROOT
ATOM     11  C   UNL     1      27.297   4.419  63.012  0.00  0.00    +0.095 A 
ATOM     12  C   UNL     1      28.388   4.387  63.915  0.00  0.00    +0.119 A 
ATOM     23  N   UNL     1      28.361   3.232  64.552  0.00  0.00    -0.203 NA
ATOM     24  N   UNL     1      27.269   2.493  64.080  0.00  0.00    -0.229 N 
ATOM     25  H   UNL     1      26.997   1.551  64.394  0.00  0.00    +0.254 HD
ATOM     26  C   UNL     1      26.631   3.232  63.138  0.00  0.00    +0.142 A 
ENDROOT
BRANCH  12  13
ATOM     13  C   UNL     1      29.376   5.474  64.107  0.00  0.00    +0.144 A 
ATOM     14  N   UNL     1      30.451   5.429  64.957  0.00  0.00    -0.251 N 
ATOM     15  H   UNL     1      30.706   4.649  65.580  0.00  0.00    +0.230 HD
ATOM     16  C   UNL     1      31.129   6.625  64.822  0.00  0.00    +0.081 A 
ATOM     17  C   UNL     1      32.274   7.191  65.439  0.00  0.00    +0.014 A 
ATOM     18  C   UNL     1      32.702   8.479  65.070  0.00  0.00    -0.021 A 
ATOM     19  C   UNL     1      31.971   9.235  64.127  0.00  0.00    -0.025 A 
ATOM     20  C   UNL     1      30.837   8.702  63.517  0.00  0.00    -0.007 A 
ATOM     21  C   UNL     1      30.378   7.399  63.883  0.00  0.00    +0.029 A 
ATOM     22  N   UNL     1      29.350   6.626  63.474  0.00  0.00    -0.310 NA
ENDBRANCH  12  13
BRANCH  11   9
ATOM      1  O   UNL     1      25.026   4.819  61.294  0.00  0.00    -0.377 OA
ATOM      2  C   UNL     1      25.907   5.668  61.339  0.00  0.00    +0.224 C 
ATOM      9  N   UNL     1      27.010   5.519  62.142  0.00  0.00    -0.248 N 
ATOM     10  H   UNL     1      27.685   6.257  62.117  0.00  0.00    +0.215 HD
BRANCH   2   3
ATOM      3  C   UNL     1      25.793   6.902  60.502  0.00  0.00    +0.054 A 
ATOM      4  C   UNL     1      26.572   8.058  60.814  0.00  0.00    +0.025 A 
ATOM      5  C   UNL     1      26.462   9.221  60.022  0.00  0.00    +0.007 A 
ATOM      6  C   UNL     1      25.579   9.248  58.920  0.00  0.00    +0.008 A 
ATOM      7  C   UNL     1      24.804   8.113  58.603  0.00  0.00    +0.007 A 
ATOM      8  C   UNL     1      24.905   6.945  59.386  0.00  0.00    +0.025 A 
ENDBRANCH   2   3
ENDBRANCH  11   9
TORSDOF 3
