REMARK  Name = 4btm_ligand
REMARK  5 active torsions:
REMARK  status: ('A' for Active; 'I' for Inactive)
REMARK    1  A    between atoms: C1_2  and  O2_3
REMARK    2  A    between atoms: O2_3  and  C3_4
REMARK    3  A    between atoms: C3_4  and  C5_6
REMARK    4  A    between atoms: C7_8  and  N12_12
REMARK    5  A    between atoms: N12_12  and  C13_13
REMARK                            x       y       z     vdW  Elec       q    Type
REMARK                         _______ _______ _______ _____ _____    ______ ____
ROOT
ATOM      6  N   UNL     1      -3.648   5.180 -33.717  0.00  0.00    -0.252 N 
ATOM      7  H   UNL     1      -2.708   5.133 -33.299  0.00  0.00    +0.219 HD
ENDROOT
BRANCH   6   8
ATOM      8  C   UNL     1      -4.003   4.167 -34.632  0.00  0.00    +0.139 A 
ATOM      9  N   UNL     1      -5.199   4.084 -35.250  0.00  0.00    -0.269 NA
ATOM     10  C   UNL     1      -5.438   3.076 -36.090  0.00  0.00    +0.149 A 
ATOM     11  N   UNL     1      -4.609   2.085 -36.423  0.00  0.00    -0.276 NA
ATOM     12  C   UNL     1      -3.429   2.192 -35.798  0.00  0.00    +0.137 A 
ATOM     13  N   UNL     1      -2.371   1.328 -35.914  0.00  0.00    -0.266 N 
ATOM     14  H   UNL     1      -2.353   0.488 -36.511  0.00  0.00    +0.232 HD
ATOM     15  C   UNL     1      -1.342   1.751 -35.116  0.00  0.00    +0.118 A 
ATOM     16  C   UNL     1      -1.742   2.901 -34.474  0.00  0.00    -0.023 A 
ATOM     17  C   UNL     1      -3.066   3.183 -34.906  0.00  0.00    +0.047 A 
ENDBRANCH   6   8
BRANCH   6   5
ATOM      1 BR   UNL     1      -7.255   9.783 -32.219  0.00  0.00    -0.055 Br
ATOM      2  C   UNL     1      -6.046   8.356 -32.562  0.00  0.00    +0.022 A 
ATOM      3  C   UNL     1      -6.207   7.797 -33.812  0.00  0.00    +0.006 A 
ATOM      4  C   UNL     1      -5.412   6.753 -34.199  0.00  0.00    +0.028 A 
ATOM      5  C   UNL     1      -4.470   6.242 -33.333  0.00  0.00    +0.074 A 
ATOM     18  C   UNL     1      -4.298   6.811 -32.086  0.00  0.00    +0.046 A 
ATOM     19  C   UNL     1      -5.083   7.875 -31.680  0.00  0.00    +0.062 A 
BRANCH  19  20
ATOM     20  C   UNL     1      -4.845   8.466 -30.335  0.00  0.00    +0.262 C 
ATOM     21  O   UNL     1      -5.388   9.472 -29.905  0.00  0.00    -0.355 OA
BRANCH  20  22
ATOM     22  O   UNL     1      -3.896   7.747 -29.661  0.00  0.00    -0.281 OA
ATOM     23  C   UNL     1      -3.357   8.487 -28.563  0.00  0.00    +0.237 C 
ENDBRANCH  20  22
ENDBRANCH  19  20
ENDBRANCH   6   5
TORSDOF 4
