REMARK  Name = 4CRL
REMARK  7 active torsions:
REMARK  status: ('A' for Active; 'I' for Inactive)
REMARK    1  A    between atoms: C_1  and  N_2
REMARK    2  A    between atoms: N_2  and  C_3
REMARK    3  A    between atoms: N_2  and  C_4
REMARK    4  A    between atoms: C_14  and  O_15
REMARK    5  A    between atoms: C_16  and  O_17
REMARK    6  A    between atoms: C_20  and  C_21
REMARK    7  A    between atoms: C_22  and  C_26
REMARK                            x       y       z     vdW  Elec       q    Type
REMARK                         _______ _______ _______ _____ _____    ______ ____
ROOT
ATOM      3  C   UNL     1       2.576  15.607  -3.704  0.00  0.00    +0.090 C 
ATOM      4  C   UNL     1       3.168  16.279  -4.940  0.00  0.00    +0.164 C 
ATOM      7  C   UNL     1       2.953  15.428  -6.181  0.00  0.00    +0.173 C 
ATOM     10  C   UNL     1       1.535  14.960  -6.307  0.00  0.00    -0.007 C 
ATOM     11  C   UNL     1       0.962  14.790  -7.534  0.00  0.00    +0.010 C 
ATOM     12  C   UNL     1      -0.406  14.324  -7.677  0.00  0.00    -0.019 C 
ATOM     13  C   UNL     1      -1.028  14.305  -8.830  0.00  0.00    -0.020 C 
ATOM     14  C   UNL     1      -2.445  13.841  -9.008  0.00  0.00    +0.035 C 
ATOM     15  C   UNL     1      -2.967  13.074  -7.818  0.00  0.00    -0.016 C 
ATOM     16  C   UNL     1      -2.566  13.778  -6.494  0.00  0.00    +0.032 C 
ATOM     17  C   UNL     1      -3.275  12.925  -5.436  0.00  0.00    +0.008 C 
ATOM     18  C   UNL     1      -4.588  12.511  -6.140  0.00  0.00    +0.009 C 
ATOM     19  C   UNL     1      -4.465  13.078  -7.571  0.00  0.00    +0.026 C 
ATOM     30  C   UNL     1      -2.447  11.639  -7.852  0.00  0.00    +0.012 C 
ATOM     31  C   UNL     1      -1.068  13.874  -6.371  0.00  0.00    +0.099 C 
ATOM     32  O   UNL     1      -0.700  14.881  -5.410  0.00  0.00    -0.358 OA
ATOM     33  C   UNL     1      -0.363  12.607  -5.857  0.00  0.00    +0.043 C 
ATOM     34  C   UNL     1       0.740  13.106  -4.880  0.00  0.00    +0.043 C 
ATOM     35  C   UNL     1       0.693  14.622  -5.096  0.00  0.00    +0.096 C 
ATOM     36  C   UNL     1       1.077  15.447  -3.875  0.00  0.00    +0.061 C 
ENDROOT
BRANCH  19  20
ATOM     20  C   UNL     1      -5.274  12.320  -8.592  0.00  0.00    -0.043 A 
ATOM     21  C   UNL     1      -5.363  12.856  -9.865  0.00  0.00    +0.004 A 
ATOM     22  C   UNL     1      -6.086  12.251 -10.834  0.00  0.00    +0.009 A 
ATOM     23  C   UNL     1      -6.764  11.068 -10.542  0.00  0.00    -0.015 A 
ATOM     24  C   UNL     1      -7.528  10.394 -11.498  0.00  0.00    +0.028 A 
ATOM     25  C   UNL     1      -8.160   9.249 -11.152  0.00  0.00    +0.111 A 
ATOM     26  N   UNL     1      -8.075   8.765  -9.933  0.00  0.00    -0.263 NA
ATOM     27  C   UNL     1      -7.378   9.334  -8.988  0.00  0.00    +0.119 A 
ATOM     28  C   UNL     1      -6.685  10.521  -9.246  0.00  0.00    +0.001 A 
ATOM     29  C   UNL     1      -5.929  11.176  -8.271  0.00  0.00    +0.014 A 
ENDBRANCH  19  20
BRANCH   3   2
ATOM      1  C   UNL     1       2.219  17.791  -2.715  0.00  0.00    +0.105 C 
ATOM      2  N   UNL     1       2.814  16.463  -2.538  0.00  0.00    -0.303 NA
ATOM     37  C   UNL     1       2.275  15.857  -1.319  0.00  0.00    +0.105 C 
ENDBRANCH   3   2
BRANCH   4   5
ATOM      5  O   UNL     1       4.566  16.447  -4.747  0.00  0.00    -0.387 OA
ATOM      6  H   UNL     1       4.734  17.047  -3.902  0.00  0.00    +0.210 HD
ENDBRANCH   4   5
BRANCH   7   8
ATOM      8  O   UNL     1       3.290  16.212  -7.318  0.00  0.00    -0.385 OA
ATOM      9  H   UNL     1       3.187  15.632  -8.187  0.00  0.00    +0.210 HD
ENDBRANCH   7   8
TORSDOF 4
