REMARK  Name = 4afj_ligand
REMARK  6 active torsions:
REMARK  status: ('A' for Active; 'I' for Inactive)
REMARK    1  A    between atoms: C6_10  and  C9_13
REMARK    2  A    between atoms: C18_11  and  C17_17
REMARK    3  A    between atoms: C3_12  and  O2_23
REMARK    4  A    between atoms: C13_14  and  C14_15
REMARK    5  A    between atoms: C1_16  and  O2_23
REMARK    6  A    between atoms: C17_17  and  N16_20
REMARK                            x       y       z     vdW  Elec       q    Type
REMARK                         _______ _______ _______ _____ _____    ______ ____
ROOT
ATOM      3  C   UNL     1     101.957  26.692 -11.902  0.00  0.00    +0.161 A 
ATOM      4  O   UNL     1     100.624  26.971 -11.908  0.00  0.00    -0.221 OA
ATOM      5  C   UNL     1     100.514  28.187 -12.496  0.00  0.00    +0.308 A 
ATOM      6  N   UNL     1     101.658  28.697 -12.865  0.00  0.00    -0.288 NA
ATOM      7  C   UNL     1     102.590  27.760 -12.498  0.00  0.00    +0.115 A 
ENDROOT
BRANCH   3   2
ATOM      1  C   UNL     1     101.301  24.755 -10.585  0.00  0.00    +0.003 A 
ATOM      2  C   UNL     1     102.296  25.434 -11.256  0.00  0.00    +0.013 A 
ATOM     19  C   UNL     1     103.557  24.872 -11.308  0.00  0.00    +0.003 A 
ATOM     20  C   UNL     1     103.819  23.648 -10.719  0.00  0.00    +0.025 A 
ATOM     21  C   UNL     1     102.797  22.969 -10.076  0.00  0.00    +0.093 A 
ATOM     24  C   UNL     1     101.542  23.529  -9.997  0.00  0.00    +0.025 A 
BRANCH  21  22
ATOM     22  O   UNL     1     102.942  21.724  -9.464  0.00  0.00    -0.320 OA
ATOM     23  C   UNL     1     104.292  21.282  -9.598  0.00  0.00    +0.234 C 
ENDBRANCH  21  22
ENDBRANCH   3   2
BRANCH   7   8
ATOM      8  C   UNL     1     104.026  28.082 -12.684  0.00  0.00    +0.198 C 
ATOM      9  O   UNL     1     104.868  27.240 -12.401  0.00  0.00    -0.397 OA
ATOM     10  N   UNL     1     104.390  29.337 -13.088  0.00  0.00    -0.277 N 
ATOM     11  H   UNL     1     103.724  29.932 -13.538  0.00  0.00    +0.187 HD
BRANCH  10  12
ATOM     12  C   UNL     1     105.778  29.815 -12.856  0.00  0.00    +0.212 C 
BRANCH  12  13
ATOM     13  C   UNL     1     106.592  29.558 -14.069  0.00  0.00    -0.001 A 
ATOM     14  C   UNL     1     107.723  28.775 -13.987  0.00  0.00    +0.035 A 
ATOM     15  C   UNL     1     108.447  28.570 -15.144  0.00  0.00    +0.083 A 
ATOM     16  N   UNL     1     108.134  29.084 -16.341  0.00  0.00    -0.307 NA
ATOM     17  C   UNL     1     107.030  29.840 -16.382  0.00  0.00    +0.083 A 
ATOM     18  C   UNL     1     106.232  30.101 -15.286  0.00  0.00    +0.035 A 
ENDBRANCH  12  13
ENDBRANCH  10  12
ENDBRANCH   7   8
TORSDOF 5
