REMARK  Name = 1GH
REMARK  4 active torsions:
REMARK  status: ('A' for Active; 'I' for Inactive)
REMARK    1  A    between atoms: N1_3  and  C6_4
REMARK    2  A    between atoms: C6_4  and  C8_5
REMARK    3  A    between atoms: C18_21  and  C19_25
REMARK    4  A    between atoms: C2_22  and  O1_23
REMARK                            x       y       z     vdW  Elec       q    Type
REMARK                         _______ _______ _______ _____ _____    ______ ____
ROOT
ATOM      1  O   UNL     1       7.898  -7.879  17.007  0.00  0.00    -0.244 OA
ATOM      2  C   UNL     1       8.757  -7.050  17.264  0.00  0.00    +0.350 C 
ATOM      3  N   UNL     1       9.531  -7.013  18.416  0.00  0.00    -0.275 N 
ATOM     12  C   UNL     1      10.429  -5.903  18.354  0.00  0.00    +0.085 C 
ATOM     13  C   UNL     1      11.453  -5.292  19.145  0.00  0.00    +0.038 C 
ATOM     14  C   UNL     1      11.860  -5.795  20.405  0.00  0.00    +0.040 C 
ATOM     15  C   UNL     1      12.845  -5.177  21.122  0.00  0.00    +0.139 C 
ATOM     18  C   UNL     1      13.473  -4.017  20.636  0.00  0.00    +0.039 C 
ATOM     26  C   UNL     1      13.108  -3.525  19.408  0.00  0.00    +0.022 C 
ATOM     27  C   UNL     1      12.094  -4.136  18.641  0.00  0.00    +0.083 C 
ATOM     28  N   UNL     1      11.784  -3.573  17.427  0.00  0.00    -0.242 NA
ATOM     29  C   UNL     1      10.833  -4.141  16.725  0.00  0.00    +0.120 C 
ATOM     30  C   UNL     1      10.151  -5.283  17.131  0.00  0.00    +0.121 C 
ATOM     31  N   UNL     1       9.138  -5.987  16.501  0.00  0.00    -0.189 NA
ENDROOT
BRANCH  18  19
ATOM     19  C   UNL     1      14.558  -3.357  21.391  0.00  0.00    +0.053 A 
ATOM     20  C   UNL     1      14.528  -2.905  22.662  0.00  0.00    +0.155 A 
ATOM     21  C   UNL     1      13.481  -2.846  23.709  0.00  0.00    +0.075 C 
ATOM     22  O   UNL     1      15.723  -2.389  22.984  0.00  0.00    -0.358 OA
ATOM     23  N   UNL     1      16.582  -2.533  21.860  0.00  0.00    -0.082 NA
ATOM     24  C   UNL     1      15.870  -3.110  20.934  0.00  0.00    +0.101 A 
ATOM     25  C   UNL     1      16.493  -3.404  19.611  0.00  0.00    +0.056 C 
ENDBRANCH  18  19
BRANCH   3   4
ATOM      4  C   UNL     1       9.461  -8.018  19.504  0.00  0.00    +0.130 C 
ATOM      5  C   UNL     1       8.919  -7.429  20.803  0.00  0.00    +0.031 C 
BRANCH   4   6
ATOM      6  C   UNL     1      10.796  -8.735  19.644  0.00  0.00    +0.080 A 
ATOM      7  N   UNL     1      11.104  -9.244  20.847  0.00  0.00    -0.246 NA
ATOM      8  C   UNL     1      12.288  -9.880  20.969  0.00  0.00    +0.099 A 
ATOM      9  C   UNL     1      13.190 -10.016  19.941  0.00  0.00    +0.021 A 
ATOM     10  C   UNL     1      12.860  -9.486  18.716  0.00  0.00    +0.003 A 
ATOM     11  C   UNL     1      11.650  -8.837  18.555  0.00  0.00    +0.017 A 
ENDBRANCH   4   6
ENDBRANCH   3   4
BRANCH  15  16
ATOM     16  O   UNL     1      13.290  -5.601  22.349  0.00  0.00    -0.471 OA
ATOM     17  C   UNL     1      12.426  -6.435  23.112  0.00  0.00    +0.253 C 
ENDBRANCH  15  16
TORSDOF 4
