REMARK  Name = 5BML
REMARK  7 active torsions:
REMARK  status: ('A' for Active; 'I' for Inactive)
REMARK    1  A    between atoms: C_1  and  S_2
REMARK    2  A    between atoms: S_2  and  N_5
REMARK    3  A    between atoms: N_5  and  C_6
REMARK    4  A    between atoms: C_10  and  C_12
REMARK    5  A    between atoms: C_12  and  C_13
REMARK    6  A    between atoms: N_15  and  C_16
REMARK    7  A    between atoms: C_18  and  C_21
REMARK                            x       y       z     vdW  Elec       q    Type
REMARK                         _______ _______ _______ _____ _____    ______ ____
ROOT
ATOM      9  C   UNL     1      52.169 104.436  32.158  0.00  0.00    +0.222 C 
ATOM     10  N   UNL     1      51.959 103.320  31.401  0.00  0.00    -0.280 N 
ATOM     11  H   UNL     1      52.076 102.365  31.869  0.00  0.00    +0.155 HD
ATOM     24  O   UNL     1      52.040 105.559  31.707  0.00  0.00    -0.275 OA
ENDROOT
BRANCH  10  12
ATOM     12  C   UNL     1      51.594 103.353  30.028  0.00  0.00    +0.072 A 
ATOM     13  S   UNL     1      51.250 104.801  29.074  0.00  0.00    -0.081 S 
ATOM     14  C   UNL     1      50.844 103.833  27.681  0.00  0.00    +0.055 A 
ATOM     15  C   UNL     1      51.010 102.522  27.955  0.00  0.00    -0.009 A 
ATOM     23  C   UNL     1      51.427 102.271  29.258  0.00  0.00    +0.039 A 
BRANCH  15  16
ATOM     16  C   UNL     1      50.837 101.475  26.900  0.00  0.00    -0.012 A 
ATOM     17  C   UNL     1      51.074 100.127  27.156  0.00  0.00    +0.067 A 
ATOM     18  C   UNL     1      50.909  99.217  26.126  0.00  0.00    +0.214 A 
ATOM     19  F   UNL     1      51.072  97.903  26.392  0.00  0.00    -0.184 F 
ATOM     20  N   UNL     1      50.575  99.599  24.894  0.00  0.00    -0.228 NA
ATOM     21  C   UNL     1      50.368 100.869  24.596  0.00  0.00    +0.114 A 
ATOM     22  C   UNL     1      50.507 101.834  25.574  0.00  0.00    +0.028 A 
ENDBRANCH  15  16
ENDBRANCH  10  12
BRANCH   9   8
ATOM      8  C   UNL     1      52.535 104.303  33.610  0.00  0.00    +0.131 C 
BRANCH   8   7
ATOM      5  C   UNL     1      49.828 106.036  35.579  0.00  0.00    +0.048 A 
ATOM      6  C   UNL     1      50.994 105.800  34.842  0.00  0.00    +0.028 A 
ATOM      7  C   UNL     1      51.286 104.518  34.422  0.00  0.00    -0.037 A 
ATOM     25  C   UNL     1      50.396 103.472  34.716  0.00  0.00    +0.004 A 
ATOM     26  C   UNL     1      49.223 103.699  35.444  0.00  0.00    +0.002 A 
ATOM     27  C   UNL     1      48.944 104.984  35.897  0.00  0.00    +0.024 A 
BRANCH   5   3
ATOM      3  N   UNL     1      49.584 107.346  35.984  0.00  0.00    -0.221 N 
ATOM      4  H   UNL     1      49.141 108.035  35.295  0.00  0.00    +0.173 HD
BRANCH   3   2
ATOM      1  C   UNL     1      51.752 107.662  37.785  0.00  0.00    +0.218 C 
ATOM      2  S   UNL     1      49.967 107.857  37.513  0.00  0.00    +0.040 S 
ATOM     28  O   UNL     1      49.677 109.252  37.418  0.00  0.00    -0.156 OA
ATOM     29  O   UNL     1      49.262 106.942  38.360  0.00  0.00    -0.156 OA
ENDBRANCH   3   2
ENDBRANCH   5   3
ENDBRANCH   8   7
ENDBRANCH   9   8
TORSDOF 6
