REMARK  Name = 3cpc_ligand
REMARK  4 active torsions:
REMARK  status: ('A' for Active; 'I' for Inactive)
REMARK    1  A    between atoms: C7_11  and  C9_12
REMARK    2  A    between atoms: C13_15  and  C14_16
REMARK    3  A    between atoms: N4_19  and  C15_20
REMARK    4  A    between atoms: C17_25  and  C21_26
REMARK                            x       y       z     vdW  Elec       q    Type
REMARK                         _______ _______ _______ _____ _____    ______ ____
ROOT
ATOM      3  C   UNL     1      15.675  32.560  31.725  0.00  0.00    +0.040 A 
ATOM      4  C   UNL     1      17.039  32.237  31.903  0.00  0.00    -0.045 A 
ATOM      5  C   UNL     1      17.980  33.228  32.182  0.00  0.00    +0.012 A 
ATOM      6  C   UNL     1      17.586  34.558  32.292  0.00  0.00    +0.214 A 
ATOM      7  N   UNL     1      16.232  34.915  32.110  0.00  0.00    -0.154 N 
ATOM     18  C   UNL     1      17.562  30.799  31.804  0.00  0.00    +0.098 C 
ATOM     19  C   UNL     1      15.275  33.902  31.827  0.00  0.00    +0.229 A 
ATOM     20  O   UNL     1      14.092  34.201  31.672  0.00  0.00    -0.407 OA
ENDROOT
BRANCH   3   2
ATOM      1  C   UNL     1      14.386  30.605  32.398  0.00  0.00    +0.002 A 
ATOM      2  C   UNL     1      14.737  31.555  31.434  0.00  0.00    -0.032 A 
ATOM     21  C   UNL     1      14.155  31.486  30.163  0.00  0.00    +0.006 A 
ATOM     22  C   UNL     1      13.234  30.478  29.862  0.00  0.00    +0.017 A 
ATOM     23  C   UNL     1      12.894  29.530  30.830  0.00  0.00    +0.036 A 
ATOM     24  N   UNL     1      12.006  28.549  30.564  0.00  0.00    -0.271 NA
ATOM     25  C   UNL     1      11.684  27.640  31.509  0.00  0.00    +0.182 A 
ATOM     26  N   UNL     1      10.805  26.680  31.233  0.00  0.00    -0.305 N 
ATOM     27  H   UNL     1      10.372  26.631  30.300  0.00  0.00    +0.183 HD
ATOM     28  H   UNL     1      10.558  25.986  31.953  0.00  0.00    +0.183 HD
ATOM     29  N   UNL     1      12.235  27.694  32.737  0.00  0.00    -0.247 NA
ATOM     30  C   UNL     1      13.109  28.644  33.049  0.00  0.00    +0.125 A 
ATOM     31  C   UNL     1      13.471  29.597  32.097  0.00  0.00    +0.011 A 
ENDBRANCH   3   2
BRANCH   7   8
ATOM      8  C   UNL     1      15.862  36.275  32.232  0.00  0.00    +0.140 A 
ATOM      9  C   UNL     1      16.524  37.266  31.499  0.00  0.00    +0.083 A 
ATOM     10  C   UNL     1      16.160  38.609  31.633  0.00  0.00    +0.030 A 
ATOM     11  C   UNL     1      15.131  38.961  32.510  0.00  0.00    +0.037 A 
ATOM     12  C   UNL     1      14.472  37.976  33.253  0.00  0.00    +0.040 A 
ATOM     17  C   UNL     1      14.841  36.640  33.111  0.00  0.00    +0.080 A 
BRANCH  12  13
ATOM     13  C   UNL     1      13.330  38.364  34.201  0.00  0.00    +0.374 C 
ATOM     14  F   UNL     1      12.845  37.314  34.867  0.00  0.00    -0.221 F 
ATOM     15  F   UNL     1      12.381  38.886  33.432  0.00  0.00    -0.221 F 
ATOM     16  F   UNL     1      13.733  39.252  35.097  0.00  0.00    -0.221 F 
ENDBRANCH  12  13
ENDBRANCH   7   8
TORSDOF 3
