REMARK  Name = TF2
REMARK  7 active torsions:
REMARK  status: ('A' for Active; 'I' for Inactive)
REMARK    1  A    between atoms: C1_1  and  S1_2
REMARK    2  A    between atoms: S1_2  and  N1_5
REMARK    3  A    between atoms: N1_5  and  C6_10
REMARK    4  A    between atoms: N1_5  and  C7_11
REMARK    5  A    between atoms: C8_12  and  N2_17
REMARK    6  A    between atoms: C15_20  and  C17_22
REMARK    7  A    between atoms: C17_22  and  C18_24
REMARK                            x       y       z     vdW  Elec       q    Type
REMARK                         _______ _______ _______ _____ _____    ______ ____
ROOT
ATOM      1  C   UNL     1      56.245  63.841  78.013  0.00  0.00    +0.125 A 
ATOM      2  C   UNL     1      57.291  63.352  78.837  0.00  0.00    +0.017 A 
ATOM      3  C   UNL     1      57.901  62.097  78.553  0.00  0.00    -0.005 A 
ATOM      4  C   UNL     1      59.037  61.625  79.432  0.00  0.00    +0.032 C 
ATOM      5  C   UNL     1      57.435  61.334  77.423  0.00  0.00    +0.070 A 
ATOM     16  C   UNL     1      56.378  61.860  76.614  0.00  0.00    +0.018 A 
ATOM     29  C   UNL     1      55.794  63.099  76.907  0.00  0.00    +0.021 A 
ENDROOT
BRANCH   5   6
ATOM      6  N   UNL     1      58.038  60.124  77.174  0.00  0.00    -0.177 NA
ATOM      7  C   UNL     1      58.060  59.385  76.029  0.00  0.00    +0.281 C 
ATOM     15  O   UNL     1      57.668  59.745  74.912  0.00  0.00    -0.270 OA
BRANCH   7   8
ATOM      8  C   UNL     1      58.653  57.964  76.276  0.00  0.00    +0.282 C 
ATOM      9  O   UNL     1      59.778  58.048  77.143  0.00  0.00    -0.207 OA
ATOM     14  C   UNL     1      59.097  57.392  74.915  0.00  0.00    +0.051 C 
BRANCH   8  10
ATOM     10  C   UNL     1      57.627  57.048  77.028  0.00  0.00    +0.431 C 
ATOM     11  F   UNL     1      57.281  57.577  78.196  0.00  0.00    -0.167 F 
ATOM     12  F   UNL     1      58.152  55.842  77.237  0.00  0.00    -0.167 F 
ATOM     13  F   UNL     1      56.537  56.904  76.302  0.00  0.00    -0.167 F 
ENDBRANCH   8  10
ENDBRANCH   7   8
ENDBRANCH   5   6
BRANCH   1  17
ATOM     17  S   UNL     1      55.486  65.416  78.348  0.00  0.00    +0.077 S 
ATOM     27  O   UNL     1      56.495  66.342  78.784  0.00  0.00    -0.150 OA
ATOM     28  O   UNL     1      54.655  65.768  77.219  0.00  0.00    -0.150 OA
BRANCH  17  18
ATOM     18  N   UNL     1      54.360  65.250  79.716  0.00  0.00    -0.191 N 
BRANCH  18  21
ATOM     21  C   UNL     1      53.443  66.325  80.027  0.00  0.00    +0.069 A 
ATOM     22  C   UNL     1      53.933  67.655  80.199  0.00  0.00    +0.016 A 
ATOM     23  C   UNL     1      53.040  68.725  80.450  0.00  0.00    +0.001 A 
ATOM     24  C   UNL     1      51.647  68.481  80.529  0.00  0.00    +0.000 A 
ATOM     25  C   UNL     1      51.146  67.161  80.362  0.00  0.00    +0.001 A 
ATOM     26  C   UNL     1      52.036  66.084  80.109  0.00  0.00    +0.016 A 
ENDBRANCH  18  21
BRANCH  18  19
ATOM     19  C   UNL     1      54.703  64.416  80.912  0.00  0.00    +0.116 C 
ATOM     20  C   UNL     1      53.822  63.152  81.078  0.00  0.00    +0.025 C 
ENDBRANCH  18  19
ENDBRANCH  17  18
ENDBRANCH   1  17
TORSDOF 7
