REMARK  Name = 6JC
REMARK  1 active torsions:
REMARK  status: ('A' for Active; 'I' for Inactive)
REMARK    1  A    between atoms: C1_1  and  C15_10
REMARK                            x       y       z     vdW  Elec       q    Type
REMARK                         _______ _______ _______ _____ _____    ______ ____
ROOT
ATOM      1  C   UNL     1     -11.139  -5.821  -0.103  0.00  0.00    +0.033 C 
ATOM      2  C   UNL     1     -10.562  -6.263   1.086  0.00  0.00    +0.065 C 
ATOM      3  C   UNL     1      -9.268  -6.805   1.035  0.00  0.00    +0.074 C 
ATOM      4  C   UNL     1      -8.352  -7.350   1.971  0.00  0.00    +0.054 C 
ATOM      5  C   UNL     1      -7.220  -7.725   1.285  0.00  0.00    +0.236 C 
ATOM      6  N   UNL     1      -7.411  -7.422  -0.034  0.00  0.00    -0.031 NA
ATOM      7  C   UNL     1      -8.650  -6.864  -0.207  0.00  0.00    +0.372 C 
ATOM      8  N   UNL     1      -9.158  -6.457  -1.383  0.00  0.00    -0.031 NA
ATOM     16  C   UNL     1     -10.404  -5.947  -1.276  0.00  0.00    +0.232 C 
ENDROOT
BRANCH   1   9
ATOM      9  C   UNL     1     -12.466  -5.260  -0.116  0.00  0.00    +0.050 A 
ATOM     10  C   UNL     1     -13.671  -5.728   0.463  0.00  0.00    +0.100 A 
ATOM     11  C   UNL     1     -13.876  -6.957   1.268  0.00  0.00    +0.056 C 
ATOM     12  N   UNL     1     -14.692  -4.898   0.200  0.00  0.00    -0.082 NA
ATOM     13  O   UNL     1     -14.145  -3.872  -0.561  0.00  0.00    -0.358 OA
ATOM     14  C   UNL     1     -12.810  -4.091  -0.753  0.00  0.00    +0.154 A 
ATOM     15  C   UNL     1     -12.071  -3.084  -1.549  0.00  0.00    +0.075 C 
ENDBRANCH   1   9
TORSDOF 1
