REMARK  Name = I7P
REMARK  14 active torsions:
REMARK  status: ('A' for Active; 'I' for Inactive)
REMARK    1  A    between atoms: C1_1  and  O11_7
REMARK    2  A    between atoms: C2_2  and  O12_8
REMARK    3  A    between atoms: C3_3  and  O13_9
REMARK    4  A    between atoms: C4_4  and  O14_10
REMARK    5  A    between atoms: C5_5  and  O15_11
REMARK    6  A    between atoms: C6_6  and  O16_12
REMARK    7  A    between atoms: O11_7  and  PA1_34
REMARK    8  A    between atoms: O12_8  and  PA2_35
REMARK    9  A    between atoms: O13_9  and  PA3_36
REMARK   10  A    between atoms: O14_10  and  PA4_37
REMARK   11  A    between atoms: O15_11  and  PA5_38
REMARK   12  A    between atoms: O16_12  and  PA6_39
REMARK   13  A    between atoms: O45_29  and  PA5_38
REMARK   14  A    between atoms: O45_29  and  PB5_40
REMARK                            x       y       z     vdW  Elec       q    Type
REMARK                         _______ _______ _______ _____ _____    ______ ____
ROOT
ATOM      1  C   UNL     1       0.985  19.147  10.061  0.00  0.00    +0.186 C 
ATOM      2  C   UNL     1       1.639  20.144  11.024  0.00  0.00    +0.186 C 
ATOM      3  C   UNL     1       0.891  20.203  12.364  0.00  0.00    +0.182 C 
ATOM     13  C   UNL     1      -0.615  20.423  12.210  0.00  0.00    +0.186 C 
ATOM     19  C   UNL     1      -1.214  19.445  11.200  0.00  0.00    +0.186 C 
ATOM     30  C   UNL     1      -0.490  19.509   9.836  0.00  0.00    +0.186 C 
ENDROOT
BRANCH   3   4
ATOM      4  O   UNL     1       1.444  21.264  13.151  0.00  0.00    -0.311 OA
BRANCH   4   5
ATOM      5  P   UNL     1       1.813  21.020  14.724  0.00  0.00    +0.223 P 
ATOM      6  O   UNL     1       1.022  21.994  15.513  0.00  0.00    -0.437 OA
ATOM      7  O   UNL     1       1.764  19.577  15.081  0.00  0.00    -0.517 OA
BRANCH   5   8
ATOM      8  O   UNL     1       3.368  21.455  14.705  0.00  0.00    -0.226 OA
BRANCH   8   9
ATOM      9  P   UNL     1       3.920  22.679  15.610  0.00  0.00    +0.537 P 
ATOM     10  O   UNL     1       3.618  22.277  17.150  0.00  0.00    -0.114 OA
ATOM     11  O   UNL     1       5.542  22.600  15.476  0.00  0.00    -0.114 OA
ATOM     12  O   UNL     1       3.342  23.990  15.203  0.00  0.00    -0.222 OA
ENDBRANCH   8   9
ENDBRANCH   5   8
ENDBRANCH   4   5
ENDBRANCH   3   4
BRANCH  13  14
ATOM     14  O   UNL     1      -1.201  20.122  13.465  0.00  0.00    -0.268 OA
BRANCH  14  15
ATOM     15  P   UNL     1      -2.242  21.117  14.224  0.00  0.00    +0.533 P 
ATOM     16  O   UNL     1      -2.065  21.033  15.695  0.00  0.00    -0.115 OA
ATOM     17  O   UNL     1      -3.710  20.643  13.734  0.00  0.00    -0.115 OA
ATOM     18  O   UNL     1      -2.019  22.602  13.611  0.00  0.00    -0.222 OA
ENDBRANCH  14  15
ENDBRANCH  13  14
BRANCH  19  20
ATOM     20  O   UNL     1      -2.617  19.719  11.054  0.00  0.00    -0.268 OA
BRANCH  20  21
ATOM     21  P   UNL     1      -3.678  18.515  11.252  0.00  0.00    +0.533 P 
ATOM     22  O   UNL     1      -3.454  18.036  12.794  0.00  0.00    -0.115 OA
ATOM     23  O   UNL     1      -5.065  18.964  10.910  0.00  0.00    -0.115 OA
ATOM     24  O   UNL     1      -3.151  17.308  10.298  0.00  0.00    -0.222 OA
ENDBRANCH  20  21
ENDBRANCH  19  20
BRANCH   2  25
ATOM     25  O   UNL     1       2.967  19.709  11.307  0.00  0.00    -0.268 OA
BRANCH  25  26
ATOM     26  P   UNL     1       4.205  20.669  10.971  0.00  0.00    +0.533 P 
ATOM     27  O   UNL     1       5.357  20.273  12.023  0.00  0.00    -0.115 OA
ATOM     28  O   UNL     1       3.799  22.206  11.308  0.00  0.00    -0.115 OA
ATOM     29  O   UNL     1       4.653  20.530   9.562  0.00  0.00    -0.222 OA
ENDBRANCH  25  26
ENDBRANCH   2  25
BRANCH  30  31
ATOM     31  O   UNL     1      -0.586  20.823   9.291  0.00  0.00    -0.268 OA
BRANCH  31  32
ATOM     32  P   UNL     1      -1.090  21.133   7.759  0.00  0.00    +0.533 P 
ATOM     33  O   UNL     1      -2.666  20.797   7.748  0.00  0.00    -0.115 OA
ATOM     34  O   UNL     1      -0.755  22.516   7.386  0.00  0.00    -0.115 OA
ATOM     35  O   UNL     1      -0.416  20.061   6.757  0.00  0.00    -0.222 OA
ENDBRANCH  31  32
ENDBRANCH  30  31
BRANCH   1  36
ATOM     36  O   UNL     1       1.690  19.154   8.810  0.00  0.00    -0.268 OA
BRANCH  36  37
ATOM     37  P   UNL     1       2.004  17.754   8.049  0.00  0.00    +0.533 P 
ATOM     38  O   UNL     1       2.573  16.696   9.154  0.00  0.00    -0.115 OA
ATOM     39  O   UNL     1       0.558  17.188   7.602  0.00  0.00    -0.115 OA
ATOM     40  O   UNL     1       2.950  17.951   6.913  0.00  0.00    -0.222 OA
ENDBRANCH  36  37
ENDBRANCH   1  36
TORSDOF 14
