REMARK  Name = 4XV3
REMARK  12 active torsions:
REMARK  status: ('A' for Active; 'I' for Inactive)
REMARK    1  A    between atoms: C_1  and  C_3
REMARK    2  A    between atoms: C_2  and  N_6
REMARK    3  A    between atoms: C_3  and  N_6
REMARK    4  A    between atoms: N_6  and  S_7
REMARK    5  A    between atoms: S_7  and  N_19
REMARK    6  A    between atoms: C_11  and  C_12
REMARK    7  A    between atoms: C_13  and  C_14
REMARK    8  A    between atoms: C_18  and  N_19
REMARK    9  A    between atoms: C_23  and  C_24
REMARK   10  A    between atoms: C_24  and  C_25
REMARK   11  A    between atoms: C_24  and  C_26
REMARK   12  A    between atoms: C_24  and  C_27
REMARK                            x       y       z     vdW  Elec       q    Type
REMARK                         _______ _______ _______ _____ _____    ______ ____
ROOT
ATOM     13  C   UNL     1       1.248  -2.889 -21.866  0.00  0.00    +0.090 A 
ATOM     14  N   UNL     1       1.036  -3.598 -23.023  0.00  0.00    -0.243 NA
ATOM     15  C   UNL     1       2.148  -4.104 -23.475  0.00  0.00    +0.085 A 
ATOM     16  S   UNL     1       3.526  -3.751 -22.496  0.00  0.00    -0.069 S 
ATOM     21  C   UNL     1       2.553  -2.844 -21.392  0.00  0.00    +0.065 A 
ENDROOT
BRANCH  21  22
ATOM     22  C   UNL     1       3.183  -2.231 -20.220  0.00  0.00    +0.085 A 
ATOM     23  C   UNL     1       2.439  -1.775 -19.150  0.00  0.00    +0.049 A 
ATOM     24  C   UNL     1       3.153  -1.235 -18.107  0.00  0.00    +0.116 A 
ATOM     25  N   UNL     1       4.498  -1.145 -18.086  0.00  0.00    -0.223 NA
ATOM     26  C   UNL     1       5.156  -1.621 -19.164  0.00  0.00    +0.213 A 
ATOM     27  N   UNL     1       6.538  -1.538 -19.161  0.00  0.00    -0.328 N 
ATOM     28  H   UNL     1       7.046  -1.108 -18.323  0.00  0.00    +0.145 HD
ATOM     29  H   UNL     1       7.098  -1.904 -19.996  0.00  0.00    +0.145 HD
ATOM     30  N   UNL     1       4.539  -2.171 -20.240  0.00  0.00    -0.214 NA
ENDBRANCH  21  22
BRANCH  13  10
ATOM      7  C   UNL     1      -2.183  -2.825 -20.524  0.00  0.00    +0.085 A 
ATOM      8  C   UNL     1      -0.954  -3.237 -21.006  0.00  0.00    +0.155 A 
ATOM      9  F   UNL     1      -0.717  -4.550 -21.140  0.00  0.00    -0.203 F 
ATOM     10  C   UNL     1       0.034  -2.321 -21.340  0.00  0.00    +0.039 A 
ATOM     11  C   UNL     1      -0.218  -0.950 -21.218  0.00  0.00    +0.013 A 
ATOM     12  C   UNL     1      -1.456  -0.528 -20.725  0.00  0.00    +0.003 A 
ATOM     31  C   UNL     1      -2.436  -1.459 -20.373  0.00  0.00    +0.027 A 
BRANCH   7   5
ATOM      5  N   UNL     1      -3.132  -3.856 -20.183  0.00  0.00    -0.204 N 
ATOM      6  H   UNL     1      -2.822  -4.736 -19.660  0.00  0.00    +0.175 HD
BRANCH   5   4
ATOM      4  S   UNL     1      -4.786  -3.632 -20.643  0.00  0.00    +0.112 S 
ATOM     32  O   UNL     1      -4.946  -2.452 -21.473  0.00  0.00    -0.138 OA
ATOM     33  O   UNL     1      -5.333  -4.893 -21.100  0.00  0.00    -0.138 OA
BRANCH   4   3
ATOM      3  N   UNL     1      -5.402  -3.324 -19.043  0.00  0.00    -0.167 NA
ATOM     34  C   UNL     1      -5.623  -1.897 -18.668  0.00  0.00    +0.133 C 
BRANCH   3   2
ATOM      1  C   UNL     1      -5.279  -3.629 -16.596  0.00  0.00    +0.022 C 
ATOM      2  C   UNL     1      -4.708  -4.059 -17.933  0.00  0.00    +0.107 C 
ENDBRANCH   3   2
ENDBRANCH   4   3
ENDBRANCH   5   4
ENDBRANCH   7   5
ENDBRANCH  13  10
BRANCH  15  17
ATOM     17  C   UNL     1       2.181  -4.942 -24.745  0.00  0.00    +0.011 C 
ATOM     18  C   UNL     1       2.955  -6.246 -24.484  0.00  0.00    +0.018 C 
ATOM     19  C   UNL     1       0.727  -5.330 -25.099  0.00  0.00    +0.018 C 
ATOM     20  C   UNL     1       2.775  -4.167 -25.937  0.00  0.00    +0.018 C 
ENDBRANCH  15  17
TORSDOF 7
