REMARK  Name = 4KIK
REMARK  5 active torsions:
REMARK  status: ('A' for Active; 'I' for Inactive)
REMARK    1  A    between atoms: C_2  and  O_3
REMARK    2  A    between atoms: C_2  and  C_5
REMARK    3  A    between atoms: O_3  and  C_4
REMARK    4  A    between atoms: C_5  and  O_6
REMARK    5  A    between atoms: C_7  and  C_9
REMARK                            x       y       z     vdW  Elec       q    Type
REMARK                         _______ _______ _______ _____ _____    ______ ____
ROOT
ATOM      3  C   UNL     1      48.848  28.034 -54.459  0.00  0.00    +0.214 C 
ATOM      4  C   UNL     1      48.384  27.476 -55.832  0.00  0.00    +0.106 C 
ATOM      5  C   UNL     1      47.111  28.257 -56.159  0.00  0.00    +0.226 C 
ATOM      6  N   UNL     1      47.067  28.987 -57.461  0.00  0.00    -0.311 N 
ATOM      7  C   UNL     1      46.304  28.747 -58.611  0.00  0.00    +0.052 A 
ATOM      8  C   UNL     1      46.620  29.726 -59.579  0.00  0.00    +0.009 A 
ATOM      9  C   UNL     1      47.644  30.565 -59.006  0.00  0.00    +0.022 A 
ATOM     10  C   UNL     1      48.440  31.634 -59.446  0.00  0.00    +0.052 A 
ATOM     11  C   UNL     1      49.389  32.256 -58.622  0.00  0.00    -0.008 A 
ATOM     12  C   UNL     1      49.574  31.787 -57.307  0.00  0.00    +0.015 A 
ATOM     13  C   UNL     1      50.453  32.175 -56.216  0.00  0.00    +0.008 A 
ATOM     14  C   UNL     1      51.437  33.156 -56.067  0.00  0.00    +0.010 A 
ATOM     15  C   UNL     1      52.090  33.296 -54.849  0.00  0.00    +0.001 A 
ATOM     16  C   UNL     1      51.788  32.456 -53.782  0.00  0.00    +0.002 A 
ATOM     17  C   UNL     1      50.818  31.467 -53.908  0.00  0.00    +0.026 A 
ATOM     18  C   UNL     1      50.144  31.338 -55.119  0.00  0.00    +0.053 A 
ATOM     19  N   UNL     1      49.089  30.455 -55.475  0.00  0.00    -0.306 N 
ATOM     20  C   UNL     1      48.787  30.718 -56.831  0.00  0.00    +0.077 A 
ATOM     21  C   UNL     1      50.053  33.406 -59.339  0.00  0.00    +0.141 C 
ATOM     22  N   UNL     1      49.484  33.293 -60.695  0.00  0.00    -0.307 N 
ATOM     23  H   UNL     1      49.758  33.924 -61.515  0.00  0.00    +0.149 HD
ATOM     24  C   UNL     1      48.538  32.257 -60.781  0.00  0.00    +0.245 C 
ATOM     25  O   UNL     1      47.951  31.951 -61.815  0.00  0.00    -0.270 OA
ATOM     26  C   UNL     1      45.968  29.694 -60.814  0.00  0.00    +0.010 A 
ATOM     27  C   UNL     1      45.055  28.681 -61.083  0.00  0.00    +0.001 A 
ATOM     28  C   UNL     1      44.787  27.697 -60.133  0.00  0.00    +0.002 A 
ATOM     29  C   UNL     1      45.399  27.728 -58.884  0.00  0.00    +0.026 A 
ATOM     30  C   UNL     1      47.854  30.091 -57.692  0.00  0.00    +0.077 A 
ATOM     31  O   UNL     1      47.030  29.271 -55.158  0.00  0.00    -0.327 OA
ATOM     32  C   UNL     1      48.281  29.518 -54.565  0.00  0.00    +0.186 C 
ATOM     33  C   UNL     1      47.930  30.193 -53.250  0.00  0.00    +0.070 C 
ENDROOT
BRANCH   3   2
ATOM      1  O   UNL     1      49.050  26.767 -52.399  0.00  0.00    -0.247 OA
ATOM      2  C   UNL     1      48.341  27.191 -53.272  0.00  0.00    +0.344 C 
BRANCH   2  36
ATOM     36  O   UNL     1      47.025  27.000 -53.312  0.00  0.00    -0.466 OA
ATOM     37  C   UNL     1      46.395  26.546 -52.084  0.00  0.00    +0.280 C 
ENDBRANCH   2  36
ENDBRANCH   3   2
BRANCH   3  34
ATOM     34  O   UNL     1      50.269  28.175 -54.318  0.00  0.00    -0.374 OA
ATOM     35  H   UNL     1      50.485  28.656 -53.410  0.00  0.00    +0.211 HD
ENDBRANCH   3  34
TORSDOF 3
