REMARK  Name = 3r0t_ligand
REMARK  4 active torsions:
REMARK  status: ('A' for Active; 'I' for Inactive)
REMARK    1  A    between atoms: NAS_22  and  CAV_25
REMARK    2  A    between atoms: NAT_23  and  CBE_31
REMARK    3  A    between atoms: CAU_24  and  CAW_26
REMARK    4  A    between atoms: CAX_27  and  CBF_32
REMARK                            x       y       z     vdW  Elec       q    Type
REMARK                         _______ _______ _______ _____ _____    ______ ____
ROOT
ATOM      1  N   UNL     1      23.421 -29.478  10.420  0.00  0.00    -0.241 NA
ATOM      2  C   UNL     1      23.287 -30.744  10.797  0.00  0.00    +0.131 A 
ATOM      3  C   UNL     1      23.147 -31.045  12.151  0.00  0.00    +0.039 A 
ATOM      4  C   UNL     1      22.996 -32.352  12.609  0.00  0.00    +0.006 A 
ATOM      5  C   UNL     1      22.874 -32.568  13.978  0.00  0.00    +0.033 A 
ATOM      6  N   UNL     1      22.885 -31.520  14.849  0.00  0.00    -0.280 NA
ATOM      7  C   UNL     1      23.093 -30.247  14.432  0.00  0.00    +0.163 A 
ATOM      8  N   UNL     1      22.985 -29.154  15.196  0.00  0.00    -0.245 N 
ATOM      9  H   UNL     1      22.985 -28.261  14.683  0.00  0.00    +0.220 HD
ATOM     20  C   UNL     1      22.708 -33.870  14.448  0.00  0.00    +0.030 A 
ATOM     21  C   UNL     1      22.708 -34.950  13.574  0.00  0.00    +0.010 A 
ATOM     25  C   UNL     1      22.800 -34.725  12.202  0.00  0.00    +0.015 A 
ATOM     26  C   UNL     1      22.968 -33.433  11.721  0.00  0.00    +0.012 A 
ATOM     27  C   UNL     1      23.185 -30.006  13.072  0.00  0.00    +0.108 A 
ATOM     28  N   UNL     1      23.310 -28.750  12.649  0.00  0.00    -0.247 NA
ATOM     29  C   UNL     1      23.434 -28.488  11.339  0.00  0.00    +0.196 A 
ATOM     30  N   UNL     1      23.580 -27.216  10.980  0.00  0.00    -0.285 N 
ATOM     31  H   UNL     1      23.678 -26.952   9.989  0.00  0.00    +0.187 HD
ENDROOT
BRANCH   8  10
ATOM     10  C   UNL     1      22.877 -29.044  16.527  0.00  0.00    +0.096 A 
ATOM     11  C   UNL     1      22.973 -30.130  17.400  0.00  0.00    +0.068 A 
ATOM     12  C   UNL     1      22.843 -29.925  18.771  0.00  0.00    +0.038 A 
ATOM     17  C   UNL     1      22.658 -28.643  19.269  0.00  0.00    +0.036 A 
ATOM     18  C   UNL     1      22.594 -27.556  18.409  0.00  0.00    +0.028 A 
ATOM     19  C   UNL     1      22.777 -27.761  17.049  0.00  0.00    +0.071 A 
BRANCH  12  13
ATOM     13  C   UNL     1      22.914 -31.103  19.747  0.00  0.00    +0.374 C 
ATOM     14  F   UNL     1      22.714 -32.258  19.128  0.00  0.00    -0.221 F 
ATOM     15  F   UNL     1      22.009 -30.950  20.696  0.00  0.00    -0.221 F 
ATOM     16  F   UNL     1      24.116 -31.123  20.289  0.00  0.00    -0.221 F 
ENDBRANCH  12  13
ENDBRANCH   8  10
BRANCH  21  22
ATOM     22  C   UNL     1      22.486 -36.365  14.101  0.00  0.00    +0.063 C 
ATOM     23  O   UNL     1      22.086 -37.214  13.268  0.00  0.00    -0.561 OA
ATOM     24  O   UNL     1      22.464 -36.547  15.342  0.00  0.00    -0.561 OA
ENDBRANCH  21  22
BRANCH  30  32
ATOM     32  C   UNL     1      23.598 -26.197  12.040  0.00  0.00    +0.098 C 
ATOM     33  C   UNL     1      24.834 -25.307  12.063  0.00  0.00    +0.030 C 
ATOM     34  C   UNL     1      23.500 -24.762  11.531  0.00  0.00    +0.030 C 
ENDBRANCH  30  32
TORSDOF 4
