REMARK  Name = 4YVC
REMARK  2 active torsions:
REMARK  status: ('A' for Active; 'I' for Inactive)
REMARK    1  A    between atoms: C_4  and  C_14
REMARK    2  A    between atoms: C_11  and  C_12
REMARK                            x       y       z     vdW  Elec       q    Type
REMARK                         _______ _______ _______ _____ _____    ______ ____
ROOT
ATOM      6  C   UNL     1      50.411 101.593  27.798  0.00  0.00    +0.080 A 
ATOM      7  C   UNL     1      50.025 102.874  27.619  0.00  0.00    +0.076 A 
ATOM      8  S   UNL     1      50.345 103.766  29.104  0.00  0.00    -0.060 S 
ATOM      9  C   UNL     1      50.976 102.302  29.865  0.00  0.00    +0.165 A 
ATOM     10  N   UNL     1      51.401 102.123  31.179  0.00  0.00    -0.261 N 
ATOM     11  H   UNL     1      51.853 101.182  31.413  0.00  0.00    +0.157 HD
ATOM     12  C   UNL     1      51.301 103.018  32.194  0.00  0.00    +0.253 C 
ATOM     13  O   UNL     1      50.851 104.138  32.049  0.00  0.00    -0.270 OA
ATOM     21  N   UNL     1      50.895 101.329  29.011  0.00  0.00    -0.225 NA
ENDROOT
BRANCH  12  14
ATOM     14  C   UNL     1      51.721 102.608  33.558  0.00  0.00    +0.072 A 
ATOM     15  C   UNL     1      52.411 103.496  34.403  0.00  0.00    +0.016 A 
ATOM     16  C   UNL     1      52.731 103.105  35.692  0.00  0.00    +0.001 A 
ATOM     17  C   UNL     1      52.369 101.850  36.171  0.00  0.00    +0.003 A 
ATOM     18  C   UNL     1      51.675 100.971  35.354  0.00  0.00    +0.039 A 
ATOM     19  C   UNL     1      51.331 101.344  34.062  0.00  0.00    +0.136 A 
ATOM     20  F   UNL     1      50.660 100.472  33.279  0.00  0.00    -0.205 F 
ENDBRANCH  12  14
BRANCH   6   2
ATOM      1  C   UNL     1      50.026 100.964  25.384  0.00  0.00    +0.029 A 
ATOM      2  C   UNL     1      50.327 100.578  26.710  0.00  0.00    +0.004 A 
ATOM      3  C   UNL     1      50.578  99.215  26.960  0.00  0.00    +0.029 A 
ATOM      4  C   UNL     1      50.524  98.316  25.908  0.00  0.00    +0.111 A 
ATOM      5  N   UNL     1      50.231  98.719  24.680  0.00  0.00    -0.263 NA
ATOM     22  C   UNL     1      49.972  99.992  24.394  0.00  0.00    +0.111 A 
ENDBRANCH   6   2
TORSDOF 2
