REMARK  Name = 4rll_ligand
REMARK  3 active torsions:
REMARK  status: ('A' for Active; 'I' for Inactive)
REMARK    1  A    between atoms: C02_2  and  C04_4
REMARK    2  A    between atoms: C07_7  and  C08_8
REMARK    3  A    between atoms: N09_9  and  N10_10
REMARK                            x       y       z     vdW  Elec       q    Type
REMARK                         _______ _______ _______ _____ _____    ______ ____
ROOT
ATOM      9  N   UNL     1     -17.451  18.976  46.745  0.00  0.00    -0.205 NA
ATOM     10  C   UNL     1     -17.357  20.122  46.167  0.00  0.00    +0.081 C 
ATOM     11  C   UNL     1     -17.072  20.221  44.689  0.00  0.00    +0.011 A 
ATOM     12  C   UNL     1     -16.951  19.205  43.740  0.00  0.00    +0.017 A 
ATOM     13  C   UNL     1     -16.678  19.542  42.398  0.00  0.00    +0.004 A 
ATOM     14  C   UNL     1     -16.533  20.865  42.038  0.00  0.00    +0.006 A 
ATOM     15  C   UNL     1     -16.657  21.892  43.001  0.00  0.00    +0.011 A 
ATOM     16  C   UNL     1     -16.927  21.575  44.335  0.00  0.00    -0.012 A 
ATOM     17  C   UNL     1     -17.112  22.400  45.557  0.00  0.00    -0.012 A 
ATOM     18  C   UNL     1     -17.079  23.777  45.790  0.00  0.00    +0.011 A 
ATOM     19  C   UNL     1     -17.296  24.274  47.095  0.00  0.00    +0.006 A 
ATOM     20  C   UNL     1     -17.543  23.418  48.152  0.00  0.00    +0.004 A 
ATOM     21  C   UNL     1     -17.582  22.023  47.934  0.00  0.00    +0.017 A 
ATOM     22  C   UNL     1     -17.366  21.535  46.646  0.00  0.00    +0.011 A 
ENDROOT
BRANCH   9   8
ATOM      7  C   UNL     1     -17.594  16.651  47.202  0.00  0.00    +0.161 C 
ATOM      8  N   UNL     1     -17.283  17.763  46.532  0.00  0.00    -0.211 NA
BRANCH   7   6
ATOM      3  C   UNL     1     -16.821  12.642  45.922  0.00  0.00    +0.017 A 
ATOM      4  C   UNL     1     -16.982  13.681  45.018  0.00  0.00    +0.028 A 
ATOM      5  C   UNL     1     -17.233  14.988  45.444  0.00  0.00    +0.031 A 
ATOM      6  C   UNL     1     -17.333  15.292  46.801  0.00  0.00    +0.018 A 
ATOM     23  C   UNL     1     -17.169  14.260  47.727  0.00  0.00    +0.031 A 
ATOM     24  C   UNL     1     -16.918  12.952  47.280  0.00  0.00    +0.028 A 
BRANCH   3   2
ATOM      1  O   UNL     1     -16.675  10.986  44.191  0.00  0.00    -0.559 OA
ATOM      2  C   UNL     1     -16.534  11.208  45.421  0.00  0.00    +0.067 C 
ATOM     25  O   UNL     1     -16.162  10.379  46.267  0.00  0.00    -0.559 OA
ENDBRANCH   3   2
ENDBRANCH   7   6
ENDBRANCH   9   8
TORSDOF 3
