REMARK  Name = 3ot3_ligand
REMARK  5 active torsions:
REMARK  status: ('A' for Active; 'I' for Inactive)
REMARK    1  A    between atoms: C01_1  and  C12_12
REMARK    2  A    between atoms: C07_7  and  C18_18
REMARK    3  A    between atoms: C09_9  and  N11_11
REMARK    4  A    between atoms: N15_15  and  C17_17
REMARK    5  A    between atoms: C20_20  and  N24_24
REMARK                            x       y       z     vdW  Elec       q    Type
REMARK                         _______ _______ _______ _____ _____    ______ ____
ROOT
ATOM      1  C   UNL     1      14.599  -1.059  10.049  0.00  0.00    -0.013 A 
ATOM      8  C   UNL     1      14.982   0.034   9.326  0.00  0.00    +0.046 A 
ATOM      9  N   UNL     1      16.276   0.009   9.004  0.00  0.00    -0.214 NA
ATOM     10  N   UNL     1      16.732  -1.152   9.553  0.00  0.00    -0.113 N 
ATOM     11  C   UNL     1      18.046  -1.635   9.539  0.00  0.00    +0.228 A 
ATOM     15  C   UNL     1      18.273  -2.773  10.229  0.00  0.00    +0.094 A 
ATOM     16 BR   UNL     1      20.027  -3.433  10.417  0.00  0.00    -0.073 Br
ATOM     17  C   UNL     1      17.086  -3.419  10.913  0.00  0.00    +0.019 A 
ATOM     28  N   UNL     1      15.891  -2.952  10.911  0.00  0.00    -0.299 NA
ATOM     29  C   UNL     1      15.706  -1.794  10.234  0.00  0.00    +0.148 A 
ENDROOT
BRANCH   1   2
ATOM      2  C   UNL     1      13.332  -1.261  10.711  0.00  0.00    -0.030 A 
ATOM      3  C   UNL     1      12.948  -2.349  11.527  0.00  0.00    +0.132 A 
ATOM      4  N   UNL     1      11.730  -2.025  12.054  0.00  0.00    -0.217 N 
ATOM      5  C   UNL     1      10.922  -2.887  12.942  0.00  0.00    +0.238 C 
ATOM      6  N   UNL     1      11.331  -0.735  11.701  0.00  0.00    -0.221 NA
ATOM      7  C   UNL     1      12.331  -0.270  10.920  0.00  0.00    +0.058 A 
ENDBRANCH   1   2
BRANCH  17  18
ATOM     18  C   UNL     1      17.320  -4.695  11.700  0.00  0.00    +0.066 C 
ATOM     19  C   UNL     1      16.161  -5.708  11.425  0.00  0.00    +0.023 C 
ATOM     20  C   UNL     1      16.269  -6.932  12.342  0.00  0.00    +0.008 C 
ATOM     21  C   UNL     1      16.236  -6.515  13.830  0.00  0.00    +0.055 C 
ATOM     22  C   UNL     1      17.359  -5.516  14.093  0.00  0.00    +0.064 C 
ATOM     27  C   UNL     1      17.238  -4.301  13.204  0.00  0.00    +0.077 C 
BRANCH  22  23
ATOM     23  N   UNL     1      17.143  -5.033  15.506  0.00  0.00    +0.221 N 
ATOM     24  H   UNL     1      16.216  -4.614  15.583  0.00  0.00    +0.200 HD
ATOM     25  H   UNL     1      17.852  -4.338  15.738  0.00  0.00    +0.200 HD
ATOM     26  H   UNL     1      17.215  -5.822  16.148  0.00  0.00    +0.200 HD
ENDBRANCH  22  23
ENDBRANCH  17  18
BRANCH  11  12
ATOM     12  N   UNL     1      19.038  -0.917   8.884  0.00  0.00    -0.281 N 
ATOM     13  H   UNL     1      18.801  -0.063   8.379  0.00  0.00    +0.193 HD
ATOM     14  H   UNL     1      20.004  -1.244   8.908  0.00  0.00    +0.193 HD
ENDBRANCH  11  12
TORSDOF 4
