REMARK  Name = 5osp
REMARK  2 active torsions:
REMARK  status: ('A' for Active; 'I' for Inactive)
REMARK    1  A    between atoms: C5_8  and  C7_10
REMARK    2  A    between atoms: C10_13  and  C11_14
REMARK                            x       y       z     vdW  Elec       q    Type
REMARK                         _______ _______ _______ _____ _____    ______ ____
ROOT
ATOM      5  C   UNL     1    -110.669-176.023 306.999  0.00  0.00    +0.003 A 
ATOM      6  C   UNL     1    -111.084-174.795 306.456  0.00  0.00    +0.049 A 
ATOM      7 CL   UNL     1    -109.933-173.536 306.134  0.00  0.00    -0.084 Cl
ATOM      8  C   UNL     1    -112.416-174.532 306.194  0.00  0.00    +0.026 A 
ATOM      9  C   UNL     1    -113.391-175.481 306.486  0.00  0.00    -0.033 A 
ATOM     12  C   UNL     1    -112.992-176.697 307.029  0.00  0.00    +0.006 A 
ATOM     13  C   UNL     1    -111.656-176.967 307.286  0.00  0.00    +0.011 A 
ENDROOT
BRANCH   5   4
ATOM      1  C   UNL     1    -107.052-176.959 310.333  0.00  0.00    +0.044 C 
ATOM      2  C   UNL     1    -107.505-176.918 308.893  0.00  0.00    -0.050 A 
ATOM      3  C   UNL     1    -108.816-176.591 308.569  0.00  0.00    +0.015 A 
ATOM      4  C   UNL     1    -109.236-176.375 307.251  0.00  0.00    +0.013 A 
ATOM     14  C   UNL     1    -108.287-176.536 306.231  0.00  0.00    +0.079 A 
ATOM     15  C   UNL     1    -106.982-176.920 306.537  0.00  0.00    +0.034 A 
ATOM     16  O   UNL     1    -108.632-176.272 304.938  0.00  0.00    -0.142 OA
ATOM     17  C   UNL     1    -106.600-177.094 307.854  0.00  0.00    +0.006 A 
ENDBRANCH   5   4
BRANCH   9  10
ATOM     10  C   UNL     1    -114.847-175.163 306.269  0.00  0.00    +0.113 C 
ATOM     11  N   UNL     1    -115.522-176.077 305.367  0.00  0.00    -0.089 NA
ENDBRANCH   9  10
TORSDOF 2
