REMARK  Name = 3W16
REMARK  3 active torsions:
REMARK  status: ('A' for Active; 'I' for Inactive)
REMARK    1  A    between atoms: N_2  and  C_11
REMARK    2  A    between atoms: N_17  and  C_18
REMARK    3  A    between atoms: C_20  and  C_23
REMARK                            x       y       z     vdW  Elec       q    Type
REMARK                         _______ _______ _______ _____ _____    ______ ____
ROOT
ATOM      1  C   UNL     1      -4.166  32.590  -2.660  0.00  0.00    +0.278 C 
ATOM      2  O   UNL     1      -4.416  32.429  -1.462  0.00  0.00    -0.265 OA
ATOM      3  C   UNL     1      -3.305  33.613  -3.072  0.00  0.00    +0.052 A 
ATOM      4  C   UNL     1      -3.043  33.764  -4.443  0.00  0.00    +0.031 A 
ATOM      5  C   UNL     1      -3.655  32.876  -5.351  0.00  0.00    +0.156 C 
ATOM      6  N   UNL     1      -3.405  33.052  -6.662  0.00  0.00    -0.209 NA
ATOM     14  N   UNL     1      -4.476  31.929  -4.874  0.00  0.00    -0.273 N 
ATOM     15  H   UNL     1      -4.930  31.253  -5.567  0.00  0.00    +0.189 HD
ATOM     16  C   UNL     1      -2.178  34.789  -4.845  0.00  0.00    +0.012 A 
ATOM     17  C   UNL     1      -1.580  35.634  -3.898  0.00  0.00    +0.001 A 
ATOM     18  C   UNL     1      -1.847  35.475  -2.547  0.00  0.00    +0.001 A 
ATOM     19  C   UNL     1      -2.706  34.459  -2.134  0.00  0.00    +0.014 A 
ATOM     20  N   UNL     1      -4.751  31.791  -3.589  0.00  0.00    -0.218 N 
ENDROOT
BRANCH   6   7
ATOM      7  C   UNL     1      -3.962  32.336  -7.663  0.00  0.00    +0.151 A 
ATOM      8  N   UNL     1      -3.789  32.656  -8.959  0.00  0.00    -0.260 N 
ATOM      9  H   UNL     1      -3.219  33.480  -9.335  0.00  0.00    +0.191 HD
ATOM     10  N   UNL     1      -4.466  31.749  -9.702  0.00  0.00    -0.177 NA
ATOM     11  C   UNL     1      -5.035  30.889  -8.853  0.00  0.00    +0.062 A 
ATOM     12  C   UNL     1      -5.887  29.693  -9.264  0.00  0.00    +0.067 C 
ATOM     13  C   UNL     1      -4.721  31.225  -7.593  0.00  0.00    +0.072 A 
ENDBRANCH   6   7
BRANCH  20  21
ATOM     21  C   UNL     1      -5.528  30.764  -3.206  0.00  0.00    +0.067 A 
ATOM     22  C   UNL     1      -5.375  29.544  -3.897  0.00  0.00    +0.028 A 
ATOM     23  C   UNL     1      -6.096  28.399  -3.536  0.00  0.00    +0.002 A 
ATOM     24  C   UNL     1      -6.964  28.466  -2.447  0.00  0.00    +0.000 A 
ATOM     25  C   UNL     1      -7.100  29.660  -1.732  0.00  0.00    +0.002 A 
ATOM     26  C   UNL     1      -6.383  30.810  -2.097  0.00  0.00    +0.028 A 
ENDBRANCH  20  21
TORSDOF 2
