REMARK  Name = 2JED
REMARK  7 active torsions:
REMARK  status: ('A' for Active; 'I' for Inactive)
REMARK    1  A    between atoms: C_11  and  C_12
REMARK    2  A    between atoms: C_18  and  C_19
REMARK    3  A    between atoms: N_27  and  C_28
REMARK    4  A    between atoms: C_29  and  C_30
REMARK    5  A    between atoms: C_30  and  N_31
REMARK    6  A    between atoms: N_31  and  C_33
REMARK    7  A    between atoms: N_31  and  C_34
REMARK                            x       y       z     vdW  Elec       q    Type
REMARK                         _______ _______ _______ _____ _____    ______ ____
ROOT
ATOM      6  C   UNL     1      58.159  14.336  -2.209  0.00  0.00    +0.059 C 
ATOM      7  C   UNL     1      58.534  13.755  -3.379  0.00  0.00    +0.059 C 
ATOM     18  C   UNL     1      58.478  12.303  -3.153  0.00  0.00    +0.252 C 
ATOM     19  O   UNL     1      58.736  11.469  -4.011  0.00  0.00    -0.270 OA
ATOM     20  N   UNL     1      58.128  12.037  -1.889  0.00  0.00    -0.248 N 
ATOM     21  H   UNL     1      58.017  11.065  -1.456  0.00  0.00    +0.158 HD
ATOM     22  C   UNL     1      57.941  13.211  -1.261  0.00  0.00    +0.252 C 
ATOM     23  O   UNL     1      57.619  13.315  -0.076  0.00  0.00    -0.270 OA
ENDROOT
BRANCH   6   5
ATOM      1  C   UNL     1      56.977  19.337  -3.664  0.00  0.00    +0.027 C 
ATOM      2  C   UNL     1      56.151  18.160  -4.259  0.00  0.00    +0.010 C 
ATOM      3  C   UNL     1      56.604  16.776  -3.693  0.00  0.00    +0.059 C 
ATOM      4  C   UNL     1      57.416  16.813  -2.420  0.00  0.00    +0.028 A 
ATOM      5  C   UNL     1      58.056  15.772  -1.843  0.00  0.00    +0.016 A 
ATOM     24  C   UNL     1      58.709  16.335  -0.607  0.00  0.00    +0.008 A 
ATOM     25  C   UNL     1      59.521  15.800   0.414  0.00  0.00    +0.010 A 
ATOM     26  C   UNL     1      59.948  16.685   1.407  0.00  0.00    +0.001 A 
ATOM     27  C   UNL     1      59.606  18.053   1.374  0.00  0.00    +0.002 A 
ATOM     28  C   UNL     1      58.798  18.586   0.347  0.00  0.00    +0.026 A 
ATOM     29  C   UNL     1      58.365  17.684  -0.641  0.00  0.00    +0.050 A 
ATOM     30  N   UNL     1      57.605  17.916  -1.734  0.00  0.00    -0.343 N 
ATOM     35  C   UNL     1      57.057  19.229  -2.114  0.00  0.00    +0.122 C 
BRANCH   2  31
ATOM     31  C   UNL     1      56.105  18.064  -5.823  0.00  0.00    +0.087 C 
BRANCH  31  32
ATOM     32  N   UNL     1      56.025  19.342  -6.589  0.00  0.00    -0.308 NA
ATOM     33  C   UNL     1      55.048  19.362  -7.716  0.00  0.00    +0.104 C 
ATOM     34  C   UNL     1      57.385  19.878  -6.951  0.00  0.00    +0.104 C 
ENDBRANCH  31  32
ENDBRANCH   2  31
ENDBRANCH   6   5
BRANCH   7   8
ATOM      8  C   UNL     1      58.846  14.326  -4.707  0.00  0.00    +0.013 A 
ATOM      9  C   UNL     1      59.503  15.641  -5.042  0.00  0.00    +0.008 A 
ATOM     10  C   UNL     1      59.468  15.648  -6.434  0.00  0.00    +0.049 A 
ATOM     11  N   UNL     1      58.888  14.508  -6.889  0.00  0.00    -0.349 N 
ATOM     12  C   UNL     1      58.721  14.209  -8.302  0.00  0.00    +0.149 C 
ATOM     13  C   UNL     1      59.979  16.720  -7.175  0.00  0.00    +0.026 A 
ATOM     14  C   UNL     1      60.529  17.794  -6.470  0.00  0.00    +0.002 A 
ATOM     15  C   UNL     1      60.566  17.797  -5.068  0.00  0.00    +0.001 A 
ATOM     16  C   UNL     1      60.055  16.725  -4.333  0.00  0.00    +0.010 A 
ATOM     17  C   UNL     1      58.515  13.742  -5.891  0.00  0.00    +0.095 A 
ENDBRANCH   7   8
TORSDOF 4
