REMARK  Name = 5DXT
REMARK  8 active torsions:
REMARK  status: ('A' for Active; 'I' for Inactive)
REMARK    1  A    between atoms: C_1  and  C_2
REMARK    2  A    between atoms: C_2  and  C_3
REMARK    3  A    between atoms: C_2  and  O_15
REMARK    4  A    between atoms: C_4  and  O_15
REMARK    5  A    between atoms: C_7  and  C_23
REMARK    6  A    between atoms: C_12  and  N_26
REMARK    7  A    between atoms: C_12  and  C_27
REMARK    8  A    between atoms: C_12  and  C_28
REMARK                            x       y       z     vdW  Elec       q    Type
REMARK                         _______ _______ _______ _____ _____    ______ ____
ROOT
ATOM      8  C   UNL     1     -17.996  15.581  31.358  0.00  0.00    +0.125 A 
ATOM      9  C   UNL     1     -16.725  16.010  30.971  0.00  0.00    +0.092 A 
ATOM     10  C   UNL     1     -15.977  15.315  30.029  0.00  0.00    +0.135 A 
ATOM     11  O   UNL     1     -14.757  15.789  29.701  0.00  0.00    -0.489 OA
ATOM     12  C   UNL     1     -14.353  15.906  28.342  0.00  0.00    +0.250 C 
ATOM     13  C   UNL     1     -13.664  14.612  27.953  0.00  0.00    +0.164 C 
ATOM     14  N   UNL     1     -14.600  13.506  27.772  0.00  0.00    -0.326 N 
ATOM     15  C   UNL     1     -15.818  13.290  28.411  0.00  0.00    +0.145 A 
ATOM     16  N   UNL     1     -16.295  12.175  27.936  0.00  0.00    -0.224 NA
ATOM     17  C   UNL     1     -15.475  11.631  27.029  0.00  0.00    +0.126 A 
ATOM     26  C   UNL     1     -14.405  12.463  26.925  0.00  0.00    +0.119 A 
ATOM     27  C   UNL     1     -16.514  14.130  29.436  0.00  0.00    +0.059 A 
ATOM     28  C   UNL     1     -17.788  13.717  29.835  0.00  0.00    +0.019 A 
ATOM     29  C   UNL     1     -18.514  14.420  30.771  0.00  0.00    +0.046 A 
ENDROOT
BRANCH  17  18
ATOM     18  C   UNL     1     -15.669  10.370  26.280  0.00  0.00    +0.179 A 
ATOM     19  N   UNL     1     -16.637   9.422  26.421  0.00  0.00    -0.241 N 
ATOM     20  N   UNL     1     -16.344   8.433  25.468  0.00  0.00    -0.158 NA
ATOM     21  C   UNL     1     -15.266   8.804  24.836  0.00  0.00    +0.245 A 
ATOM     25  N   UNL     1     -14.860   9.966  25.325  0.00  0.00    -0.213 NA
BRANCH  19  22
ATOM     22  C   UNL     1     -17.790   9.370  27.335  0.00  0.00    +0.103 C 
ATOM     23  C   UNL     1     -19.070   9.328  26.500  0.00  0.00    +0.032 C 
ATOM     24  C   UNL     1     -17.719   8.105  28.192  0.00  0.00    +0.032 C 
ENDBRANCH  19  22
ENDBRANCH  17  18
BRANCH   8   7
ATOM      7  O   UNL     1     -18.662  16.332  32.298  0.00  0.00    -0.480 OA
BRANCH   7   6
ATOM      6  C   UNL     1     -19.952  15.974  32.834  0.00  0.00    +0.255 C 
ATOM     30  C   UNL     1     -20.295  16.885  34.017  0.00  0.00    +0.062 C 
BRANCH   6   1
ATOM      1  C   UNL     1     -21.025  16.086  31.773  0.00  0.00    +0.251 C 
ATOM      2  O   UNL     1     -22.003  15.368  31.824  0.00  0.00    -0.272 OA
ATOM      3  N   UNL     1     -20.883  16.949  30.748  0.00  0.00    -0.326 N 
ATOM      4  H   UNL     1     -21.646  17.023  30.001  0.00  0.00    +0.145 HD
ATOM      5  H   UNL     1     -20.007  17.560  30.681  0.00  0.00    +0.145 HD
ENDBRANCH   6   1
ENDBRANCH   7   6
ENDBRANCH   8   7
TORSDOF 5
