REMARK  Name = G8H
REMARK  3 active torsions:
REMARK  status: ('A' for Active; 'I' for Inactive)
REMARK    1  A    between atoms: C6_4  and  C7_6
REMARK    2  A    between atoms: C7_6  and  C8_7
REMARK    3  A    between atoms: N2_13  and  C1_15
REMARK                            x       y       z     vdW  Elec       q    Type
REMARK                         _______ _______ _______ _____ _____    ______ ____
ROOT
ATOM      9  C   UNL     1     -73.837 -20.853  80.916  0.00  0.00    +0.114 C 
ENDROOT
BRANCH   9  10
ATOM     10  C   UNL     1     -72.862 -21.889  80.421  0.00  0.00    -0.013 A 
ATOM     11  C   UNL     1     -72.818 -23.157  81.035  0.00  0.00    -0.004 A 
ATOM     12  C   UNL     1     -71.963 -24.125  80.602  0.00  0.00    -0.000 A 
ATOM     13  C   UNL     1     -71.103 -23.888  79.511  0.00  0.00    -0.000 A 
ATOM     14  C   UNL     1     -70.201 -24.878  79.035  0.00  0.00    -0.000 A 
ATOM     15  C   UNL     1     -69.382 -24.614  77.982  0.00  0.00    -0.000 A 
ATOM     16  C   UNL     1     -69.419 -23.355  77.347  0.00  0.00    -0.000 A 
ATOM     17  C   UNL     1     -70.271 -22.385  77.780  0.00  0.00    -0.000 A 
ATOM     18  C   UNL     1     -71.137 -22.619  78.876  0.00  0.00    -0.000 A 
ATOM     19  C   UNL     1     -72.039 -21.638  79.352  0.00  0.00    -0.004 A 
ENDBRANCH   9  10
BRANCH   9   7
ATOM      6  N   UNL     1     -73.217 -20.107  83.146  0.00  0.00    -0.160 NA
ATOM      7  C   UNL     1     -73.185 -19.836  81.811  0.00  0.00    +0.251 C 
ATOM      8  O   UNL     1     -72.705 -18.825  81.328  0.00  0.00    -0.273 OA
BRANCH   6   4
ATOM      1  C   UNL     1     -71.908 -17.937  86.402  0.00  0.00    +0.021 A 
ATOM      2  C   UNL     1     -72.421 -19.205  86.469  0.00  0.00    +0.100 A 
ATOM      3  N   UNL     1     -72.850 -19.899  85.400  0.00  0.00    -0.227 NA
ATOM      4  C   UNL     1     -72.765 -19.301  84.205  0.00  0.00    +0.155 A 
ATOM      5  C   UNL     1     -72.249 -18.013  84.042  0.00  0.00    +0.036 A 
ATOM     20  C   UNL     1     -71.818 -17.339  85.163  0.00  0.00    +0.004 A 
ENDBRANCH   6   4
ENDBRANCH   9   7
TORSDOF 3
