REMARK  Name = 1uwh_ligand
REMARK  7 active torsions:
REMARK  status: ('A' for Active; 'I' for Inactive)
REMARK    1  A    between atoms: C2_2  and  N12_26
REMARK    2  A    between atoms: C16_6  and  N14_27
REMARK    3  A    between atoms: C19_9  and  O22_12
REMARK    4  A    between atoms: O22_12  and  C23_29
REMARK    5  A    between atoms: C27_15  and  C29_31
REMARK    6  A    between atoms: N30_17  and  C31_18
REMARK    7  A    between atoms: C6_20  and  C7_21
REMARK                            x       y       z     vdW  Elec       q    Type
REMARK                         _______ _______ _______ _____ _____    ______ ____
ROOT
ATOM     18  C   UNL     1      75.308  46.205  63.349  0.00  0.00    +0.058 A 
ATOM     19  C   UNL     1      74.213  45.542  63.943  0.00  0.00    +0.000 A 
ATOM     20  C   UNL     1      73.517  44.567  63.207  0.00  0.00    +0.012 A 
ATOM     21  C   UNL     1      73.896  44.258  61.887  0.00  0.00    +0.105 A 
ATOM     34  C   UNL     1      74.973  44.903  61.295  0.00  0.00    +0.012 A 
ATOM     35  C   UNL     1      75.703  45.867  61.980  0.00  0.00    +0.000 A 
ENDROOT
BRANCH  18  16
ATOM     12  N   UNL     1      76.919  48.400  66.358  0.00  0.00    -0.209 N 
ATOM     13  H   UNL     1      77.389  49.018  65.728  0.00  0.00    +0.227 HD
ATOM     14  C   UNL     1      76.169  47.355  65.528  0.00  0.00    +0.315 C 
ATOM     15  O   UNL     1      76.250  46.299  66.055  0.00  0.00    -0.381 OA
ATOM     16  N   UNL     1      76.065  47.355  64.145  0.00  0.00    -0.220 N 
ATOM     17  H   UNL     1      76.481  48.105  63.630  0.00  0.00    +0.223 HD
BRANCH  12  11
ATOM      1  C   UNL     1      77.625  47.853  68.561  0.00  0.00    +0.058 A 
ATOM      2  C   UNL     1      77.905  48.158  69.867  0.00  0.00    +0.046 A 
ATOM      7  C   UNL     1      77.737  49.545  70.265  0.00  0.00    +0.059 A 
ATOM      8 CL   UNL     1      78.046  50.140  71.917  0.00  0.00    -0.054 Cl
ATOM      9  C   UNL     1      77.307  50.506  69.356  0.00  0.00    +0.038 A 
ATOM     10  C   UNL     1      77.041  50.152  68.065  0.00  0.00    +0.065 A 
ATOM     11  C   UNL     1      77.199  48.823  67.677  0.00  0.00    +0.096 A 
BRANCH   2   3
ATOM      3  C   UNL     1      78.334  47.148  70.727  0.00  0.00    +0.372 C 
ATOM      4  F   UNL     1      78.372  45.937  70.183  0.00  0.00    -0.222 F 
ATOM      5  F   UNL     1      77.504  47.070  71.771  0.00  0.00    -0.222 F 
ATOM      6  F   UNL     1      79.563  47.394  71.138  0.00  0.00    -0.222 F 
ENDBRANCH   2   3
ENDBRANCH  12  11
ENDBRANCH  18  16
BRANCH  21  22
ATOM     22  O   UNL     1      73.213  43.332  61.148  0.00  0.00    -0.256 OA
BRANCH  22  23
ATOM     23  C   UNL     1      73.416  41.976  61.384  0.00  0.00    +0.138 A 
ATOM     24  C   UNL     1      72.330  41.255  61.077  0.00  0.00    +0.088 A 
ATOM     25  C   UNL     1      72.273  39.927  61.215  0.00  0.00    +0.112 A 
ATOM     31  N   UNL     1      73.393  39.243  61.707  0.00  0.00    -0.292 NA
ATOM     32  C   UNL     1      74.601  39.959  62.058  0.00  0.00    +0.086 A 
ATOM     33  C   UNL     1      74.622  41.333  61.899  0.00  0.00    +0.070 A 
BRANCH  25  26
ATOM     26  C   UNL     1      70.926  39.222  60.821  0.00  0.00    +0.221 C 
ATOM     27  O   UNL     1      69.916  39.977  60.567  0.00  0.00    -0.379 OA
ATOM     28  N   UNL     1      70.507  37.914  61.352  0.00  0.00    -0.287 N 
ATOM     29  H   UNL     1      70.530  37.673  62.322  0.00  0.00    +0.184 HD
ATOM     30  C   UNL     1      70.064  37.028  60.322  0.00  0.00    +0.164 C 
ENDBRANCH  25  26
ENDBRANCH  22  23
ENDBRANCH  21  22
TORSDOF 6
