REMARK  Name = 3zly_ligand
REMARK  2 active torsions:
REMARK  status: ('A' for Active; 'I' for Inactive)
REMARK    1  A    between atoms: CAK_1  and  CAC_3
REMARK    2  A    between atoms: CAE_10  and  NAI_12
REMARK                            x       y       z     vdW  Elec       q    Type
REMARK                         _______ _______ _______ _____ _____    ______ ____
ROOT
ATOM      2  C   UNL     1     -18.750  27.922  -2.896  0.00  0.00    +0.118 A 
ATOM      3  C   UNL     1     -20.070  28.424  -2.848  0.00  0.00    +0.110 A 
ATOM      4  C   UNL     1     -21.410  27.887  -2.934  0.00  0.00    +0.246 A 
ATOM      8  N   UNL     1     -22.287  28.918  -2.865  0.00  0.00    -0.254 N 
ATOM      9  H   UNL     1     -23.314  28.847  -2.897  0.00  0.00    +0.254 HD
ATOM     10  N   UNL     1     -21.562  30.065  -2.745  0.00  0.00    -0.438 NA
ATOM     11  C   UNL     1     -20.232  29.819  -2.717  0.00  0.00    -0.041 A 
ATOM     12  C   UNL     1     -19.135  30.674  -2.627  0.00  0.00    +0.011 A 
ATOM     13  C   UNL     1     -17.852  30.149  -2.680  0.00  0.00    +0.013 A 
ATOM     14  C   UNL     1     -17.659  28.786  -2.801  0.00  0.00    +0.047 A 
ENDROOT
BRANCH   4   5
ATOM      5  N   UNL     1     -21.809  26.614  -3.070  0.00  0.00    -0.260 N 
ATOM      6  H   UNL     1     -22.813  26.392  -3.126  0.00  0.00    +0.210 HD
ATOM      7  H   UNL     1     -21.111  25.858  -3.119  0.00  0.00    +0.210 HD
ENDBRANCH   4   5
BRANCH   2   1
ATOM      1  C   UNL     1     -18.508  26.520  -3.105  0.00  0.00    +0.102 C 
ATOM     15  N   UNL     1     -18.271  25.421  -3.289  0.00  0.00    -0.328 NA
ENDBRANCH   2   1
TORSDOF 2
