REMARK  Name = 5AEP
REMARK  4 active torsions:
REMARK  status: ('A' for Active; 'I' for Inactive)
REMARK    1  A    between atoms: C_6  and  C_7
REMARK    2  A    between atoms: C_8  and  N_9
REMARK    3  A    between atoms: C_10  and  C_11
REMARK    4  A    between atoms: C_16  and  C_17
REMARK                            x       y       z     vdW  Elec       q    Type
REMARK                         _______ _______ _______ _____ _____    ______ ____
ROOT
ATOM      7  N   UNL     1      31.917  13.945  -4.390  0.00  0.00    -0.311 N 
ATOM      8  C   UNL     1      32.838  13.278  -3.700  0.00  0.00    +0.102 A 
ATOM      9  C   UNL     1      32.365  11.969  -3.681  0.00  0.00    +0.021 A 
ATOM     19  C   UNL     1      31.158  11.932  -4.379  0.00  0.00    +0.043 A 
ATOM     20  C   UNL     1      30.892  13.220  -4.826  0.00  0.00    +0.109 A 
ENDROOT
BRANCH   9  10
ATOM     10  C   UNL     1      33.033  10.808  -3.027  0.00  0.00    +0.100 A 
ATOM     11  C   UNL     1      34.187  10.994  -2.278  0.00  0.00    +0.091 A 
ATOM     12  C   UNL     1      34.992  12.131  -1.930  0.00  0.00    +0.031 A 
ATOM     13  C   UNL     1      36.021  11.641  -1.148  0.00  0.00    +0.022 A 
ATOM     14  C   UNL     1      35.852  10.272  -1.026  0.00  0.00    +0.113 A 
ATOM     15  N   UNL     1      34.754   9.936  -1.711  0.00  0.00    -0.236 N 
ATOM     16  N   UNL     1      34.224   8.651  -1.847  0.00  0.00    -0.155 NA
ATOM     17  C   UNL     1      33.110   8.504  -2.576  0.00  0.00    +0.244 A 
ATOM     18  N   UNL     1      32.522   9.562  -3.157  0.00  0.00    -0.232 NA
ENDBRANCH   9  10
BRANCH   7   6
ATOM      1 CL   UNL     1      33.720  17.683  -7.444  0.00  0.00    -0.084 Cl
ATOM      2  C   UNL     1      32.816  17.122  -5.998  0.00  0.00    +0.043 A 
ATOM      3  C   UNL     1      32.232  18.043  -5.145  0.00  0.00    +0.020 A 
ATOM      4  C   UNL     1      31.543  17.574  -4.039  0.00  0.00    +0.007 A 
ATOM      5  C   UNL     1      31.442  16.209  -3.795  0.00  0.00    -0.026 A 
ATOM      6  C   UNL     1      32.016  15.257  -4.629  0.00  0.00    +0.051 A 
ATOM     26  C   UNL     1      30.683  15.744  -2.581  0.00  0.00    +0.046 C 
ATOM     27  C   UNL     1      32.702  15.763  -5.733  0.00  0.00    +0.046 A 
ENDBRANCH   7   6
BRANCH  20  21
ATOM     21  C   UNL     1      29.718  13.685  -5.618  0.00  0.00    +0.258 C 
ATOM     22  O   UNL     1      28.760  12.943  -5.757  0.00  0.00    -0.269 OA
ATOM     23  N   UNL     1      29.748  14.902  -6.154  0.00  0.00    -0.324 N 
ATOM     24  H   UNL     1      28.916  15.255  -6.726  0.00  0.00    +0.145 HD
ATOM     25  H   UNL     1      30.604  15.528  -6.013  0.00  0.00    +0.145 HD
ENDBRANCH  20  21
TORSDOF 3
