REMARK  Name = 3dbs_ligand
REMARK  5 active torsions:
REMARK  status: ('A' for Active; 'I' for Inactive)
REMARK    1  A    between atoms: C5_3  and  C7_6
REMARK    2  A    between atoms: C7_6  and  N4_17
REMARK    3  A    between atoms: C8_7  and  C3_25
REMARK    4  A    between atoms: C13_14  and  S2_19
REMARK    5  A    between atoms: S2_19  and  N5_21
REMARK                            x       y       z     vdW  Elec       q    Type
REMARK                         _______ _______ _______ _____ _____    ______ ____
ROOT
ATOM      1  O   UNL     1      19.686  59.525  24.439  0.00  0.00    -0.376 OA
ATOM      2  C   UNL     1      19.250  60.743  23.850  0.00  0.00    +0.184 C 
ATOM      3  C   UNL     1      19.955  60.889  22.500  0.00  0.00    +0.164 C 
ATOM      4  N   UNL     1      21.380  60.990  22.810  0.00  0.00    -0.285 N 
ATOM      5  C   UNL     1      21.950  59.888  23.583  0.00  0.00    +0.164 C 
ATOM      6  C   UNL     1      22.255  61.781  22.108  0.00  0.00    +0.135 A 
ATOM      7  C   UNL     1      22.032  63.123  21.786  0.00  0.00    +0.099 A 
ATOM      8  C   UNL     1      22.993  63.829  21.110  0.00  0.00    +0.027 A 
ATOM      9  N   UNL     1      24.157  63.285  20.755  0.00  0.00    -0.305 NA
ATOM     10  C   UNL     1      24.375  61.989  21.052  0.00  0.00    +0.083 A 
ATOM     21  C   UNL     1      22.592  65.205  20.863  0.00  0.00    -0.007 A 
ATOM     22  C   UNL     1      21.375  65.398  21.367  0.00  0.00    +0.074 A 
ATOM     35  S   UNL     1      20.661  64.068  22.110  0.00  0.00    -0.009 S 
ATOM     36  N   UNL     1      23.448  61.257  21.720  0.00  0.00    -0.269 NA
ATOM     37  C   UNL     1      21.062  59.602  24.789  0.00  0.00    +0.184 C 
ENDROOT
BRANCH  10  11
ATOM     11  C   UNL     1      25.609  61.469  20.667  0.00  0.00    +0.007 A 
ATOM     12  C   UNL     1      26.251  60.535  21.438  0.00  0.00    +0.021 A 
ATOM     13  C   UNL     1      25.828  59.920  22.652  0.00  0.00    +0.095 A 
ATOM     14  N   UNL     1      26.803  59.061  23.031  0.00  0.00    -0.204 NA
ATOM     15  N   UNL     1      27.863  59.090  22.079  0.00  0.00    -0.212 N 
ATOM     16  H   UNL     1      28.737  58.545  22.090  0.00  0.00    +0.246 HD
ATOM     17  C   UNL     1      27.454  60.012  21.141  0.00  0.00    +0.091 A 
ATOM     18  C   UNL     1      28.088  60.437  19.990  0.00  0.00    +0.028 A 
ATOM     19  C   UNL     1      27.490  61.382  19.182  0.00  0.00    -0.006 A 
ATOM     20  C   UNL     1      26.254  61.914  19.517  0.00  0.00    -0.000 A 
ENDBRANCH  10  11
BRANCH  22  23
ATOM     23  C   UNL     1      20.691  66.743  21.278  0.00  0.00    +0.234 C 
BRANCH  23  24
ATOM     24  N   UNL     1      20.161  66.980  19.955  0.00  0.00    +0.255 N 
ATOM     25  H   UNL     1      20.865  66.673  19.302  0.00  0.00    +0.206 HD
ATOM     26  C   UNL     1      18.981  66.172  19.714  0.00  0.00    +0.154 C 
ATOM     27  C   UNL     1      18.885  66.207  18.208  0.00  0.00    +0.176 C 
ATOM     28  N   UNL     1      18.472  67.555  17.898  0.00  0.00    -0.229 NA
ATOM     33  C   UNL     1      19.530  68.524  18.196  0.00  0.00    +0.176 C 
ATOM     34  C   UNL     1      19.921  68.393  19.672  0.00  0.00    +0.154 C 
BRANCH  28  29
ATOM     29  S   UNL     1      18.013  67.564  16.242  0.00  0.00    +0.039 S 
ATOM     30  O   UNL     1      17.038  66.497  15.981  0.00  0.00    -0.156 OA
ATOM     31  O   UNL     1      19.233  67.342  15.453  0.00  0.00    -0.156 OA
ATOM     32  C   UNL     1      17.257  69.177  15.870  0.00  0.00    +0.218 C 
ENDBRANCH  28  29
ENDBRANCH  23  24
ENDBRANCH  22  23
TORSDOF 4
