REMARK  Name = 4aoi_ligand
REMARK  4 active torsions:
REMARK  status: ('A' for Active; 'I' for Inactive)
REMARK    1  A    between atoms: C22_2  and  C19_3
REMARK    2  A    between atoms: C16_7  and  C12_9
REMARK    3  A    between atoms: C11_15  and  C24_18
REMARK    4  A    between atoms: C24_18  and  C25_19
REMARK                            x       y       z     vdW  Elec       q    Type
REMARK                         _______ _______ _______ _____ _____    ______ ____
ROOT
ATOM      7  C   UNL     1      18.424  81.877   4.985  0.00  0.00    +0.141 A 
ATOM      8  C   UNL     1      17.824  80.939   5.909  0.00  0.00    +0.178 A 
ATOM      9  N   UNL     1      17.656  81.218   7.246  0.00  0.00    -0.226 NA
ATOM     10  C   UNL     1      18.106  82.445   7.606  0.00  0.00    +0.251 A 
ATOM     11  N   UNL     1      18.094  82.997   8.772  0.00  0.00    -0.265 NA
ATOM     12  N   UNL     1      18.623  84.187   8.691  0.00  0.00    -0.267 NA
ATOM     13  C   UNL     1      18.986  84.426   7.470  0.00  0.00    +0.181 A 
ATOM     25  N   UNL     1      18.677  83.327   6.709  0.00  0.00    -0.072 N 
ATOM     26  N   UNL     1      18.848  83.092   5.440  0.00  0.00    -0.101 NA
ENDROOT
BRANCH   7   6
ATOM      3  C   UNL     1      19.032  81.049   0.706  0.00  0.00    +0.096 A 
ATOM      4  C   UNL     1      18.346  80.094   1.526  0.00  0.00    +0.046 A 
ATOM      5  C   UNL     1      18.138  80.348   2.921  0.00  0.00    +0.027 A 
ATOM      6  C   UNL     1      18.611  81.568   3.527  0.00  0.00    +0.022 A 
ATOM     27  C   UNL     1      19.296  82.518   2.689  0.00  0.00    +0.027 A 
ATOM     28  C   UNL     1      19.503  82.260   1.298  0.00  0.00    +0.046 A 
BRANCH   3   2
ATOM      1  N   UNL     1      19.429  80.596  -1.781  0.00  0.00    -0.329 NA
ATOM      2  C   UNL     1      19.243  80.802  -0.655  0.00  0.00    +0.100 C 
ENDBRANCH   3   2
ENDBRANCH   7   6
BRANCH  13  14
ATOM     14  C   UNL     1      19.640  85.718   6.993  0.00  0.00    +0.165 C 
BRANCH  14  15
ATOM     15  C   UNL     1      21.162  85.628   7.051  0.00  0.00    -0.021 A 
ATOM     16  C   UNL     1      22.064  85.398   5.964  0.00  0.00    +0.008 A 
ATOM     17  C   UNL     1      23.359  85.397   6.473  0.00  0.00    +0.132 A 
ATOM     18  N   UNL     1      24.491  85.210   5.733  0.00  0.00    -0.287 NA
ATOM     19  C   UNL     1      24.315  85.005   4.380  0.00  0.00    +0.068 A 
ATOM     20  C   UNL     1      23.026  84.984   3.751  0.00  0.00    +0.008 A 
ATOM     21  N   UNL     1      23.288  85.617   7.823  0.00  0.00    -0.274 N 
ATOM     22  H   UNL     1      24.092  85.669   8.465  0.00  0.00    +0.226 HD
ATOM     23  C   UNL     1      21.856  85.187   4.565  0.00  0.00    +0.012 A 
ATOM     24  C   UNL     1      21.956  85.759   8.185  0.00  0.00    +0.109 A 
ENDBRANCH  14  15
ENDBRANCH  13  14
TORSDOF 4
