REMARK  Name = 4an2_ligand
REMARK  5 active torsions:
REMARK  status: ('A' for Active; 'I' for Inactive)
REMARK    1  A    between atoms: C18_2  and  C15_3
REMARK    2  A    between atoms: C10_10  and  N9_11
REMARK    3  A    between atoms: N9_11  and  C5_12
REMARK    4  A    between atoms: C22_22  and  O24_24
REMARK    5  A    between atoms: C22_22  and  C25_25
REMARK                            x       y       z     vdW  Elec       q    Type
REMARK                         _______ _______ _______ _____ _____    ______ ____
ROOT
ATOM     17  C   UNL     1     -31.196  11.701  -4.224  0.00  0.00    +0.066 A 
ATOM     18  C   UNL     1     -32.558  11.332  -4.263  0.00  0.00    +0.112 A 
ATOM     29  C   UNL     1     -32.978  10.355  -3.391  0.00  0.00    +0.191 A 
ATOM     30  F   UNL     1     -34.242  10.039  -3.339  0.00  0.00    -0.191 F 
ATOM     31  C   UNL     1     -32.119   9.739  -2.513  0.00  0.00    +0.161 A 
ATOM     32  F   UNL     1     -32.778   8.872  -1.790  0.00  0.00    -0.184 F 
ATOM     33  C   UNL     1     -30.747  10.044  -2.452  0.00  0.00    +0.014 A 
ATOM     34  C   UNL     1     -30.289  11.038  -3.331  0.00  0.00    +0.002 A 
ENDROOT
BRANCH  17   2
ATOM      1  O   UNL     1     -31.158  12.871  -6.292  0.00  0.00    -0.393 OA
ATOM      2  C   UNL     1     -30.674  12.729  -5.176  0.00  0.00    +0.197 C 
ATOM      3  N   UNL     1     -29.650  13.537  -4.842  0.00  0.00    -0.269 N 
ATOM      4  C   UNL     1     -29.066  14.539  -5.728  0.00  0.00    +0.179 C 
ATOM      5  C   UNL     1     -28.225  14.824  -4.433  0.00  0.00    +0.148 C 
ATOM     16  C   UNL     1     -28.925  13.676  -3.590  0.00  0.00    +0.179 C 
BRANCH   5   6
ATOM      6  C   UNL     1     -26.713  14.760  -4.630  0.00  0.00    +0.099 C 
ATOM      7  N   UNL     1     -26.247  15.403  -3.392  0.00  0.00    +0.231 N 
ATOM      8  H   UNL     1     -26.392  16.404  -3.526  0.00  0.00    +0.202 HD
ATOM      9  H   UNL     1     -26.765  14.957  -2.635  0.00  0.00    +0.202 HD
ATOM     10  C   UNL     1     -24.817  15.245  -3.051  0.00  0.00    +0.130 C 
ATOM     11  C   UNL     1     -24.286  13.799  -3.203  0.00  0.00    +0.051 C 
ATOM     12  C   UNL     1     -24.657  13.301  -4.625  0.00  0.00    +0.011 C 
ATOM     13  C   UNL     1     -26.189  13.301  -4.785  0.00  0.00    +0.057 C 
ENDBRANCH   5   6
BRANCH   5  14
ATOM     14  O   UNL     1     -28.598  16.142  -4.024  0.00  0.00    -0.379 OA
ATOM     15  H   UNL     1     -28.114  16.378  -3.229  0.00  0.00    +0.211 HD
ENDBRANCH   5  14
ENDBRANCH  17   2
BRANCH  18  19
ATOM     19  N   UNL     1     -33.547  11.897  -5.044  0.00  0.00    -0.270 N 
ATOM     20  H   UNL     1     -33.312  11.927  -6.036  0.00  0.00    +0.209 HD
BRANCH  19  21
ATOM     21  C   UNL     1     -34.810  12.439  -4.753  0.00  0.00    +0.096 A 
ATOM     22  C   UNL     1     -35.570  13.036  -5.755  0.00  0.00    +0.156 A 
ATOM     23  C   UNL     1     -36.832  13.595  -5.459  0.00  0.00    +0.032 A 
ATOM     24  C   UNL     1     -37.347  13.577  -4.178  0.00  0.00    -0.005 A 
ATOM     25  I   UNL     1     -39.331  14.455  -3.889  0.00  0.00    -0.061 I 
ATOM     26  C   UNL     1     -36.609  12.983  -3.152  0.00  0.00    -0.007 A 
ATOM     27  F   UNL     1     -35.106  13.062  -7.010  0.00  0.00    -0.191 F 
ATOM     28  C   UNL     1     -35.332  12.423  -3.435  0.00  0.00    +0.014 A 
ENDBRANCH  19  21
ENDBRANCH  18  19
TORSDOF 5
