REMARK  Name = 3QUD
REMARK  5 active torsions:
REMARK  status: ('A' for Active; 'I' for Inactive)
REMARK    1  A    between atoms: N_1  and  C_18
REMARK    2  A    between atoms: N_16  and  C_19
REMARK    3  A    between atoms: N_16  and  C_22
REMARK    4  A    between atoms: C_17  and  C_20
REMARK    5  A    between atoms: C_17  and  C_21
REMARK                            x       y       z     vdW  Elec       q    Type
REMARK                         _______ _______ _______ _____ _____    ______ ____
ROOT
ATOM      8  C   UNL     1      -2.746  -0.488 -20.754  0.00  0.00    +0.031 A 
ATOM      9  C   UNL     1      -2.516  -0.899 -22.074  0.00  0.00    +0.024 A 
ATOM     10  C   UNL     1      -2.215   0.020 -23.070  0.00  0.00    +0.013 A 
ATOM     11  C   UNL     1      -2.144   1.380 -22.751  0.00  0.00    +0.022 A 
ATOM     20  C   UNL     1      -2.388   1.800 -21.442  0.00  0.00    +0.013 A 
ATOM     21  C   UNL     1      -2.682   0.873 -20.438  0.00  0.00    +0.024 A 
ENDROOT
BRANCH   8   6
ATOM      6  N   UNL     1      -3.049  -1.428 -19.835  0.00  0.00    -0.313 N 
ATOM      7  H   UNL     1      -2.723  -2.427 -20.037  0.00  0.00    +0.152 HD
BRANCH   6   5
ATOM      4  C   UNL     1      -3.285  -1.897 -17.544  0.00  0.00    +0.046 A 
ATOM      5  C   UNL     1      -3.724  -1.225 -18.686  0.00  0.00    +0.052 A 
ATOM     22  C   UNL     1      -4.875  -0.412 -18.612  0.00  0.00    +0.025 A 
ATOM     23  C   UNL     1      -5.561  -0.252 -17.409  0.00  0.00    +0.002 A 
ATOM     24  C   UNL     1      -5.102  -0.909 -16.276  0.00  0.00    +0.002 A 
ATOM     25  C   UNL     1      -3.967  -1.732 -16.350  0.00  0.00    +0.024 A 
BRANCH   4   1
ATOM      1  N   UNL     1      -2.198  -2.694 -17.593  0.00  0.00    -0.356 N 
ATOM      2  H   UNL     1      -1.670  -2.822 -18.515  0.00  0.00    +0.142 HD
ATOM      3  H   UNL     1      -1.864  -3.198 -16.710  0.00  0.00    +0.142 HD
ENDBRANCH   4   1
ENDBRANCH   6   5
ENDBRANCH   8   6
BRANCH  11  12
ATOM     12  C   UNL     1      -1.838   2.425 -23.848  0.00  0.00    +0.193 C 
ATOM     19  O   UNL     1      -2.013   3.616 -23.620  0.00  0.00    -0.287 OA
BRANCH  12  13
ATOM     13  C   UNL     1      -1.442   1.992 -25.250  0.00  0.00    +0.022 A 
ATOM     14  C   UNL     1      -2.277   2.312 -26.320  0.00  0.00    +0.012 A 
ATOM     15  C   UNL     1      -1.927   1.929 -27.618  0.00  0.00    +0.001 A 
ATOM     16  C   UNL     1      -0.739   1.218 -27.829  0.00  0.00    +0.000 A 
ATOM     17  C   UNL     1       0.097   0.902 -26.753  0.00  0.00    +0.001 A 
ATOM     18  C   UNL     1      -0.248   1.290 -25.464  0.00  0.00    +0.012 A 
ENDBRANCH  12  13
ENDBRANCH  11  12
TORSDOF 5
