REMARK  Name = 4LQM
REMARK  4 active torsions:
REMARK  status: ('A' for Active; 'I' for Inactive)
REMARK    1  A    between atoms: C_1  and  C_2
REMARK    2  A    between atoms: C_2  and  C_3
REMARK    3  A    between atoms: N_5  and  C_6
REMARK    4  A    between atoms: N_16  and  C_17
REMARK                            x       y       z     vdW  Elec       q    Type
REMARK                         _______ _______ _______ _____ _____    ______ ____
ROOT
ATOM      6  C   UNL     1     -51.986  -1.843 -20.200  0.00  0.00    +0.034 A 
ATOM      7  C   UNL     1     -52.617  -0.927 -19.303  0.00  0.00    +0.025 A 
ATOM      8  C   UNL     1     -53.474   0.077 -19.757  0.00  0.00    +0.030 A 
ATOM      9  C   UNL     1     -53.766   0.207 -21.174  0.00  0.00    +0.076 A 
ATOM     10  N   UNL     1     -54.620   1.208 -21.643  0.00  0.00    -0.235 NA
ATOM     11  C   UNL     1     -54.901   1.301 -22.952  0.00  0.00    +0.224 A 
ATOM     12  N   UNL     1     -54.330   0.430 -23.865  0.00  0.00    -0.220 NA
ATOM     13  C   UNL     1     -53.476  -0.563 -23.488  0.00  0.00    +0.134 A 
ATOM     14  N   UNL     1     -52.859  -1.509 -24.443  0.00  0.00    -0.299 N 
ATOM     15  H   UNL     1     -53.313  -2.459 -24.250  0.00  0.00    +0.154 HD
ATOM     23  C   UNL     1     -53.174  -0.701 -22.074  0.00  0.00    +0.042 A 
ATOM     24  C   UNL     1     -52.296  -1.735 -21.589  0.00  0.00    +0.036 A 
ENDROOT
BRANCH  14  16
ATOM     16  C   UNL     1     -52.906  -1.329 -25.891  0.00  0.00    +0.033 A 
ATOM     17  C   UNL     1     -53.012  -2.447 -26.718  0.00  0.00    +0.023 A 
ATOM     18  C   UNL     1     -53.079  -2.251 -28.104  0.00  0.00    +0.003 A 
ATOM     19  C   UNL     1     -53.035  -0.948 -28.648  0.00  0.00    +0.015 A 
ATOM     20  C   UNL     1     -52.924   0.179 -27.829  0.00  0.00    +0.020 A 
ATOM     21 BR   UNL     1     -52.855   2.000 -28.563  0.00  0.00    -0.050 Br
ATOM     22  C   UNL     1     -52.859  -0.031 -26.436  0.00  0.00    +0.038 A 
ENDBRANCH  14  16
BRANCH   6   4
ATOM      3  C   UNL     1     -51.183  -4.323 -20.137  0.00  0.00    +0.217 C 
ATOM      4  N   UNL     1     -51.155  -2.929 -19.606  0.00  0.00    -0.285 N 
ATOM      5  H   UNL     1     -50.139  -2.602 -19.676  0.00  0.00    +0.155 HD
ATOM     25  O   UNL     1     -51.798  -4.587 -21.138  0.00  0.00    -0.276 OA
BRANCH   3   2
ATOM      1  C   UNL     1     -51.208  -6.859 -19.286  0.00  0.00    +0.013 C 
ATOM      2  C   UNL     1     -50.441  -5.490 -19.477  0.00  0.00    +0.093 C 
ENDBRANCH   3   2
ENDBRANCH   6   4
TORSDOF 3
