REMARK  Name = 5K00
REMARK  11 active torsions:
REMARK  status: ('A' for Active; 'I' for Inactive)
REMARK    1  A    between atoms: C_2  and  O_6
REMARK    2  A    between atoms: C_3  and  C_29
REMARK    3  A    between atoms: O_6  and  C_16
REMARK    4  A    between atoms: C_7  and  C_8
REMARK    5  A    between atoms: C_7  and  N_36
REMARK    6  A    between atoms: C_9  and  N_37
REMARK    7  A    between atoms: C_16  and  C_17
REMARK    8  A    between atoms: C_22  and  N_39
REMARK    9  A    between atoms: C_26  and  O_40
REMARK   10  A    between atoms: C_32  and  C_35
REMARK   11  A    between atoms: O_40  and  C_41
REMARK                            x       y       z     vdW  Elec       q    Type
REMARK                         _______ _______ _______ _____ _____    ______ ____
ROOT
ATOM      1  C   UNL     1      -3.288  -8.980   1.276  0.00  0.00    +0.223 A 
ATOM      2  N   UNL     1      -2.172  -9.201   0.529  0.00  0.00    -0.283 N 
ATOM      3  H   UNL     1      -1.985  -8.481  -0.240  0.00  0.00    +0.155 HD
ATOM     12  N   UNL     1      -3.677 -10.044   1.969  0.00  0.00    -0.179 NA
ATOM     13  C   UNL     1      -4.721  -9.912   2.789  0.00  0.00    +0.227 A 
ATOM     23  C   UNL     1      -5.405  -8.673   2.917  0.00  0.00    +0.062 A 
ATOM     45  C   UNL     1      -4.868  -7.629   2.126  0.00  0.00    +0.128 A 
ATOM     46  N   UNL     1      -3.814  -7.780   1.309  0.00  0.00    -0.222 NA
ENDROOT
BRANCH   2   4
ATOM      4  C   UNL     1      -1.231 -10.238   0.623  0.00  0.00    +0.037 A 
ATOM      5  C   UNL     1      -0.515 -10.560  -0.551  0.00  0.00    +0.069 A 
ATOM      6  C   UNL     1       0.426 -11.628  -0.527  0.00  0.00    +0.122 A 
ATOM      9  C   UNL     1       0.639 -12.342   0.688  0.00  0.00    +0.046 A 
ATOM     10  C   UNL     1      -0.073 -12.032   1.871  0.00  0.00    +0.005 A 
ATOM     11  C   UNL     1      -1.015 -10.981   1.835  0.00  0.00    +0.023 A 
BRANCH   6   7
ATOM      7  O   UNL     1       1.119 -11.905  -1.683  0.00  0.00    -0.495 OA
ATOM      8  C   UNL     1       1.156 -11.014  -2.794  0.00  0.00    +0.277 C 
ENDBRANCH   6   7
ENDBRANCH   2   4
BRANCH  23  24
ATOM     24  C   UNL     1      -6.392  -8.417   3.978  0.00  0.00    -0.011 A 
ATOM     25  C   UNL     1      -6.361  -7.167   4.656  0.00  0.00    +0.009 A 
ATOM     26  C   UNL     1      -7.199  -6.942   5.769  0.00  0.00    +0.013 A 
ATOM     27  C   UNL     1      -7.999  -7.975   6.300  0.00  0.00    +0.037 A 
ATOM     43  C   UNL     1      -8.009  -9.232   5.656  0.00  0.00    +0.013 A 
ATOM     44  C   UNL     1      -7.192  -9.444   4.537  0.00  0.00    +0.009 A 
BRANCH  27  28
ATOM     28  C   UNL     1      -8.841  -7.794   7.519  0.00  0.00    +0.245 C 
ATOM     29  N   UNL     1      -8.999  -6.567   8.019  0.00  0.00    -0.303 N 
ATOM     30  H   UNL     1      -8.545  -5.760   7.482  0.00  0.00    +0.149 HD
ATOM     42  O   UNL     1      -9.336  -8.782   8.047  0.00  0.00    -0.270 OA
BRANCH  29  31
ATOM     31  C   UNL     1      -9.733  -6.228   9.229  0.00  0.00    +0.200 C 
BRANCH  31  32
ATOM     32  C   UNL     1      -8.864  -5.253  10.036  0.00  0.00    +0.234 C 
ATOM     33  N   UNL     1      -9.268  -4.780  11.215  0.00  0.00    -0.284 N 
ATOM     34  H   UNL     1     -10.222  -5.110  11.571  0.00  0.00    +0.155 HD
ATOM     41  O   UNL     1      -7.818  -4.898   9.528  0.00  0.00    -0.274 OA
BRANCH  33  35
ATOM     35  C   UNL     1      -8.538  -3.865  12.053  0.00  0.00    +0.033 A 
ATOM     36  C   UNL     1      -9.064  -3.649  13.341  0.00  0.00    +0.023 A 
ATOM     37  C   UNL     1      -8.380  -2.789  14.244  0.00  0.00    +0.002 A 
ATOM     38  C   UNL     1      -7.178  -2.138  13.868  0.00  0.00    +0.000 A 
ATOM     39  C   UNL     1      -6.632  -2.332  12.579  0.00  0.00    +0.002 A 
ATOM     40  C   UNL     1      -7.320  -3.199  11.686  0.00  0.00    +0.023 A 
ENDBRANCH  33  35
ENDBRANCH  31  32
ENDBRANCH  29  31
ENDBRANCH  27  28
ENDBRANCH  23  24
BRANCH  13  14
ATOM     14  O   UNL     1      -5.106 -10.992   3.551  0.00  0.00    -0.476 OA
BRANCH  14  15
ATOM     15  C   UNL     1      -4.407 -12.241   3.486  0.00  0.00    +0.234 C 
BRANCH  15  16
ATOM     16  C   UNL     1      -4.200 -12.702   4.932  0.00  0.00    +0.029 C 
ATOM     17  C   UNL     1      -3.189 -11.802   5.692  0.00  0.00    +0.022 C 
ATOM     18  C   UNL     1      -2.963 -12.310   7.132  0.00  0.00    +0.081 C 
ATOM     19  N   UNL     1      -2.576 -13.723   7.111  0.00  0.00    -0.316 NA
ATOM     20  H   UNL     1      -1.643 -13.809   6.595  0.00  0.00    +0.122 HD
ATOM     21  C   UNL     1      -3.556 -14.598   6.447  0.00  0.00    +0.081 C 
ATOM     22  C   UNL     1      -3.723 -14.171   4.975  0.00  0.00    +0.022 C 
ENDBRANCH  15  16
ENDBRANCH  14  15
ENDBRANCH  13  14
TORSDOF 10
