REMARK  Name = 3qtr_ligand
REMARK  5 active torsions:
REMARK  status: ('A' for Active; 'I' for Inactive)
REMARK    1  A    between atoms: C2_2  and  N3_3
REMARK    2  A    between atoms: C4_4  and  C5_5
REMARK    3  A    between atoms: C5_5  and  C6_6
REMARK    4  A    between atoms: C5_5  and  O12_12
REMARK    5  A    between atoms: N15_15  and  C16_16
REMARK                            x       y       z     vdW  Elec       q    Type
REMARK                         _______ _______ _______ _____ _____    ______ ____
ROOT
ATOM      1  N   UNL     1      91.738  81.875 -51.002  0.00  0.00    -0.302 NA
ATOM      2  C   UNL     1      91.362  81.722 -49.737  0.00  0.00    +0.188 A 
ATOM      3  N   UNL     1      90.265  82.410 -49.273  0.00  0.00    -0.242 N 
ATOM      4  H   UNL     1      89.834  83.039 -49.966  0.00  0.00    +0.219 HD
ATOM     11  S   UNL     1      92.340  80.644 -48.852  0.00  0.00    +0.002 S 
ATOM     12  C   UNL     1      93.310  80.355 -50.231  0.00  0.00    +0.059 A 
ATOM     22  C   UNL     1      92.821  81.121 -51.300  0.00  0.00    +0.054 A 
ENDROOT
BRANCH   3   5
ATOM      5  C   UNL     1      89.640  82.406 -48.043  0.00  0.00    +0.066 A 
ATOM      6  C   UNL     1      90.032  81.546 -46.865  0.00  0.00    +0.015 A 
ATOM      7  C   UNL     1      89.306  81.614 -45.616  0.00  0.00    -0.013 A 
ATOM      8  C   UNL     1      88.179  82.531 -45.501  0.00  0.00    -0.022 A 
ATOM      9  C   UNL     1      87.779  83.371 -46.624  0.00  0.00    -0.013 A 
ATOM     10  C   UNL     1      88.492  83.312 -47.878  0.00  0.00    +0.015 A 
ENDBRANCH   3   5
BRANCH  22  23
ATOM     23  N   UNL     1      93.329  81.137 -52.537  0.00  0.00    -0.352 N 
ATOM     24  H   UNL     1      92.896  81.724 -53.264  0.00  0.00    +0.162 HD
ATOM     25  H   UNL     1      94.154  80.563 -52.763  0.00  0.00    +0.162 HD
ENDBRANCH  22  23
BRANCH  12  13
ATOM     13  C   UNL     1      94.416  79.466 -50.244  0.00  0.00    +0.201 C 
BRANCH  13  16
ATOM     16  C   UNL     1      94.876  78.639 -49.058  0.00  0.00    -0.009 A 
ATOM     17  C   UNL     1      96.304  78.569 -48.694  0.00  0.00    -0.001 A 
ATOM     18  C   UNL     1      96.744  77.780 -47.556  0.00  0.00    -0.009 A 
ATOM     19  C   UNL     1      95.765  77.049 -46.769  0.00  0.00    -0.013 A 
ATOM     20  C   UNL     1      94.393  77.108 -47.118  0.00  0.00    -0.009 A 
ATOM     21  C   UNL     1      93.921  77.867 -48.220  0.00  0.00    -0.001 A 
ENDBRANCH  13  16
BRANCH  13  14
ATOM     14  O   UNL     1      95.130  79.306 -51.382  0.00  0.00    -0.373 OA
ATOM     15  H   UNL     1      94.768  79.861 -52.062  0.00  0.00    +0.215 HD
ENDBRANCH  13  14
ENDBRANCH  12  13
TORSDOF 5
