REMARK  Name = 4FV5
REMARK  8 active torsions:
REMARK  status: ('A' for Active; 'I' for Inactive)
REMARK    1  A    between atoms: C_2  and  CA_13
REMARK    2  A    between atoms: N_3  and  CA_4
REMARK    3  A    between atoms: CA_4  and  C_5
REMARK    4  A    between atoms: CA_4  and  C_11
REMARK    5  A    between atoms: C_11  and  O_12
REMARK    6  A    between atoms: C_15  and  C_18
REMARK    7  A    between atoms: C_19  and  C_20
REMARK    8  A    between atoms: C_23  and  C_25
REMARK                            x       y       z     vdW  Elec       q    Type
REMARK                         _______ _______ _______ _____ _____    ______ ____
ROOT
ATOM      3  CA  UNL     1     -11.751   2.770  13.946  0.00  0.00    +0.102 A 
ATOM      4  N   UNL     1     -12.409   3.142  15.125  0.00  0.00    -0.356 N 
ATOM      5  H   UNL     1     -11.968   3.580  15.926  0.00  0.00    +0.166 HD
ATOM      6  C   UNL     1     -13.709   2.774  15.037  0.00  0.00    +0.093 A 
ATOM      7  C   UNL     1     -13.939   2.132  13.797  0.00  0.00    +0.019 A 
ATOM     21  C   UNL     1     -12.691   2.125  13.132  0.00  0.00    +0.042 A 
ENDROOT
BRANCH   7   8
ATOM      8  C   UNL     1     -15.285   1.690  13.378  0.00  0.00    +0.079 A 
ATOM      9  N   UNL     1     -16.196   2.084  14.272  0.00  0.00    -0.227 NA
ATOM     10  C   UNL     1     -17.575   1.896  14.041  0.00  0.00    +0.160 A 
ATOM     17  N   UNL     1     -18.011   1.220  12.846  0.00  0.00    -0.235 NA
ATOM     18  C   UNL     1     -17.051   0.828  12.022  0.00  0.00    +0.118 A 
ATOM     19  C   UNL     1     -15.633   1.010  12.157  0.00  0.00    -0.006 A 
ATOM     20  C   UNL     1     -14.745   0.504  11.113  0.00  0.00    +0.048 C 
BRANCH  10  11
ATOM     11  C   UNL     1     -18.475   2.348  15.019  0.00  0.00    +0.019 A 
ATOM     12  C   UNL     1     -19.908   2.289  14.843  0.00  0.00    +0.012 A 
ATOM     13  C   UNL     1     -20.785   2.691  15.829  0.00  0.00    +0.001 A 
ATOM     14  C   UNL     1     -20.338   3.170  17.073  0.00  0.00    +0.000 A 
ATOM     15  C   UNL     1     -18.945   3.224  17.290  0.00  0.00    +0.001 A 
ATOM     16  C   UNL     1     -18.041   2.842  16.326  0.00  0.00    +0.012 A 
ENDBRANCH  10  11
ENDBRANCH   7   8
BRANCH   3   2
ATOM      1  O   UNL     1      -9.750   2.752  12.686  0.00  0.00    -0.269 OA
ATOM      2  C   UNL     1     -10.394   3.185  13.656  0.00  0.00    +0.261 C 
ATOM     22  N   UNL     1      -9.825   4.107  14.572  0.00  0.00    -0.301 N 
ATOM     23  H   UNL     1     -10.442   4.804  14.977  0.00  0.00    +0.150 HD
BRANCH  22  24
ATOM     24  CA  UNL     1      -8.419   4.471  14.544  0.00  0.00    +0.129 C 
BRANCH  24  28
ATOM     28  C   UNL     1      -8.106   5.617  13.609  0.00  0.00    -0.025 A 
ATOM     29  C   UNL     1      -9.091   6.501  13.098  0.00  0.00    +0.005 A 
ATOM     30  C   UNL     1      -8.719   7.564  12.269  0.00  0.00    +0.000 A 
ATOM     31  C   UNL     1      -7.368   7.763  11.953  0.00  0.00    +0.000 A 
ATOM     32  C   UNL     1      -6.393   6.891  12.452  0.00  0.00    +0.000 A 
ATOM     33  C   UNL     1      -6.755   5.821  13.267  0.00  0.00    +0.005 A 
ENDBRANCH  24  28
BRANCH  24  25
ATOM     25  C   UNL     1      -8.026   4.953  15.970  0.00  0.00    +0.183 C 
BRANCH  25  26
ATOM     26  O   UNL     1      -8.340   3.996  16.934  0.00  0.00    -0.393 OA
ATOM     27  H   UNL     1      -7.614   3.979  17.611  0.00  0.00    +0.209 HD
ENDBRANCH  25  26
ENDBRANCH  24  25
ENDBRANCH  22  24
ENDBRANCH   3   2
TORSDOF 7
