REMARK  Name = 5DIA
REMARK  5 active torsions:
REMARK  status: ('A' for Active; 'I' for Inactive)
REMARK    1  A    between atoms: C_6  and  C_15
REMARK    2  A    between atoms: C_8  and  N_9
REMARK    3  A    between atoms: N_9  and  C_10
REMARK    4  A    between atoms: C_12  and  N_14
REMARK    5  A    between atoms: C_18  and  C_24
REMARK                            x       y       z     vdW  Elec       q    Type
REMARK                         _______ _______ _______ _____ _____    ______ ____
ROOT
ATOM     11  C   UNL     1      23.388 -36.991   3.736  0.00  0.00    +0.120 A 
ATOM     12  N   UNL     1      23.321 -36.716   2.482  0.00  0.00    -0.231 NA
ATOM     13  C   UNL     1      23.451 -37.601   1.547  0.00  0.00    +0.094 A 
ATOM     30  C   UNL     1      23.692 -38.893   1.892  0.00  0.00    +0.030 A 
ATOM     31  C   UNL     1      23.751 -39.242   3.211  0.00  0.00    +0.005 A 
ATOM     32  C   UNL     1      23.595 -38.278   4.155  0.00  0.00    +0.043 A 
ENDROOT
BRANCH  13  14
ATOM     14  C   UNL     1      23.392 -37.207   0.125  0.00  0.00    +0.118 A 
ATOM     15  N   UNL     1      23.677 -37.940  -0.882  0.00  0.00    -0.171 NA
ATOM     16  N   UNL     1      23.516 -37.243  -2.028  0.00  0.00    -0.275 N 
ATOM     17  H   UNL     1      23.674 -37.592  -2.912  0.00  0.00    +0.189 HD
ATOM     18  C   UNL     1      23.117 -36.000  -1.755  0.00  0.00    +0.085 A 
ATOM     19  C   UNL     1      22.812 -34.894  -2.499  0.00  0.00    +0.139 A 
ATOM     20  N   UNL     1      22.454 -33.785  -1.955  0.00  0.00    -0.253 NA
ATOM     21  C   UNL     1      22.323 -33.654  -0.665  0.00  0.00    +0.073 A 
ATOM     28  C   UNL     1      22.605 -34.711   0.160  0.00  0.00    +0.040 A 
ATOM     29  C   UNL     1      23.008 -35.912  -0.389  0.00  0.00    +0.032 A 
BRANCH  21  22
ATOM     22  C   UNL     1      21.889 -32.351  -0.136  0.00  0.00    +0.018 A 
ATOM     23  C   UNL     1      21.359 -31.418  -0.997  0.00  0.00    +0.120 A 
ATOM     24  N   UNL     1      20.973 -30.268  -0.567  0.00  0.00    -0.263 NA
ATOM     25  C   UNL     1      21.076 -29.927   0.681  0.00  0.00    +0.111 A 
ATOM     26  C   UNL     1      21.590 -30.786   1.609  0.00  0.00    +0.020 A 
ATOM     27  C   UNL     1      22.011 -32.016   1.201  0.00  0.00    +0.013 A 
ENDBRANCH  21  22
ENDBRANCH  13  14
BRANCH  11   9
ATOM      9  N   UNL     1      23.263 -35.977   4.652  0.00  0.00    -0.326 N 
ATOM     10  H   UNL     1      23.340 -36.183   5.699  0.00  0.00    +0.148 HD
BRANCH   9   2
ATOM      1  C   UNL     1      21.569 -34.256   4.281  0.00  0.00    +0.022 C 
ATOM      2  C   UNL     1      23.027 -34.629   4.190  0.00  0.00    +0.073 C 
ATOM      3  C   UNL     1      23.926 -33.576   4.828  0.00  0.00    +0.040 C 
ATOM      4  C   UNL     1      23.504 -33.165   6.220  0.00  0.00    +0.052 C 
ATOM      8  C   UNL     1      22.003 -32.901   6.252  0.00  0.00    +0.018 C 
ATOM     33  C   UNL     1      21.196 -34.068   5.729  0.00  0.00    +0.003 C 
BRANCH   4   5
ATOM      5  N   UNL     1      24.263 -31.992   6.645  0.00  0.00    -0.327 NA
ATOM      6  H   UNL     1      24.050 -31.172   5.991  0.00  0.00    +0.118 HD
ATOM      7  H   UNL     1      23.987 -31.731   7.645  0.00  0.00    +0.118 HD
ENDBRANCH   4   5
ENDBRANCH   9   2
ENDBRANCH  11   9
TORSDOF 5
