REMARK  Name = 5N63
REMARK  4 active torsions:
REMARK  status: ('A' for Active; 'I' for Inactive)
REMARK    1  A    between atoms: C_1  and  N_14
REMARK    2  A    between atoms: C_12  and  C_13
REMARK    3  A    between atoms: C_13  and  N_14
REMARK    4  A    between atoms: C_17  and  N_18
REMARK                            x       y       z     vdW  Elec       q    Type
REMARK                         _______ _______ _______ _____ _____    ______ ____
ROOT
ATOM      1  C   UNL     1     -23.846 -15.352  10.606  0.00  0.00    +0.131 A 
ATOM     12  N   UNL     1     -23.308 -16.571  10.648  0.00  0.00    -0.214 NA
ATOM     13  C   UNL     1     -23.139 -17.288   9.537  0.00  0.00    +0.141 A 
ATOM     14  C   UNL     1     -22.547 -18.548   9.656  0.00  0.00    +0.017 C 
ATOM     15  C   UNL     1     -22.303 -19.352   8.544  0.00  0.00    +0.007 C 
ATOM     16  C   UNL     1     -21.692 -20.596   8.706  0.00  0.00    -0.022 C 
ATOM     17  C   UNL     1     -21.324 -21.050   9.972  0.00  0.00    +0.054 C 
ATOM     18  C   UNL     1     -21.572 -20.247  11.077  0.00  0.00    -0.022 C 
ATOM     19  C   UNL     1     -22.174 -19.008  10.916  0.00  0.00    +0.007 C 
ATOM     20  N   UNL     1     -23.511 -16.780   8.350  0.00  0.00    -0.339 N 
ATOM     21  H   UNL     1     -23.362 -17.355   7.460  0.00  0.00    +0.167 HD
ATOM     22  C   UNL     1     -24.069 -15.556   8.264  0.00  0.00    +0.053 A 
ATOM     23  C   UNL     1     -24.462 -15.049   7.031  0.00  0.00    +0.049 A 
ATOM     24  C   UNL     1     -25.020 -13.771   6.978  0.00  0.00    +0.026 A 
ATOM     28  C   UNL     1     -25.198 -13.011   8.137  0.00  0.00    +0.023 A 
ATOM     29  C   UNL     1     -24.810 -13.522   9.370  0.00  0.00    +0.015 A 
ATOM     30  C   UNL     1     -24.248 -14.793   9.413  0.00  0.00    +0.038 A 
ENDROOT
BRANCH  24  25
ATOM     25  N   UNL     1     -25.391 -13.273   5.808  0.00  0.00    -0.358 N 
ATOM     26  H   UNL     1     -25.258 -13.848   4.915  0.00  0.00    +0.142 HD
ATOM     27  H   UNL     1     -25.823 -12.296   5.755  0.00  0.00    +0.142 HD
ENDBRANCH  24  25
BRANCH   1   2
ATOM      2  N   UNL     1     -24.002 -14.657  11.719  0.00  0.00    -0.324 N 
ATOM      3  H   UNL     1     -24.523 -13.722  11.721  0.00  0.00    +0.148 HD
BRANCH   2   4
ATOM      4  C   UNL     1     -23.434 -15.215  12.954  0.00  0.00    +0.138 C 
BRANCH   4   5
ATOM      5  C   UNL     1     -24.425 -15.711  13.775  0.00  0.00    -0.030 A 
ATOM      6  C   UNL     1     -25.734 -15.866  13.333  0.00  0.00    +0.008 A 
ATOM      7  C   UNL     1     -26.695 -16.365  14.213  0.00  0.00    +0.039 A 
ATOM      8  C   UNL     1     -26.356 -16.703  15.519  0.00  0.00    +0.123 A 
ATOM      9  F   UNL     1     -27.249 -17.153  16.333  0.00  0.00    -0.205 F 
ATOM     10  C   UNL     1     -25.056 -16.556  15.968  0.00  0.00    +0.039 A 
ATOM     11  C   UNL     1     -24.103 -16.055  15.084  0.00  0.00    +0.008 A 
ENDBRANCH   4   5
ENDBRANCH   2   4
ENDBRANCH   1   2
TORSDOF 4
