REMARK  Name = 4jaj_ligand
REMARK  0 active torsions:
REMARK  status: ('A' for Active; 'I' for Inactive)
REMARK                            x       y       z     vdW  Elec       q    Type
REMARK                         _______ _______ _______ _____ _____    ______ ____
ROOT
ATOM      1  C   UNL     1      -5.712 -30.124   3.473  0.00  0.00    +0.006 A 
ATOM      2  C   UNL     1      -5.124 -31.193   2.748  0.00  0.00    +0.004 A 
ATOM      3  C   UNL     1      -4.430 -32.210   3.407  0.00  0.00    +0.024 A 
ATOM      4  C   UNL     1      -4.353 -32.103   4.767  0.00  0.00    +0.061 A 
ATOM      5  C   UNL     1      -3.648 -33.094   5.619  0.00  0.00    +0.232 A 
ATOM      6  N   UNL     1      -3.626 -32.977   6.932  0.00  0.00    -0.214 N 
ATOM      7  H   UNL     1      -3.148 -33.679   7.460  0.00  0.00    +0.237 HD
ATOM      8  C   UNL     1      -4.197 -31.990   7.585  0.00  0.00    +0.154 A 
ATOM      9  N   UNL     1      -4.092 -31.949   8.917  0.00  0.00    -0.281 NA
ATOM     10  C   UNL     1      -4.673 -30.945   9.572  0.00  0.00    +0.073 A 
ATOM     11  C   UNL     1      -5.349 -29.952   8.878  0.00  0.00    +0.011 A 
ATOM     12  C   UNL     1      -5.444 -29.972   7.529  0.00  0.00    +0.025 A 
ATOM     13  C   UNL     1      -4.858 -31.016   6.883  0.00  0.00    +0.037 A 
ATOM     14  O   UNL     1      -3.029 -34.086   5.204  0.00  0.00    -0.382 OA
ATOM     15  C   UNL     1      -4.941 -31.061   5.439  0.00  0.00    +0.003 A 
ATOM     16  C   UNL     1      -5.620 -30.033   4.869  0.00  0.00    +0.011 A 
ENDROOT
TORSDOF 0
