REMARK  Name = 2yis_ligand
REMARK  16 active torsions:
REMARK  status: ('A' for Active; 'I' for Inactive)
REMARK    1  A    between atoms: C1_1  and  C2_2
REMARK    2  A    between atoms: C2_2  and  C3_3
REMARK    3  A    between atoms: C2_2  and  C4_4
REMARK    4  A    between atoms: C2_2  and  C5_5
REMARK    5  A    between atoms: C7_7  and  N8_8
REMARK    6  A    between atoms: N11_11  and  C12_12
REMARK    7  A    between atoms: C12_12  and  C13_13
REMARK    8  A    between atoms: C18_18  and  S19_19
REMARK    9  A    between atoms: S19_19  and  C20_20
REMARK   10  A    between atoms: C26_26  and  C27_27
REMARK   11  A    between atoms: C32_32  and  S33_33
REMARK   12  A    between atoms: S33_33  and  C34_34
REMARK   13  A    between atoms: C34_34  and  C35_35
REMARK   14  A    between atoms: C35_35  and  O36_36
REMARK   15  A    between atoms: N39_39  and  C41_41
REMARK   16  A    between atoms: C44_44  and  O45_45
REMARK                            x       y       z     vdW  Elec       q    Type
REMARK                         _______ _______ _______ _____ _____    ______ ____
ROOT
ATOM     22  C   UNL     1      -3.787   1.626  17.314  0.00  0.00    -0.007 A 
ATOM     23  C   UNL     1      -4.076   0.995  18.542  0.00  0.00    +0.031 A 
ATOM     45  C   UNL     1      -5.240   0.161  18.624  0.00  0.00    +0.000 A 
ATOM     46  C   UNL     1      -6.055  -0.026  17.521  0.00  0.00    -0.020 A 
ATOM     47  C   UNL     1      -5.719   0.592  16.296  0.00  0.00    -0.021 A 
ATOM     48  C   UNL     1      -4.591   1.422  16.206  0.00  0.00    -0.010 A 
ENDROOT
BRANCH  22  21
ATOM     21  C   UNL     1      -2.553   2.496  17.314  0.00  0.00    +0.198 C 
BRANCH  21  19
ATOM     16  N   UNL     1      -0.711   3.798  14.469  0.00  0.00    -0.185 N 
ATOM     17  H   UNL     1      -1.330   4.597  14.331  0.00  0.00    +0.234 HD
ATOM     18  C   UNL     1      -1.066   2.990  15.464  0.00  0.00    +0.295 C 
ATOM     19  N   UNL     1      -2.199   3.295  16.156  0.00  0.00    -0.257 N 
ATOM     20  H   UNL     1      -2.790   4.074  15.864  0.00  0.00    +0.188 HD
ATOM     49  O   UNL     1      -0.283   2.066  15.819  0.00  0.00    -0.389 OA
BRANCH  16  15
ATOM      3  C   UNL     1       2.206   3.168  12.375  0.00  0.00    -0.005 A 
ATOM      4  N   UNL     1       1.864   4.399  12.104  0.00  0.00    -0.169 NA
ATOM      5  N   UNL     1       0.706   4.775  12.787  0.00  0.00    -0.109 N 
ATOM     15  C   UNL     1       0.364   3.738  13.583  0.00  0.00    +0.218 A 
ATOM     50  C   UNL     1       1.260   2.707  13.331  0.00  0.00    +0.002 A 
BRANCH   5   6
ATOM      6  C   UNL     1       0.196   6.119  12.740  0.00  0.00    +0.120 A 
ATOM      7  C   UNL     1      -0.262   6.678  13.949  0.00  0.00    +0.045 A 
ATOM      8  C   UNL     1      -0.739   7.974  13.989  0.00  0.00    +0.068 A 
ATOM      9 CL   UNL     1      -1.321   8.562  15.494  0.00  0.00    -0.079 Cl
ATOM     10  C   UNL     1      -0.734   8.763  12.828  0.00  0.00    +0.099 A 
ATOM     13  C   UNL     1      -0.254   8.253  11.591  0.00  0.00    +0.022 A 
ATOM     14  C   UNL     1       0.230   6.936  11.567  0.00  0.00    +0.031 A 
BRANCH  10  11
ATOM     11  O   UNL     1      -1.202  10.024  12.922  0.00  0.00    -0.334 OA
ATOM     12  H   UNL     1      -1.481  10.194  13.825  0.00  0.00    +0.248 HD
ENDBRANCH  10  11
ENDBRANCH   5   6
BRANCH   3   2
ATOM      1  C   UNL     1       2.897   1.492  10.640  0.00  0.00    -0.048 C 
ATOM      2  C   UNL     1       3.405   2.462  11.726  0.00  0.00    -0.047 C 
ATOM     51  C   UNL     1       4.361   3.468  11.019  0.00  0.00    -0.048 C 
ATOM     52  C   UNL     1       4.184   1.675  12.764  0.00  0.00    -0.048 C 
ENDBRANCH   3   2
ENDBRANCH  16  15
ENDBRANCH  21  19
ENDBRANCH  22  21
BRANCH  23  24
ATOM     24  S   UNL     1      -2.968   1.278  19.946  0.00  0.00    -0.052 S 
BRANCH  24  25
ATOM     25  C   UNL     1      -2.668  -0.390  20.502  0.00  0.00    +0.069 A 
ATOM     26  C   UNL     1      -2.460  -0.716  21.829  0.00  0.00    +0.217 A 
ATOM     27  N   UNL     1      -2.190  -2.065  22.204  0.00  0.00    -0.176 N 
ATOM     28  C   UNL     1      -1.904  -2.713  23.370  0.00  0.00    +0.171 A 
ATOM     40  N   UNL     1      -1.711  -3.989  23.108  0.00  0.00    -0.266 NA
ATOM     41  N   UNL     1      -1.904  -4.208  21.879  0.00  0.00    -0.280 NA
ATOM     42  C   UNL     1      -2.178  -3.074  21.261  0.00  0.00    +0.151 A 
ATOM     43  C   UNL     1      -2.430  -2.753  19.898  0.00  0.00    +0.049 A 
ATOM     44  C   UNL     1      -2.644  -1.441  19.547  0.00  0.00    +0.030 A 
BRANCH  28  29
ATOM     29  C   UNL     1      -1.729  -2.072  24.699  0.00  0.00    +0.041 A 
ATOM     30  C   UNL     1      -0.535  -1.276  24.883  0.00  0.00    +0.029 A 
ATOM     36  C   UNL     1      -0.321  -0.646  26.140  0.00  0.00    +0.007 A 
ATOM     37  C   UNL     1      -1.248  -0.806  27.164  0.00  0.00    -0.008 A 
ATOM     38  C   UNL     1      -2.400  -1.581  26.989  0.00  0.00    -0.012 A 
ATOM     39  C   UNL     1      -2.658  -2.224  25.771  0.00  0.00    +0.004 A 
BRANCH  30  31
ATOM     31  S   UNL     1       0.640  -1.084  23.538  0.00  0.00    -0.097 S 
BRANCH  31  32
ATOM     32  C   UNL     1       1.368   0.557  23.656  0.00  0.00    +0.116 C 
BRANCH  32  33
ATOM     33  C   UNL     1       0.402   1.586  23.050  0.00  0.00    +0.169 C 
BRANCH  33  34
ATOM     34  O   UNL     1      -0.929   1.529  23.636  0.00  0.00    -0.394 OA
ATOM     35  H   UNL     1      -1.488   2.190  23.222  0.00  0.00    +0.209 HD
ENDBRANCH  33  34
ENDBRANCH  32  33
ENDBRANCH  31  32
ENDBRANCH  30  31
ENDBRANCH  28  29
ENDBRANCH  24  25
ENDBRANCH  23  24
TORSDOF 13
