REMARK  Name = 2x6d_ligand
REMARK  6 active torsions:
REMARK  status: ('A' for Active; 'I' for Inactive)
REMARK    1  A    between atoms: NBI_6  and  CAT_7
REMARK    2  A    between atoms: CAT_7  and  CBB_8
REMARK    3  A    between atoms: CBD_13  and  CBE_14
REMARK    4  A    between atoms: CBF_23  and  NBK_24
REMARK    5  A    between atoms: NBJ_29  and  CAU_30
REMARK    6  A    between atoms: CAU_30  and  CBA_31
REMARK                            x       y       z     vdW  Elec       q    Type
REMARK                         _______ _______ _______ _____ _____    ______ ____
ROOT
ATOM      8  C   UNL     1      -1.488  32.515  80.321  0.00  0.00    +0.137 A 
ATOM      9  N   UNL     1      -2.195  31.421  80.581  0.00  0.00    -0.302 NA
ATOM     10  C   UNL     1      -2.560  30.825  79.465  0.00  0.00    +0.082 A 
ATOM     11  C   UNL     1      -3.324  29.682  79.168  0.00  0.00    +0.075 A 
ATOM     26  C   UNL     1      -3.539  29.399  77.814  0.00  0.00    +0.042 A 
ATOM     27 BR   UNL     1      -4.455  27.896  77.120  0.00  0.00    -0.063 Br
ATOM     28  C   UNL     1      -2.977  30.245  76.841  0.00  0.00    +0.063 A 
ATOM     29  N   UNL     1      -2.281  31.331  77.149  0.00  0.00    -0.300 NA
ATOM     30  C   UNL     1      -2.068  31.628  78.439  0.00  0.00    +0.142 A 
ATOM     31  N   UNL     1      -1.403  32.624  79.003  0.00  0.00    -0.240 N 
ATOM     32  H   UNL     1      -0.904  33.359  78.502  0.00  0.00    +0.233 HD
ENDROOT
BRANCH   8   7
ATOM      4  C   UNL     1       0.344  34.634  83.345  0.00  0.00    -0.059 A 
ATOM      5  C   UNL     1       0.657  34.942  82.025  0.00  0.00    +0.000 A 
ATOM      6  C   UNL     1       0.048  34.260  80.996  0.00  0.00    +0.014 A 
ATOM      7  C   UNL     1      -0.905  33.310  81.301  0.00  0.00    +0.027 A 
ATOM     33  C   UNL     1      -1.163  32.966  82.613  0.00  0.00    +0.014 A 
ATOM     34  C   UNL     1      -0.549  33.641  83.642  0.00  0.00    +0.000 A 
BRANCH   4   3
ATOM      3  C   UNL     1       0.983  35.324  84.540  0.00  0.00    -0.035 C 
BRANCH   3   2
ATOM      1  C   UNL     1       0.634  37.520  83.674  0.00  0.00    -0.077 C 
ATOM      2  N   UNL     1       0.423  36.641  84.832  0.00  0.00    +0.411 NA
ATOM     35  C   UNL     1       1.148  37.195  85.977  0.00  0.00    -0.077 C 
ATOM     36  C   UNL     1       0.594  38.571  86.301  0.00  0.00    +0.137 C 
ATOM     37  O   UNL     1       0.772  39.398  85.158  0.00  0.00    -0.384 OA
ATOM     38  C   UNL     1       0.070  38.879  83.981  0.00  0.00    +0.137 C 
ENDBRANCH   3   2
ENDBRANCH   4   3
ENDBRANCH   8   7
BRANCH  11  12
ATOM     12  N   UNL     1      -3.865  28.930  80.291  0.00  0.00    -0.304 N 
ATOM     13  C   UNL     1      -3.580  29.263  81.737  0.00  0.00    +0.113 C 
ATOM     14  C   UNL     1      -4.870  29.178  82.726  0.00  0.00    -0.081 C 
ATOM     15  N   UNL     1      -5.344  27.784  82.675  0.00  0.00    +0.411 NA
ATOM     24  C   UNL     1      -5.840  27.663  81.261  0.00  0.00    -0.081 C 
ATOM     25  C   UNL     1      -5.205  28.761  80.421  0.00  0.00    +0.113 C 
BRANCH  15  16
ATOM     16  C   UNL     1      -6.309  26.768  83.174  0.00  0.00    -0.039 C 
BRANCH  16  17
ATOM     17  C   UNL     1      -6.059  25.309  82.782  0.00  0.00    -0.063 A 
ATOM     18  C   UNL     1      -5.012  24.655  83.438  0.00  0.00    -0.006 A 
ATOM     19  C   UNL     1      -4.745  23.321  83.142  0.00  0.00    +0.006 A 
ATOM     20  C   UNL     1      -5.534  22.648  82.212  0.00  0.00    +0.033 A 
ATOM     21 CL   UNL     1      -5.197  21.015  81.810  0.00  0.00    -0.077 Cl
ATOM     22  C   UNL     1      -6.584  23.304  81.567  0.00  0.00    +0.006 A 
ATOM     23  C   UNL     1      -6.886  24.631  81.846  0.00  0.00    -0.006 A 
ENDBRANCH  16  17
ENDBRANCH  15  16
ENDBRANCH  11  12
TORSDOF 6
