REMARK  Name = 3ewh_ligand
REMARK  6 active torsions:
REMARK  status: ('A' for Active; 'I' for Inactive)
REMARK    1  A    between atoms: C38_1  and  N37_2
REMARK    2  A    between atoms: C31_8  and  C24_9
REMARK    3  A    between atoms: C29_14  and  O36_15
REMARK    4  A    between atoms: O36_15  and  C20_16
REMARK    5  A    between atoms: C23_25  and  N19_26
REMARK    6  A    between atoms: C9_31  and  C39_32
REMARK                            x       y       z     vdW  Elec       q    Type
REMARK                         _______ _______ _______ _____ _____    ______ ____
ROOT
ATOM     12  C   UNL     1      16.489  -5.827   9.291  0.00  0.00    +0.122 A 
ATOM     13  C   UNL     1      16.912  -6.452  10.471  0.00  0.00    +0.016 A 
ATOM     14  C   UNL     1      16.660  -5.848  11.713  0.00  0.00    +0.009 A 
ATOM     15  C   UNL     1      15.960  -4.632  11.777  0.00  0.00    +0.074 A 
ATOM     32  C   UNL     1      15.542  -4.015  10.594  0.00  0.00    +0.001 A 
ATOM     33  C   UNL     1      17.098  -6.471  12.888  0.00  0.00    +0.004 A 
ATOM     34  C   UNL     1      17.778  -7.689  12.827  0.00  0.00    -0.006 A 
ATOM     35  C   UNL     1      18.036  -8.290  11.593  0.00  0.00    -0.006 A 
ATOM     36  C   UNL     1      17.604  -7.672  10.421  0.00  0.00    +0.005 A 
ATOM     37  C   UNL     1      15.787  -4.619   9.357  0.00  0.00    +0.010 A 
ENDROOT
BRANCH  15  16
ATOM     16  N   UNL     1      15.748  -4.055  12.976  0.00  0.00    -0.221 N 
ATOM     17  H   UNL     1      16.567  -3.982  13.596  0.00  0.00    +0.227 HD
ATOM     18  C   UNL     1      14.595  -3.564  13.457  0.00  0.00    +0.254 A 
ATOM     19  N   UNL     1      14.504  -3.140  14.716  0.00  0.00    -0.274 NA
ATOM     20  C   UNL     1      13.259  -2.721  14.908  0.00  0.00    +0.050 A 
ATOM     21  C   UNL     1      12.627  -2.186  16.030  0.00  0.00    +0.021 A 
ATOM     22  C   UNL     1      11.286  -1.816  15.953  0.00  0.00    +0.016 A 
ATOM     23  C   UNL     1      10.585  -1.986  14.757  0.00  0.00    +0.019 A 
ATOM     28  C   UNL     1      11.221  -2.528  13.632  0.00  0.00    +0.065 A 
ATOM     29  C   UNL     1      12.567  -2.895  13.707  0.00  0.00    +0.109 A 
ATOM     30  N   UNL     1      13.423  -3.425  12.823  0.00  0.00    -0.213 N 
ATOM     31  H   UNL     1      13.219  -3.677  11.845  0.00  0.00    +0.234 HD
BRANCH  23  24
ATOM     24  C   UNL     1       9.115  -1.577  14.674  0.00  0.00    +0.353 C 
ATOM     25  F   UNL     1       8.373  -2.664  14.604  0.00  0.00    -0.240 F 
ATOM     26  F   UNL     1       8.754  -0.869  15.753  0.00  0.00    -0.240 F 
ATOM     27  F   UNL     1       8.935  -0.855  13.573  0.00  0.00    -0.240 F 
ENDBRANCH  23  24
ENDBRANCH  15  16
BRANCH  12  11
ATOM     11  O   UNL     1      16.697  -6.426   8.076  0.00  0.00    -0.238 OA
BRANCH  11  10
ATOM      9  C   UNL     1      17.760  -6.609   5.936  0.00  0.00    +0.066 A 
ATOM     10  C   UNL     1      17.722  -6.071   7.243  0.00  0.00    +0.205 A 
ATOM     38  N   UNL     1      18.679  -5.210   7.671  0.00  0.00    -0.265 NA
ATOM     39  C   UNL     1      19.683  -4.844   6.879  0.00  0.00    +0.085 A 
ATOM     40  C   UNL     1      19.782  -5.339   5.583  0.00  0.00    +0.022 A 
ATOM     41  C   UNL     1      18.823  -6.230   5.106  0.00  0.00    +0.038 A 
BRANCH   9   8
ATOM      1  C   UNL     1      16.816  -8.109   1.334  0.00  0.00    +0.166 C 
ATOM      2  N   UNL     1      15.822  -8.754   2.211  0.00  0.00    -0.293 N 
ATOM      3  H   UNL     1      15.081  -9.334   1.792  0.00  0.00    +0.186 HD
ATOM      4  C   UNL     1      15.862  -8.601   3.541  0.00  0.00    +0.187 A 
ATOM      5  N   UNL     1      15.037  -9.328   4.325  0.00  0.00    -0.258 NA
ATOM      6  C   UNL     1      15.069  -9.188   5.648  0.00  0.00    +0.100 A 
ATOM      7  C   UNL     1      15.961  -8.285   6.232  0.00  0.00    +0.047 A 
ATOM      8  C   UNL     1      16.812  -7.525   5.423  0.00  0.00    +0.057 A 
ATOM     42  N   UNL     1      16.733  -7.729   4.090  0.00  0.00    -0.253 NA
ENDBRANCH   9   8
ENDBRANCH  11  10
ENDBRANCH  12  11
TORSDOF 5
