REMARK  Name = 5UL1
REMARK  10 active torsions:
REMARK  status: ('A' for Active; 'I' for Inactive)
REMARK    1  A    between atoms: C_1  and  C_2
REMARK    2  A    between atoms: C_1  and  C_18
REMARK    3  A    between atoms: C_1  and  S_31
REMARK    4  A    between atoms: C_2  and  N_17
REMARK    5  A    between atoms: C_3  and  N_17
REMARK    6  A    between atoms: C_6  and  C_25
REMARK    7  A    between atoms: C_9  and  C_10
REMARK    8  A    between atoms: C_11  and  N_30
REMARK    9  A    between atoms: N_17  and  C_21
REMARK   10  A    between atoms: C_22  and  S_31
REMARK                            x       y       z     vdW  Elec       q    Type
REMARK                         _______ _______ _______ _____ _____    ______ ____
ROOT
ATOM      8  C   UNL     1       1.871  -9.696 -16.706  0.00  0.00    +0.090 A 
ATOM      9  N   UNL     1       2.372  -9.766 -17.957  0.00  0.00    -0.237 NA
ATOM     10  C   UNL     1       2.858 -10.944 -18.391  0.00  0.00    +0.166 A 
ATOM     21  C   UNL     1       2.829 -12.101 -17.558  0.00  0.00    +0.147 A 
ATOM     22  N   UNL     1       3.298 -13.288 -17.950  0.00  0.00    -0.341 N 
ATOM     23  H   UNL     1       3.253 -14.127 -17.287  0.00  0.00    +0.144 HD
ATOM     24  H   UNL     1       3.719 -13.401 -18.927  0.00  0.00    +0.144 HD
ATOM     25  N   UNL     1       2.308 -12.014 -16.314  0.00  0.00    -0.236 NA
ATOM     26  C   UNL     1       1.839 -10.837 -15.902  0.00  0.00    +0.141 A 
ENDROOT
BRANCH   8   6
ATOM      3  C   UNL     1       0.751  -5.829 -15.282  0.00  0.00    +0.089 A 
ATOM      4  C   UNL     1       1.092  -6.821 -14.379  0.00  0.00    +0.028 A 
ATOM      5  C   UNL     1       1.442  -8.074 -14.848  0.00  0.00    +0.012 A 
ATOM      6  C   UNL     1       1.466  -8.357 -16.215  0.00  0.00    +0.002 A 
ATOM      7  C   UNL     1       1.116  -7.338 -17.102  0.00  0.00    +0.012 A 
ATOM     27  C   UNL     1       0.759  -6.080 -16.648  0.00  0.00    +0.028 A 
BRANCH   3   2
ATOM      2  S   UNL     1       0.332  -4.216 -14.699  0.00  0.00    +0.001 S 
ATOM     28  O   UNL     1       1.369  -3.796 -13.784  0.00  0.00    -0.169 OA
ATOM     29  O   UNL     1       0.035  -3.387 -15.827  0.00  0.00    -0.169 OA
BRANCH   2   1
ATOM      1  C   UNL     1      -1.184  -4.454 -13.747  0.00  0.00    +0.147 C 
ATOM     30  C   UNL     1      -0.907  -4.539 -12.253  0.00  0.00    +0.033 C 
BRANCH   1  31
ATOM     31  C   UNL     1      -2.302  -3.400 -14.041  0.00  0.00    +0.110 C 
BRANCH  31  32
ATOM     32  N   UNL     1      -3.639  -3.875 -13.629  0.00  0.00    -0.306 NA
ATOM     33  C   UNL     1      -4.546  -4.029 -14.764  0.00  0.00    +0.104 C 
ATOM     34  C   UNL     1      -4.252  -3.028 -12.610  0.00  0.00    +0.104 C 
ENDBRANCH  31  32
ENDBRANCH   1  31
ENDBRANCH   2   1
ENDBRANCH   3   2
ENDBRANCH   8   6
BRANCH  10  11
ATOM     11  C   UNL     1       3.477 -10.918 -19.765  0.00  0.00    +0.270 C 
ATOM     12  N   UNL     1       2.990  -9.997 -20.629  0.00  0.00    -0.280 N 
ATOM     13  H   UNL     1       2.196  -9.376 -20.271  0.00  0.00    +0.155 HD
ATOM     20  O   UNL     1       4.370 -11.709 -20.062  0.00  0.00    -0.268 OA
BRANCH  12  14
ATOM     14  C   UNL     1       3.423  -9.770 -21.958  0.00  0.00    +0.034 A 
ATOM     15  C   UNL     1       4.246 -10.682 -22.617  0.00  0.00    +0.023 A 
ATOM     16  C   UNL     1       4.704 -10.405 -23.895  0.00  0.00    +0.002 A 
ATOM     17  C   UNL     1       4.344  -9.228 -24.525  0.00  0.00    +0.000 A 
ATOM     18  C   UNL     1       3.519  -8.326 -23.878  0.00  0.00    +0.002 A 
ATOM     19  C   UNL     1       3.055  -8.592 -22.599  0.00  0.00    +0.023 A 
ENDBRANCH  12  14
ENDBRANCH  10  11
TORSDOF 7
