REMARK  Name = 1pxk_ligand
REMARK  4 active torsions:
REMARK  status: ('A' for Active; 'I' for Inactive)
REMARK    1  A    between atoms: C7A_1  and  C3A_2
REMARK    2  A    between atoms: C1A_5  and  C6A_6
REMARK    3  A    between atoms: C5A_7  and  C4_8
REMARK    4  A    between atoms: N9_16  and  O10_17
REMARK                            x       y       z     vdW  Elec       q    Type
REMARK                         _______ _______ _______ _____ _____    ______ ____
ROOT
ATOM      6  C   UNL     1      12.707  45.448  23.136  0.00  0.00    +0.043 A 
ATOM      7  C   UNL     1      12.857  45.625  21.735  0.00  0.00    +0.031 A 
ATOM      8  C   UNL     1      12.059  46.605  21.113  0.00  0.00    +0.088 A 
ATOM      9  N   UNL     1      11.211  47.341  21.819  0.00  0.00    -0.265 NA
ATOM     10  C   UNL     1      11.151  47.132  23.128  0.00  0.00    +0.198 A 
ATOM     11  N   UNL     1      10.246  47.890  23.944  0.00  0.00    -0.236 N 
ATOM     12  H   UNL     1      10.366  48.912  23.906  0.00  0.00    +0.221 HD
ATOM     13  C   UNL     1       9.207  47.428  24.798  0.00  0.00    +0.232 C 
ATOM     14  N   UNL     1       8.481  48.231  25.458  0.00  0.00    -0.177 NA
ATOM     17  N   UNL     1      11.837  46.226  23.793  0.00  0.00    -0.264 NA
ENDROOT
BRANCH   6   5
ATOM      1  C   UNL     1      14.312  42.242  26.979  0.00  0.00    +0.164 C 
ATOM      2  C   UNL     1      14.155  42.992  25.673  0.00  0.00    +0.097 A 
ATOM      3  N   UNL     1      14.927  42.801  24.605  0.00  0.00    -0.296 NA
ATOM      4  C   UNL     1      14.526  43.631  23.583  0.00  0.00    +0.015 A 
ATOM      5  C   UNL     1      13.453  44.474  23.875  0.00  0.00    +0.067 A 
ATOM     18  C   UNL     1      15.310  43.546  22.278  0.00  0.00    +0.102 C 
ATOM     19  S   UNL     1      12.930  44.167  25.504  0.00  0.00    -0.001 S 
ENDBRANCH   6   5
BRANCH  14  15
ATOM     15  O   UNL     1       8.526  49.543  25.485  0.00  0.00    -0.282 OA
ATOM     16  H   UNL     1       7.856  49.871  26.073  0.00  0.00    +0.263 HD
ENDBRANCH  14  15
TORSDOF 2
