REMARK  Name = 3FR0
REMARK  6 active torsions:
REMARK  status: ('A' for Active; 'I' for Inactive)
REMARK    1  A    between atoms: C_5  and  C_8
REMARK    2  A    between atoms: C_6  and  N_15
REMARK    3  A    between atoms: C_7  and  S_23
REMARK    4  A    between atoms: C_9  and  N_20
REMARK    5  A    between atoms: C_11  and  S_23
REMARK    6  A    between atoms: C_12  and  C_14
REMARK                            x       y       z     vdW  Elec       q    Type
REMARK                         _______ _______ _______ _____ _____    ______ ____
ROOT
ATOM      1  C   UNL     1      41.035  16.021  64.639  0.00  0.00    +0.024 A 
ATOM      2  C   UNL     1      41.258  14.883  63.832  0.00  0.00    +0.017 A 
ATOM      3  C   UNL     1      40.539  14.715  62.633  0.00  0.00    +0.016 A 
ATOM     11  C   UNL     1      39.626  15.702  62.247  0.00  0.00    +0.030 A 
ATOM     12  C   UNL     1      39.414  16.820  63.047  0.00  0.00    +0.059 A 
ATOM     23  C   UNL     1      40.105  17.003  64.254  0.00  0.00    +0.037 A 
ENDROOT
BRANCH  12  13
ATOM     13  C   UNL     1      38.448  17.827  62.587  0.00  0.00    +0.252 C 
ATOM     14  O   UNL     1      37.597  18.247  63.364  0.00  0.00    -0.270 OA
ATOM     15  N   UNL     1      38.666  18.170  61.250  0.00  0.00    -0.261 N 
ATOM     16  H   UNL     1      39.613  17.943  60.807  0.00  0.00    +0.157 HD
ATOM     17  C   UNL     1      37.692  18.799  60.471  0.00  0.00    +0.165 A 
ATOM     18  S   UNL     1      36.428  19.634  61.275  0.00  0.00    -0.060 S 
ATOM     19  C   UNL     1      35.776  20.065  59.767  0.00  0.00    +0.071 A 
ATOM     20  C   UNL     1      36.539  19.559  58.739  0.00  0.00    +0.048 A 
ATOM     21  C   UNL     1      36.278  19.734  57.305  0.00  0.00    +0.066 C 
ATOM     22  N   UNL     1      37.650  18.823  59.147  0.00  0.00    -0.230 NA
ENDBRANCH  12  13
BRANCH  23  24
ATOM     24  N   UNL     1      39.867  18.119  65.065  0.00  0.00    -0.357 N 
ATOM     25  H   UNL     1      39.157  18.860  64.761  0.00  0.00    +0.142 HD
ATOM     26  H   UNL     1      40.395  18.232  65.989  0.00  0.00    +0.142 HD
ENDBRANCH  23  24
BRANCH   3   4
ATOM      4  S   UNL     1      40.703  13.273  61.603  0.00  0.00    -0.050 S 
BRANCH   4   5
ATOM      5  C   UNL     1      42.411  12.983  61.640  0.00  0.00    +0.196 A 
ATOM      6  N   UNL     1      42.940  11.893  62.250  0.00  0.00    -0.311 N 
ATOM      7  C   UNL     1      42.231  10.864  62.982  0.00  0.00    +0.152 C 
ATOM      8  C   UNL     1      44.266  11.936  62.033  0.00  0.00    +0.225 A 
ATOM      9  N   UNL     1      44.552  13.031  61.335  0.00  0.00    -0.137 NA
ATOM     10  N   UNL     1      43.358  13.703  61.087  0.00  0.00    -0.122 NA
ENDBRANCH   4   5
ENDBRANCH   3   4
TORSDOF 4
