REMARK  Name = 4g2f_ligand
REMARK  4 active torsions:
REMARK  status: ('A' for Active; 'I' for Inactive)
REMARK    1  A    between atoms: O1_1  and  C7_2
REMARK    2  A    between atoms: N_16  and  C2_17
REMARK    3  A    between atoms: C4_19  and  O_20
REMARK    4  A    between atoms: C1_23  and  C_24
REMARK                            x       y       z     vdW  Elec       q    Type
REMARK                         _______ _______ _______ _____ _____    ______ ____
ROOT
ATOM      3  C   UNL     1      -9.229   7.792  52.864  0.00  0.00    +0.175 C 
ATOM      4  N   UNL     1      -9.149   8.486  51.725  0.00  0.00    -0.195 N 
ATOM     14  C   UNL     1      -8.778   7.883  50.499  0.00  0.00    +0.156 A 
ATOM     15  N   UNL     1      -8.694   8.589  49.350  0.00  0.00    -0.271 NA
ATOM     16  C   UNL     1      -8.341   8.005  48.190  0.00  0.00    +0.148 A 
ATOM     17  N   UNL     1      -8.051   6.698  48.072  0.00  0.00    -0.278 NA
ATOM     18  C   UNL     1      -8.088   5.864  49.132  0.00  0.00    +0.115 A 
ATOM     19  N   UNL     1      -7.799   4.548  49.017  0.00  0.00    -0.323 N 
ATOM     20  H   UNL     1      -7.846   3.936  49.844  0.00  0.00    +0.176 HD
ATOM     21  H   UNL     1      -7.532   4.157  48.102  0.00  0.00    +0.176 HD
ATOM     22  C   UNL     1      -8.473   6.438  50.440  0.00  0.00    +0.056 A 
ATOM     23  C   UNL     1      -8.548   5.630  51.678  0.00  0.00    +0.054 C 
ATOM     24  C   UNL     1      -8.231   4.153  51.670  0.00  0.00    +0.019 C 
ATOM     25  C   UNL     1      -7.722   3.787  53.057  0.00  0.00    +0.004 C 
ATOM     26  C   UNL     1      -8.808   4.101  54.082  0.00  0.00    +0.005 C 
ATOM     27  C   UNL     1      -9.044   5.603  54.241  0.00  0.00    +0.023 C 
ATOM     28  C   UNL     1      -8.937   6.333  52.921  0.00  0.00    -0.032 C 
ENDROOT
BRANCH   4   5
ATOM      5  C   UNL     1      -9.443   9.857  51.790  0.00  0.00    +0.074 A 
ATOM      6  C   UNL     1     -10.694  10.385  51.198  0.00  0.00    -0.030 A 
ATOM      7  C   UNL     1     -11.646   9.452  50.509  0.00  0.00    +0.066 C 
ATOM      8  C   UNL     1     -10.962  11.742  51.289  0.00  0.00    -0.029 A 
ATOM      9  C   UNL     1     -10.046  12.567  51.932  0.00  0.00    -0.010 A 
ATOM     10  C   UNL     1      -8.868  12.068  52.490  0.00  0.00    +0.071 A 
ATOM     13  C   UNL     1      -8.570  10.719  52.424  0.00  0.00    +0.029 A 
BRANCH  10  11
ATOM     11  O   UNL     1      -8.007  12.910  53.120  0.00  0.00    -0.341 OA
ATOM     12  H   UNL     1      -8.348  13.796  53.082  0.00  0.00    +0.246 HD
ENDBRANCH  10  11
ENDBRANCH   4   5
BRANCH   3   1
ATOM      1  O   UNL     1      -9.581   8.427  53.971  0.00  0.00    -0.328 OA
ATOM      2  H   UNL     1      -9.596   7.813  54.696  0.00  0.00    +0.243 HD
ENDBRANCH   3   1
TORSDOF 3
