REMARK  Name = 4bkz_ligand
REMARK  7 active torsions:
REMARK  status: ('A' for Active; 'I' for Inactive)
REMARK    1  A    between atoms: C21_2  and  C8_8
REMARK    2  A    between atoms: N22_3  and  C24_4
REMARK    3  A    between atoms: C24_4  and  C25_5
REMARK    4  A    between atoms: C25_5  and  C26_6
REMARK    5  A    between atoms: C26_6  and  N27_7
REMARK    6  A    between atoms: C11_16  and  N13_20
REMARK    7  A    between atoms: N13_20  and  C14_21
REMARK                            x       y       z     vdW  Elec       q    Type
REMARK                         _______ _______ _______ _____ _____    ______ ____
ROOT
ATOM      3  C   UNL     1      15.008  10.141   7.466  0.00  0.00    +0.117 A 
ATOM      4  N   UNL     1      14.301  10.526   6.384  0.00  0.00    -0.194 NA
ATOM      5  N   UNL     1      14.612   9.727   5.250  0.00  0.00    -0.212 N 
ATOM      6  H   UNL     1      14.217   9.789   4.301  0.00  0.00    +0.252 HD
ATOM      7  C   UNL     1      15.547   8.868   5.709  0.00  0.00    +0.090 A 
ATOM      8  C   UNL     1      16.127   7.831   4.982  0.00  0.00    +0.068 A 
ATOM      9  C   UNL     1      16.792   6.811   5.618  0.00  0.00    +0.006 A 
ATOM     10  N   UNL     1      17.165   5.954   4.624  0.00  0.00    -0.258 NA
ATOM     11  N   UNL     1      16.729   6.388   3.335  0.00  0.00    -0.203 N 
ATOM     12  H   UNL     1      16.889   5.921   2.431  0.00  0.00    +0.256 HD
ATOM     13  C   UNL     1      17.037   6.750   7.100  0.00  0.00    -0.031 A 
ATOM     14  C   UNL     1      16.862   8.113   7.791  0.00  0.00    -0.022 A 
ATOM     15  C   UNL     1      16.062   7.542   3.555  0.00  0.00    +0.205 A 
ATOM     25  C   UNL     1      15.862   8.988   7.053  0.00  0.00    +0.012 A 
ENDROOT
BRANCH   3   2
ATOM      1  O   UNL     1      15.759  10.464   9.701  0.00  0.00    -0.386 OA
ATOM      2  C   UNL     1      14.950  10.749   8.833  0.00  0.00    +0.210 C 
ATOM     26  N   UNL     1      13.987  11.631   9.074  0.00  0.00    -0.286 N 
ATOM     27  H   UNL     1      13.363  11.823   8.316  0.00  0.00    +0.184 HD
BRANCH  26  28
ATOM     28  C   UNL     1      13.734  12.352  10.318  0.00  0.00    +0.139 C 
BRANCH  28  29
ATOM     29  C   UNL     1      12.482  11.691  10.891  0.00  0.00    +0.075 C 
BRANCH  29  30
ATOM     30  C   UNL     1      11.455  12.721  11.339  0.00  0.00    +0.129 C 
BRANCH  30  31
ATOM     31  N   UNL     1      10.706  12.188  12.462  0.00  0.00    +0.219 N 
ATOM     32  H   UNL     1      10.237  11.341  12.181  0.00  0.00    +0.199 HD
ATOM     33  H   UNL     1      11.337  11.986  13.222  0.00  0.00    +0.199 HD
ATOM     34  H   UNL     1      10.024  12.866  12.763  0.00  0.00    +0.199 HD
ENDBRANCH  30  31
ENDBRANCH  29  30
ENDBRANCH  28  29
ENDBRANCH  26  28
ENDBRANCH   3   2
BRANCH  15  16
ATOM     16  N   UNL     1      15.442   8.388   2.700  0.00  0.00    -0.239 N 
ATOM     17  H   UNL     1      14.923   9.150   3.159  0.00  0.00    +0.220 HD
BRANCH  16  18
ATOM     18  C   UNL     1      15.384   8.408   1.344  0.00  0.00    +0.065 A 
ATOM     19  C   UNL     1      14.334   9.134   0.752  0.00  0.00    +0.008 A 
ATOM     20  C   UNL     1      14.191   9.227  -0.643  0.00  0.00    -0.016 A 
ATOM     21  C   UNL     1      15.121   8.593  -1.464  0.00  0.00    +0.011 A 
ATOM     22  C   UNL     1      16.179   7.872  -0.877  0.00  0.00    +0.123 A 
ATOM     23  F   UNL     1      17.074   7.251  -1.667  0.00  0.00    -0.187 F 
ATOM     24  C   UNL     1      16.319   7.778   0.519  0.00  0.00    +0.047 A 
ENDBRANCH  16  18
ENDBRANCH  15  16
TORSDOF 7
