REMARK  Name = 3NZ0
REMARK  4 active torsions:
REMARK  status: ('A' for Active; 'I' for Inactive)
REMARK    1  A    between atoms: C_18  and  C_20
REMARK    2  A    between atoms: C_20  and  C_21
REMARK    3  A    between atoms: C_20  and  C_22
REMARK    4  A    between atoms: C_20  and  C_23
REMARK                            x       y       z     vdW  Elec       q    Type
REMARK                         _______ _______ _______ _____ _____    ______ ____
ROOT
ATOM      1  O   UNL     1      -0.728   1.232  -9.224  0.00  0.00    -0.267 OA
ATOM      2  C   UNL     1      -0.303   1.194  -8.042  0.00  0.00    +0.257 C 
ATOM      3  C   UNL     1      -0.477  -0.025  -7.203  0.00  0.00    +0.056 C 
ATOM      4  C   UNL     1      -1.150  -1.259  -7.713  0.00  0.00    -0.000 C 
ATOM      5  C   UNL     1      -1.291  -2.428  -6.802  0.00  0.00    +0.011 C 
ATOM      6  C   UNL     1      -0.783  -2.287  -5.518  0.00  0.00    +0.097 C 
ATOM      7  N   UNL     1      -0.732  -3.226  -4.477  0.00  0.00    -0.231 NA
ATOM      8  C   UNL     1      -0.089  -2.598  -3.483  0.00  0.00    +0.114 C 
ATOM     13  N   UNL     1       0.238  -1.351  -3.819  0.00  0.00    -0.341 NA
ATOM     14  H   UNL     1       0.728  -0.641  -3.186  0.00  0.00    +0.167 HD
ATOM     15  C   UNL     1      -0.154  -1.134  -5.095  0.00  0.00    +0.075 C 
ATOM     16  C   UNL     1      -1.876  -3.496  -7.239  0.00  0.00    +0.013 C 
ATOM     17  C   UNL     1      -2.368  -3.554  -8.545  0.00  0.00    +0.039 C 
ATOM     18  C   UNL     1      -2.287  -2.596  -9.379  0.00  0.00    +0.124 C 
ATOM     19  F   UNL     1      -2.773  -2.740 -10.587  0.00  0.00    -0.205 F 
ATOM     20  C   UNL     1      -1.707  -1.421  -9.069  0.00  0.00    +0.047 C 
ATOM     21  C   UNL     1       0.006  -0.001  -5.893  0.00  0.00    +0.015 C 
ATOM     22  C   UNL     1       0.639   1.153  -5.420  0.00  0.00    +0.028 C 
ATOM     23  C   UNL     1       0.782   2.275  -6.247  0.00  0.00    +0.086 C 
ATOM     24  N   UNL     1       0.321   2.268  -7.509  0.00  0.00    -0.329 N 
ATOM     25  H   UNL     1       0.452   3.142  -8.112  0.00  0.00    +0.168 HD
ENDROOT
BRANCH   8   9
ATOM      9  C   UNL     1       0.261  -3.225  -2.144  0.00  0.00    +0.020 C 
ATOM     10  C   UNL     1       1.781  -3.233  -2.033  0.00  0.00    +0.019 C 
ATOM     11  C   UNL     1      -0.319  -2.415  -0.988  0.00  0.00    +0.019 C 
ATOM     12  C   UNL     1      -0.252  -4.662  -2.115  0.00  0.00    +0.019 C 
ENDBRANCH   8   9
TORSDOF 1
