REMARK  Name = 3NAX
REMARK  8 active torsions:
REMARK  status: ('A' for Active; 'I' for Inactive)
REMARK    1  A    between atoms: C_1  and  C_37
REMARK    2  A    between atoms: N_3  and  C_9
REMARK    3  A    between atoms: C_9  and  C_10
REMARK    4  A    between atoms: C_20  and  O_25
REMARK    5  A    between atoms: O_25  and  C_26
REMARK    6  A    between atoms: C_26  and  C_27
REMARK    7  A    between atoms: C_27  and  C_28
REMARK    8  A    between atoms: C_27  and  N_36
REMARK                            x       y       z     vdW  Elec       q    Type
REMARK                         _______ _______ _______ _____ _____    ______ ____
ROOT
ATOM      6  C   UNL     1       7.513  -6.236   8.850  0.00  0.00    +0.141 C 
ENDROOT
BRANCH   6   7
ATOM      7  C   UNL     1       6.897  -7.627   9.065  0.00  0.00    -0.024 A 
ATOM      8  C   UNL     1       6.095  -7.901  10.234  0.00  0.00    +0.005 A 
ATOM      9  C   UNL     1       5.555  -9.200  10.385  0.00  0.00    +0.000 A 
ATOM     10  C   UNL     1       5.842 -10.224   9.474  0.00  0.00    +0.000 A 
ATOM     11  C   UNL     1       6.646  -9.976   8.340  0.00  0.00    +0.000 A 
ATOM     12  C   UNL     1       7.177  -8.654   8.136  0.00  0.00    +0.005 A 
ENDBRANCH   6   7
BRANCH   6   4
ATOM      2  C   UNL     1       9.399  -6.360   7.244  0.00  0.00    +0.250 C 
ATOM      3  O   UNL     1      10.107  -7.043   7.994  0.00  0.00    -0.270 OA
ATOM      4  N   UNL     1       8.123  -5.928   7.540  0.00  0.00    -0.301 N 
ATOM      5  H   UNL     1       7.571  -5.366   6.816  0.00  0.00    +0.150 HD
BRANCH   2   1
ATOM      1  C   UNL     1       9.929  -5.915   5.949  0.00  0.00    +0.101 C 
ATOM     27  C   UNL     1       9.155  -5.036   4.981  0.00  0.00    +0.264 C 
ATOM     28  O   UNL     1       8.001  -4.701   5.231  0.00  0.00    -0.267 OA
ATOM     29  N   UNL     1       9.884  -4.634   3.861  0.00  0.00    -0.310 N 
ATOM     39  C   UNL     1      11.188  -5.058   3.560  0.00  0.00    +0.089 C 
ATOM     40  C   UNL     1      11.890  -5.848   4.466  0.00  0.00    +0.019 C 
ATOM     41  C   UNL     1      11.204  -6.306   5.647  0.00  0.00    +0.020 C 
BRANCH  29  30
ATOM     30  C   UNL     1       9.236  -3.744   2.900  0.00  0.00    +0.160 C 
BRANCH  30  31
ATOM     31  C   UNL     1       8.361  -4.440   1.949  0.00  0.00    -0.025 A 
ATOM     32  C   UNL     1       7.281  -3.698   1.470  0.00  0.00    +0.046 A 
ATOM     33  C   UNL     1       6.472  -4.282   0.504  0.00  0.00    +0.159 A 
ATOM     34  C   UNL     1       6.694  -5.570   0.038  0.00  0.00    +0.158 A 
ATOM     35  F   UNL     1       5.888  -6.084  -0.896  0.00  0.00    -0.203 F 
ATOM     36  C   UNL     1       7.775  -6.381   0.493  0.00  0.00    +0.041 A 
ATOM     37  F   UNL     1       5.467  -3.550   0.047  0.00  0.00    -0.203 F 
ATOM     38  C   UNL     1       8.622  -5.798   1.487  0.00  0.00    +0.008 A 
ENDBRANCH  30  31
ENDBRANCH  29  30
ENDBRANCH   2   1
ENDBRANCH   6   4
BRANCH   6  13
ATOM     13  C   UNL     1       6.541  -5.109   9.140  0.00  0.00    +0.256 C 
BRANCH  13  14
ATOM     14  O   UNL     1       7.318  -3.894   9.212  0.00  0.00    -0.490 OA
BRANCH  14  15
ATOM     15  C   UNL     1       6.750  -2.840   9.857  0.00  0.00    +0.123 A 
ATOM     16  C   UNL     1       5.397  -2.793  10.393  0.00  0.00    +0.048 A 
ATOM     17  C   UNL     1       4.965  -1.603  11.015  0.00  0.00    +0.031 A 
ATOM     18  C   UNL     1       5.827  -0.562  11.067  0.00  0.00    +0.067 A 
ATOM     19  N   UNL     1       5.553   0.699  11.628  0.00  0.00    -0.306 N 
ATOM     20  H   UNL     1       4.642   1.009  12.097  0.00  0.00    +0.170 HD
ATOM     21  C   UNL     1       6.703   1.463  11.452  0.00  0.00    +0.325 A 
ATOM     22  O   UNL     1       6.791   2.639  11.820  0.00  0.00    -0.247 OA
ATOM     23  N   UNL     1       7.654   0.671  10.757  0.00  0.00    -0.306 N 
ATOM     24  H   UNL     1       8.632   0.985  10.456  0.00  0.00    +0.170 HD
ATOM     25  C   UNL     1       7.105  -0.566  10.537  0.00  0.00    +0.070 A 
ATOM     26  C   UNL     1       7.615  -1.693   9.916  0.00  0.00    +0.073 A 
ENDBRANCH  14  15
ENDBRANCH  13  14
ENDBRANCH   6  13
TORSDOF 8
