REMARK  Name = 3lq5_ligand
REMARK  12 active torsions:
REMARK  status: ('A' for Active; 'I' for Inactive)
REMARK    1  A    between atoms: O1_2  and  C15_20
REMARK    2  A    between atoms: N2_4  and  C12_17
REMARK    3  A    between atoms: C6_8  and  N6_9
REMARK    4  A    between atoms: N6_9  and  CA'_32
REMARK    5  A    between atoms: C9_12  and  N9_13
REMARK    6  A    between atoms: C9_12  and  C10_15
REMARK    7  A    between atoms: C9_12  and  C11_16
REMARK    8  A    between atoms: C1'_14  and  CA'_32
REMARK    9  A    between atoms: C12_17  and  C13_18
REMARK   10  A    between atoms: C12_17  and  C15_20
REMARK   11  A    between atoms: C13_18  and  C14_19
REMARK   12  A    between atoms: C1B_21  and  C4'_27
REMARK                            x       y       z     vdW  Elec       q    Type
REMARK                         _______ _______ _______ _____ _____    ______ ____
ROOT
ATOM      1  N   UNL     1      55.336 -17.504 -11.365  0.00  0.00    -0.256 NA
ATOM      2  C   UNL     1      56.067 -16.441 -11.700  0.00  0.00    +0.122 A 
ATOM     18  C   UNL     1      55.473 -15.304 -12.161  0.00  0.00    +0.092 A 
ATOM     19  N   UNL     1      55.961 -14.132 -12.560  0.00  0.00    -0.304 NA
ATOM     20  C   UNL     1      54.916 -13.357 -12.926  0.00  0.00    +0.236 A 
ATOM     21  N   UNL     1      53.781 -14.061 -12.744  0.00  0.00    -0.225 N 
ATOM     25  C   UNL     1      54.122 -15.261 -12.274  0.00  0.00    +0.142 A 
ATOM     26  N   UNL     1      53.386 -16.335 -11.937  0.00  0.00    -0.265 NA
ATOM     27  C   UNL     1      53.986 -17.467 -11.485  0.00  0.00    +0.154 A 
ATOM     28  N   UNL     1      53.185 -18.583 -11.030  0.00  0.00    -0.292 N 
ATOM     29  H   UNL     1      53.812 -19.360 -11.240  0.00  0.00    +0.185 HD
ENDROOT
BRANCH  21  22
ATOM     22  C   UNL     1      52.420 -13.606 -12.980  0.00  0.00    +0.129 C 
ATOM     23  C   UNL     1      51.593 -13.467 -11.705  0.00  0.00    +0.043 C 
ATOM     24  C   UNL     1      51.679 -14.328 -14.104  0.00  0.00    +0.043 C 
ENDBRANCH  21  22
BRANCH   2   3
ATOM      3  N   UNL     1      57.489 -16.504 -11.496  0.00  0.00    -0.291 N 
ATOM      4  H   UNL     1      57.810 -15.663 -11.975  0.00  0.00    +0.188 HD
BRANCH   3   5
ATOM      5  C   UNL     1      58.725 -17.063 -11.009  0.00  0.00    +0.204 C 
BRANCH   5   6
ATOM      6  C   UNL     1      59.382 -17.839 -12.121  0.00  0.00    -0.018 A 
ATOM      7  C   UNL     1      59.125 -19.207 -12.289  0.00  0.00    +0.001 A 
ATOM      8  C   UNL     1      59.706 -19.863 -13.383  0.00  0.00    +0.006 A 
ATOM      9  C   UNL     1      60.515 -19.137 -14.284  0.00  0.00    -0.007 A 
ATOM     10  C   UNL     1      60.736 -17.767 -14.095  0.00  0.00    +0.006 A 
ATOM     17  C   UNL     1      60.165 -17.110 -13.012  0.00  0.00    +0.001 A 
BRANCH   9  11
ATOM     11  C   UNL     1      61.102 -19.734 -15.393  0.00  0.00    +0.048 A 
ATOM     12  C   UNL     1      60.934 -21.108 -15.634  0.00  0.00    +0.042 A 
ATOM     13  C   UNL     1      61.513 -21.667 -16.746  0.00  0.00    +0.030 A 
ATOM     14  C   UNL     1      62.237 -20.874 -17.609  0.00  0.00    +0.034 A 
ATOM     15  C   UNL     1      62.399 -19.498 -17.376  0.00  0.00    +0.091 A 
ATOM     16  N   UNL     1      61.824 -18.944 -16.267  0.00  0.00    -0.294 NA
ENDBRANCH   9  11
ENDBRANCH   5   6
ENDBRANCH   3   5
ENDBRANCH   2   3
BRANCH  28  30
ATOM     30  CA  UNL     1      52.057 -19.299 -10.465  0.00  0.00    +0.122 C 
BRANCH  30  34
ATOM     34  C   UNL     1      50.789 -18.439 -10.557  0.00  0.00    +0.027 C 
ATOM     35  C   UNL     1      49.479 -19.114 -10.156  0.00  0.00    +0.006 C 
ENDBRANCH  30  34
BRANCH  30  31
ATOM     31  C   UNL     1      51.879 -20.558 -11.275  0.00  0.00    +0.183 C 
BRANCH  31  32
ATOM     32  O   UNL     1      52.564 -20.630 -12.495  0.00  0.00    -0.393 OA
ATOM     33  H   UNL     1      52.375 -21.471 -12.918  0.00  0.00    +0.209 HD
ENDBRANCH  31  32
ENDBRANCH  30  31
ENDBRANCH  28  30
TORSDOF 9
