REMARK  Name = 3W18
REMARK  5 active torsions:
REMARK  status: ('A' for Active; 'I' for Inactive)
REMARK    1  A    between atoms: C_1  and  C_11
REMARK    2  A    between atoms: C_8  and  N_9
REMARK    3  A    between atoms: C_11  and  C_12
REMARK    4  A    between atoms: C_16  and  C_17
REMARK    5  A    between atoms: C_25  and  C_26
REMARK                            x       y       z     vdW  Elec       q    Type
REMARK                         _______ _______ _______ _____ _____    ______ ____
ROOT
ATOM      8  C   UNL     1     -25.157   9.662  23.185  0.00  0.00    +0.004 A 
ATOM      9  C   UNL     1     -23.877   9.100  23.270  0.00  0.00    +0.011 A 
ATOM     10  C   UNL     1     -23.741   7.961  24.072  0.00  0.00    +0.013 A 
ATOM     11  C   UNL     1     -24.792   7.427  24.725  0.00  0.00    +0.030 A 
ATOM     12  C   UNL     1     -24.894   6.315  25.502  0.00  0.00    +0.135 A 
ATOM     23  N   UNL     1     -26.163   6.154  25.907  0.00  0.00    -0.170 NA
ATOM     24  N   UNL     1     -26.880   7.238  25.347  0.00  0.00    -0.276 N 
ATOM     25  H   UNL     1     -27.923   7.438  25.476  0.00  0.00    +0.189 HD
ATOM     26  C   UNL     1     -26.016   7.970  24.625  0.00  0.00    +0.067 A 
ATOM     27  C   UNL     1     -26.221   9.057  23.887  0.00  0.00    +0.038 A 
ENDROOT
BRANCH  12  13
ATOM     13  C   UNL     1     -23.897   5.480  25.886  0.00  0.00    +0.160 A 
ATOM     14  N   UNL     1     -22.603   5.663  25.702  0.00  0.00    -0.337 N 
ATOM     15  H   UNL     1     -22.147   6.500  25.216  0.00  0.00    +0.167 HD
ATOM     16  C   UNL     1     -21.949   4.592  26.244  0.00  0.00    +0.067 A 
ATOM     17  C   UNL     1     -20.625   4.263  26.308  0.00  0.00    +0.028 A 
ATOM     18  C   UNL     1     -20.186   3.099  26.957  0.00  0.00    +0.002 A 
ATOM     19  C   UNL     1     -21.169   2.272  27.548  0.00  0.00    +0.002 A 
ATOM     20  C   UNL     1     -22.502   2.659  27.421  0.00  0.00    +0.030 A 
ATOM     21  C   UNL     1     -22.865   3.787  26.784  0.00  0.00    +0.089 A 
ATOM     22  N   UNL     1     -24.068   4.340  26.556  0.00  0.00    -0.226 NA
ENDBRANCH  12  13
BRANCH   8   7
ATOM      3  C   UNL     1     -25.452  12.451  21.328  0.00  0.00    +0.045 A 
ATOM      4  N   UNL     1     -26.652  11.925  21.293  0.00  0.00    -0.281 N 
ATOM      5  H   UNL     1     -27.497  12.341  20.785  0.00  0.00    +0.189 HD
ATOM      6  N   UNL     1     -26.651  10.929  21.905  0.00  0.00    -0.174 NA
ATOM      7  C   UNL     1     -25.423  10.736  22.436  0.00  0.00    +0.093 A 
ATOM     28  C   UNL     1     -24.614  11.726  22.041  0.00  0.00    +0.053 A 
BRANCH   3   2
ATOM      2  C   UNL     1     -25.239  13.722  20.608  0.00  0.00    +0.150 C 
BRANCH   2   1
ATOM      1  C   UNL     1     -26.665  14.007  20.193  0.00  0.00    +0.223 C 
ATOM     29  O   UNL     1     -27.249  13.141  19.562  0.00  0.00    -0.275 OA
ATOM     30  N   UNL     1     -27.237  15.148  20.572  0.00  0.00    -0.285 N 
ATOM     31  H   UNL     1     -26.722  15.931  21.089  0.00  0.00    +0.155 HD
BRANCH  30  32
ATOM     32  C   UNL     1     -28.519  15.203  20.235  0.00  0.00    +0.036 A 
ATOM     33  C   UNL     1     -29.243  16.388  20.048  0.00  0.00    +0.023 A 
ATOM     34  C   UNL     1     -30.599  16.255  19.701  0.00  0.00    +0.005 A 
ATOM     35  C   UNL     1     -31.215  14.972  19.542  0.00  0.00    +0.038 A 
ATOM     36  C   UNL     1     -30.461  13.794  19.745  0.00  0.00    +0.125 A 
ATOM     37  F   UNL     1     -31.061  12.194  19.626  0.00  0.00    -0.205 F 
ATOM     38  C   UNL     1     -29.131  13.960  20.101  0.00  0.00    +0.061 A 
ENDBRANCH  30  32
ENDBRANCH   2   1
ENDBRANCH   3   2
ENDBRANCH   8   7
TORSDOF 5
