REMARK  Name = 1zzl_ligand
REMARK  5 active torsions:
REMARK  status: ('A' for Active; 'I' for Inactive)
REMARK    1  A    between atoms: C21_4  and  C17_20
REMARK    2  A    between atoms: C21_4  and  C24_21
REMARK    3  A    between atoms: C21_4  and  C23_22
REMARK    4  A    between atoms: C5_13  and  C2_14
REMARK    5  A    between atoms: C1_17  and  C3_18
REMARK                            x       y       z     vdW  Elec       q    Type
REMARK                         _______ _______ _______ _____ _____    ______ ____
ROOT
ATOM      1  C   UNL     1       0.632  11.597  30.679  0.00  0.00    +0.229 A 
ATOM      2  N   UNL     1       0.092  10.360  30.942  0.00  0.00    -0.167 N 
ATOM      3  C   UNL     1      -1.158   9.821  30.811  0.00  0.00    +0.156 A 
ATOM      4  N   UNL     1      -1.090   8.558  31.227  0.00  0.00    -0.277 NA
ATOM      5  N   UNL     1       0.140   8.260  31.555  0.00  0.00    -0.293 NA
ATOM      9  C   UNL     1       0.904   9.344  31.415  0.00  0.00    +0.149 A 
ATOM     10  C   UNL     1       2.295   9.604  31.656  0.00  0.00    +0.044 A 
ATOM     11  C   UNL     1       2.801  10.848  31.405  0.00  0.00    +0.019 A 
ATOM     12  C   UNL     1       1.975  11.857  30.873  0.00  0.00    +0.059 A 
ENDROOT
BRANCH  12  13
ATOM     13  C   UNL     1       2.444  13.223  30.659  0.00  0.00    +0.152 A 
ATOM     14  O   UNL     1       1.580  14.265  30.658  0.00  0.00    -0.227 OA
ATOM     15  C   UNL     1       2.329  15.362  30.486  0.00  0.00    +0.303 A 
ATOM     16  N   UNL     1       3.588  15.077  30.420  0.00  0.00    -0.299 NA
ATOM     17  C   UNL     1       3.730  13.738  30.532  0.00  0.00    +0.047 A 
BRANCH  17  18
ATOM     18  C   UNL     1       5.030  12.974  30.497  0.00  0.00    -0.028 A 
ATOM     19  C   UNL     1       5.330  12.064  29.451  0.00  0.00    -0.005 A 
ATOM     20  C   UNL     1       6.553  11.372  29.463  0.00  0.00    +0.027 A 
ATOM     21  C   UNL     1       7.464  11.619  30.489  0.00  0.00    +0.128 A 
ATOM     22  C   UNL     1       7.173  12.506  31.519  0.00  0.00    +0.027 A 
ATOM     23  F   UNL     1       8.635  10.960  30.558  0.00  0.00    -0.187 F 
ATOM     24  C   UNL     1       5.957  13.194  31.528  0.00  0.00    -0.005 A 
ENDBRANCH  17  18
ENDBRANCH  12  13
BRANCH   3   6
ATOM      6  C   UNL     1      -2.385  10.579  30.324  0.00  0.00    +0.086 C 
ATOM      7  C   UNL     1      -3.380   9.664  29.603  0.00  0.00    +0.030 C 
ATOM      8  C   UNL     1      -3.074  11.207  31.549  0.00  0.00    +0.030 C 
ENDBRANCH   3   6
TORSDOF 3
