REMARK  Name = 3R71
REMARK  9 active torsions:
REMARK  status: ('A' for Active; 'I' for Inactive)
REMARK    1  A    between atoms: N_1  and  C_13
REMARK    2  A    between atoms: N_4  and  C_19
REMARK    3  A    between atoms: N_5  and  C_11
REMARK    4  A    between atoms: C_7  and  C_12
REMARK    5  A    between atoms: C_13  and  C_14
REMARK    6  A    between atoms: C_19  and  C_20
REMARK    7  A    between atoms: C_20  and  C_21
REMARK    8  A    between atoms: C_21  and  O_26
REMARK    9  A    between atoms: C_22  and  O_26
REMARK                            x       y       z     vdW  Elec       q    Type
REMARK                         _______ _______ _______ _____ _____    ______ ____
ROOT
ATOM      1  N   UNL     1      63.872  46.249 -12.082  0.00  0.00    -0.282 NA
ATOM      9  C   UNL     1      65.020  45.794 -11.642  0.00  0.00    +0.054 C 
ATOM     10  C   UNL     1      65.118  45.123 -10.364  0.00  0.00    +0.109 C 
ATOM     11  C   UNL     1      66.353  44.625  -9.866  0.00  0.00    +0.059 C 
ATOM     12  C   UNL     1      67.535  44.794 -10.646  0.00  0.00    +0.216 C 
ATOM     13  C   UNL     1      67.447  45.453 -11.922  0.00  0.00    +0.032 C 
ATOM     17  N   UNL     1      66.419  44.023  -8.713  0.00  0.00    -0.289 NA
ATOM     23  C   UNL     1      66.205  45.952 -12.431  0.00  0.00    +0.057 C 
ENDROOT
BRANCH  23  24
ATOM     24  C   UNL     1      66.185  46.567 -13.673  0.00  0.00    +0.243 C 
ATOM     25  O   UNL     1      65.317  47.373 -13.976  0.00  0.00    -0.270 OA
ATOM     26  N   UNL     1      67.137  46.247 -14.606  0.00  0.00    -0.325 N 
ATOM     27  H   UNL     1      67.125  46.719 -15.566  0.00  0.00    +0.145 HD
ATOM     28  H   UNL     1      67.892  45.525 -14.374  0.00  0.00    +0.145 HD
ENDBRANCH  23  24
BRANCH  12  14
ATOM     14  N   UNL     1      68.677  44.368 -10.229  0.00  0.00    +0.041 N 
ATOM     15  O   UNL     1      69.756  44.524 -10.967  0.00  0.00    -0.130 OA
ATOM     16  O   UNL     1      68.816  43.806  -9.058  0.00  0.00    -0.130 OA
ENDBRANCH  12  14
BRANCH   1   2
ATOM      2  C   UNL     1      62.567  46.140 -11.343  0.00  0.00    +0.178 C 
BRANCH   2   3
ATOM      3  C   UNL     1      62.476  47.118 -10.180  0.00  0.00    -0.008 A 
ATOM      4  C   UNL     1      62.150  46.656  -8.885  0.00  0.00    +0.008 A 
ATOM      5  C   UNL     1      62.065  47.552  -7.805  0.00  0.00    +0.020 A 
ATOM      6  C   UNL     1      62.318  48.910  -8.064  0.00  0.00    +0.111 A 
ATOM      7  N   UNL     1      62.639  49.394  -9.304  0.00  0.00    -0.263 NA
ATOM      8  C   UNL     1      62.714  48.503 -10.343  0.00  0.00    +0.116 A 
ENDBRANCH   2   3
ENDBRANCH   1   2
BRANCH  17  18
ATOM     18  C   UNL     1      65.249  43.861  -7.804  0.00  0.00    +0.144 C 
BRANCH  18  19
ATOM     19  C   UNL     1      65.610  42.874  -6.697  0.00  0.00    +0.051 C 
BRANCH  19  20
ATOM     20  C   UNL     1      66.476  43.582  -5.661  0.00  0.00    +0.161 C 
BRANCH  20  21
ATOM     21  O   UNL     1      67.797  43.611  -6.117  0.00  0.00    -0.383 OA
ATOM     22  C   UNL     1      68.632  44.680  -5.782  0.00  0.00    +0.193 C 
ENDBRANCH  20  21
ENDBRANCH  19  20
ENDBRANCH  18  19
ENDBRANCH  17  18
TORSDOF 8
