REMARK  Name = 3o23_ligand
REMARK  6 active torsions:
REMARK  status: ('A' for Active; 'I' for Inactive)
REMARK    1  A    between atoms: N1_1  and  C2_2
REMARK    2  A    between atoms: N7_7  and  C13_13
REMARK    3  A    between atoms: C9_9  and  C14_14
REMARK    4  A    between atoms: C13_13  and  C16_16
REMARK    5  A    between atoms: C15_15  and  S17_17
REMARK    6  A    between atoms: S17_17  and  C20_20
REMARK                            x       y       z     vdW  Elec       q    Type
REMARK                         _______ _______ _______ _____ _____    ______ ____
ROOT
ATOM      1  N   UNL     1       6.893  -0.077  22.632  0.00  0.00    -0.116 N 
ATOM      2  C   UNL     1       5.899  -0.028  23.563  0.00  0.00    +0.257 C 
ATOM      3  O   UNL     1       5.474  -0.950  24.269  0.00  0.00    -0.374 OA
ATOM      4  C   UNL     1       5.351   1.410  23.600  0.00  0.00    +0.226 C 
ATOM      5  C   UNL     1       3.856   1.408  23.222  0.00  0.00    +0.060 C 
ATOM      6  N   UNL     1       6.205   2.027  22.586  0.00  0.00    -0.213 N 
ATOM     18  C   UNL     1       7.082   1.136  22.051  0.00  0.00    +0.324 C 
ATOM     19  O   UNL     1       7.905   1.398  21.176  0.00  0.00    -0.382 OA
ENDROOT
BRANCH   1  20
ATOM     20  C   UNL     1       7.607  -1.223  22.333  0.00  0.00    +0.096 A 
ATOM     21  C   UNL     1       9.006  -1.325  22.606  0.00  0.00    +0.018 A 
ATOM     22  C   UNL     1       9.711  -2.509  22.286  0.00  0.00    +0.011 A 
ATOM     23  C   UNL     1       9.017  -3.596  21.689  0.00  0.00    +0.084 A 
ATOM     31  C   UNL     1       7.635  -3.506  21.419  0.00  0.00    +0.011 A 
ATOM     32  C   UNL     1       6.937  -2.330  21.736  0.00  0.00    +0.018 A 
BRANCH  23  24
ATOM     24  S   UNL     1       9.876  -5.088  21.263  0.00  0.00    +0.085 S 
ATOM     25  O   UNL     1       8.965  -6.192  21.354  0.00  0.00    -0.163 OA
ATOM     26  O   UNL     1      11.100  -5.150  21.998  0.00  0.00    -0.163 OA
BRANCH  24  27
ATOM     27  C   UNL     1      10.301  -4.883  19.531  0.00  0.00    +0.525 C 
ATOM     28  F   UNL     1       9.188  -4.698  18.826  0.00  0.00    -0.150 F 
ATOM     29  F   UNL     1      11.103  -3.829  19.424  0.00  0.00    -0.150 F 
ATOM     30  F   UNL     1      10.936  -5.969  19.144  0.00  0.00    -0.150 F 
ENDBRANCH  24  27
ENDBRANCH  23  24
ENDBRANCH   1  20
BRANCH   6   7
ATOM      7  C   UNL     1       6.079   3.454  22.228  0.00  0.00    +0.229 C 
BRANCH   7   8
ATOM      8  C   UNL     1       7.013   4.433  22.952  0.00  0.00    +0.009 A 
ATOM      9  C   UNL     1       7.974   3.997  23.922  0.00  0.00    +0.031 A 
ATOM     10  C   UNL     1       8.807   4.945  24.556  0.00  0.00    +0.082 A 
ATOM     11  N   UNL     1       8.738   6.277  24.280  0.00  0.00    -0.309 NA
ATOM     12  C   UNL     1       7.831   6.786  23.351  0.00  0.00    +0.038 A 
ATOM     13  C   UNL     1       7.753   8.184  23.055  0.00  0.00    +0.020 A 
ATOM     14  C   UNL     1       6.818   8.675  22.100  0.00  0.00    +0.007 A 
ATOM     15  C   UNL     1       5.947   7.776  21.424  0.00  0.00    +0.005 A 
ATOM     16  C   UNL     1       6.001   6.382  21.695  0.00  0.00    +0.019 A 
ATOM     17  C   UNL     1       6.942   5.855  22.658  0.00  0.00    +0.014 A 
ENDBRANCH   7   8
ENDBRANCH   6   7
TORSDOF 5
