REMARK  Name = 5HBE
REMARK  5 active torsions:
REMARK  status: ('A' for Active; 'I' for Inactive)
REMARK    1  A    between atoms: C_6  and  N_16
REMARK    2  A    between atoms: C_9  and  C_10
REMARK    3  A    between atoms: S_23  and  O_24
REMARK    4  A    between atoms: S_23  and  O_25
REMARK    5  A    between atoms: N_26  and  C_27
REMARK                            x       y       z     vdW  Elec       q    Type
REMARK                         _______ _______ _______ _____ _____    ______ ____
ROOT
ATOM      7  C   UNL     1      -6.308  11.315 -11.169  0.00  0.00    +0.059 A 
ATOM      8  C   UNL     1      -6.205  10.828  -9.833  0.00  0.00    +0.023 A 
ATOM     23  C   UNL     1      -6.951   9.720  -9.445  0.00  0.00    +0.121 A 
ATOM     24  N   UNL     1      -7.751   9.114 -10.303  0.00  0.00    -0.261 NA
ATOM     25  C   UNL     1      -7.874   9.534 -11.554  0.00  0.00    +0.132 A 
ATOM     26  C   UNL     1      -7.174  10.627 -12.037  0.00  0.00    +0.081 A 
ATOM     27 CL   UNL     1      -7.419  11.089 -13.694  0.00  0.00    -0.080 Cl
ENDROOT
BRANCH   7   6
ATOM      1  C   UNL     1      -3.892  16.501 -14.266  0.00  0.00    +0.401 C 
ATOM      2  O   UNL     1      -4.979  15.766 -14.064  0.00  0.00    -0.442 OA
ATOM      3  C   UNL     1      -4.692  14.785 -13.038  0.00  0.00    +0.133 C 
ATOM      4  C   UNL     1      -5.825  14.855 -12.021  0.00  0.00    +0.068 C 
ATOM      5  C   UNL     1      -5.741  13.745 -10.971  0.00  0.00    +0.109 C 
ATOM      6  N   UNL     1      -5.560  12.423 -11.593  0.00  0.00    -0.328 N 
ATOM     28  C   UNL     1      -4.505  12.285 -12.613  0.00  0.00    +0.109 C 
ATOM     29  C   UNL     1      -4.588  13.397 -13.665  0.00  0.00    +0.068 C 
ATOM     30  C   UNL     1      -3.347  15.232 -12.432  0.00  0.00    +0.155 C 
ATOM     31  N   UNL     1      -2.907  16.264 -13.382  0.00  0.00    -0.277 N 
ATOM     32  H   UNL     1      -1.954  16.750 -13.372  0.00  0.00    +0.152 HD
ATOM     33  O   UNL     1      -3.819  17.300 -15.175  0.00  0.00    -0.227 OA
ENDBRANCH   7   6
BRANCH   8   9
ATOM      9  C   UNL     1      -5.319  11.477  -8.844  0.00  0.00    -0.014 A 
ATOM     10  C   UNL     1      -5.824  12.086  -7.690  0.00  0.00    +0.010 A 
ATOM     11  C   UNL     1      -4.964  12.695  -6.802  0.00  0.00    +0.025 A 
ATOM     12  C   UNL     1      -3.567  12.723  -7.035  0.00  0.00    +0.053 A 
ATOM     13  N   UNL     1      -2.621  13.332  -6.201  0.00  0.00    -0.233 N 
ATOM     14  C   UNL     1      -2.836  13.821  -4.840  0.00  0.00    +0.155 C 
ATOM     15  S   UNL     1      -1.209  13.449  -7.067  0.00  0.00    -0.118 S 
ATOM     20  C   UNL     1      -1.589  12.218  -8.341  0.00  0.00    +0.192 C 
ATOM     21  C   UNL     1      -3.092  12.122  -8.189  0.00  0.00    -0.004 A 
ATOM     22  C   UNL     1      -3.951  11.510  -9.081  0.00  0.00    +0.015 A 
BRANCH  15  16
ATOM     16  O   UNL     1      -1.235  14.752  -7.624  0.00  0.00    -0.281 OA
ATOM     17  H   UNL     1      -0.521  14.820  -8.391  0.00  0.00    +0.242 HD
ENDBRANCH  15  16
BRANCH  15  18
ATOM     18  O   UNL     1      -0.166  13.003  -6.220  0.00  0.00    -0.281 OA
ATOM     19  H   UNL     1      -0.455  12.111  -5.748  0.00  0.00    +0.242 HD
ENDBRANCH  15  18
ENDBRANCH   8   9
TORSDOF 4
