REMARK  Name = 5L0N
REMARK  5 active torsions:
REMARK  status: ('A' for Active; 'I' for Inactive)
REMARK    1  A    between atoms: C_3  and  N_15
REMARK    2  A    between atoms: S_7  and  P_8
REMARK    3  A    between atoms: P_8  and  O_13
REMARK    4  A    between atoms: O_12  and  C_20
REMARK    5  A    between atoms: N_18  and  C_23
REMARK                            x       y       z     vdW  Elec       q    Type
REMARK                         _______ _______ _______ _____ _____    ______ ____
ROOT
ATOM     12  C   UNL     1       6.593  58.037  18.227  0.00  0.00    +0.253 C 
ATOM     13  C   UNL     1       5.381  58.161  19.339  0.00  0.00    +0.196 C 
ATOM     14  C   UNL     1       5.283  59.431  19.647  0.00  0.00    +0.191 C 
ATOM     15  O   UNL     1       4.035  59.996  20.028  0.00  0.00    -0.303 OA
ATOM     16  P   UNL     1       4.015  61.673  20.365  0.00  0.00    +0.292 P 
ATOM     19  O   UNL     1       4.729  62.338  18.929  0.00  0.00    -0.309 OA
ATOM     20  C   UNL     1       6.044  61.710  18.532  0.00  0.00    +0.204 C 
ATOM     23  C   UNL     1       5.841  60.240  18.259  0.00  0.00    +0.179 C 
ATOM     26  O   UNL     1       6.881  59.549  17.920  0.00  0.00    -0.346 OA
ENDROOT
BRANCH  12   9
ATOM      1  N   UNL     1      10.170  57.453  21.907  0.00  0.00    -0.176 NA
ATOM      2  C   UNL     1       9.162  58.459  21.840  0.00  0.00    +0.195 C 
ATOM      6  N   UNL     1       8.238  58.529  20.744  0.00  0.00    -0.312 NA
ATOM      7  H   UNL     1       7.623  59.130  20.713  0.00  0.00    +0.170 HD
ATOM      8  C   UNL     1       8.374  57.521  19.693  0.00  0.00    +0.148 C 
ATOM      9  N   UNL     1       7.654  57.384  18.591  0.00  0.00    -0.287 NA
ATOM     10  C   UNL     1       8.150  56.281  17.934  0.00  0.00    +0.203 C 
ATOM     11  N   UNL     1       9.194  55.780  18.629  0.00  0.00    -0.229 NA
ATOM     27  C   UNL     1       9.329  56.540  19.722  0.00  0.00    +0.172 C 
ATOM     28  C   UNL     1      10.309  56.475  20.904  0.00  0.00    +0.302 C 
ATOM     29  O   UNL     1      11.162  55.628  21.002  0.00  0.00    -0.263 OA
BRANCH   2   3
ATOM      3  N   UNL     1       9.063  59.439  22.868  0.00  0.00    -0.329 NA
ATOM      4  H   UNL     1       8.295  59.633  23.204  0.00  0.00    +0.145 HD
ATOM      5  H   UNL     1       9.770  59.838  23.152  0.00  0.00    +0.145 HD
ENDBRANCH   2   3
ENDBRANCH  12   9
BRANCH  16  17
ATOM     17  O   UNL     1       4.998  61.924  21.577  0.00  0.00    -0.327 OA
ATOM     18  H   UNL     1       4.563  62.245  22.233  0.00  0.00    +0.219 HD
ENDBRANCH  16  17
BRANCH  16  21
ATOM     21  S   UNL     1       2.212  62.263  20.490  0.00  0.00    -0.074 S 
ATOM     22  H   UNL     1       1.584  62.030  19.330  0.00  0.00    +0.113 HD
ENDBRANCH  16  21
BRANCH  13  24
ATOM     24  O   UNL     1       4.137  57.722  18.688  0.00  0.00    -0.385 OA
ATOM     25  H   UNL     1       4.274  56.988  18.281  0.00  0.00    +0.210 HD
ENDBRANCH  13  24
TORSDOF 5
