REMARK  Name = 4rfz_ligand
REMARK  11 active torsions:
REMARK  status: ('A' for Active; 'I' for Inactive)
REMARK    1  A    between atoms: C2_2  and  N9_9
REMARK    2  A    between atoms: C4_4  and  C24_24
REMARK    3  A    between atoms: N6_6  and  C7_7
REMARK    4  A    between atoms: N9_9  and  C10_10
REMARK    5  A    between atoms: C13_13  and  C16_16
REMARK    6  A    between atoms: C28_28  and  N31_31
REMARK    7  A    between atoms: C29_29  and  C30_30
REMARK    8  A    between atoms: C30_30  and  O45_45
REMARK    9  A    between atoms: C38_38  and  N41_41
REMARK   10  A    between atoms: N41_41  and  C42_42
REMARK   11  A    between atoms: N41_41  and  C43_43
REMARK                            x       y       z     vdW  Elec       q    Type
REMARK                         _______ _______ _______ _____ _____    ______ ____
ROOT
ATOM      1  C   UNL     1      22.029   5.182   1.188  0.00  0.00    +0.242 A 
ATOM      2  O   UNL     1      21.006   4.821   0.592  0.00  0.00    -0.408 OA
ATOM      3  N   UNL     1      21.952   5.328   2.567  0.00  0.00    -0.213 N 
ATOM      4  C   UNL     1      20.638   5.128   3.147  0.00  0.00    +0.238 C 
ATOM      5  C   UNL     1      23.031   5.705   3.295  0.00  0.00    +0.173 A 
ATOM      6  C   UNL     1      24.256   5.949   2.750  0.00  0.00    -0.019 A 
ATOM     31  C   UNL     1      24.368   5.823   1.304  0.00  0.00    -0.004 A 
ATOM     32  C   UNL     1      23.263   5.443   0.612  0.00  0.00    +0.124 A 
ENDROOT
BRANCH   6   7
ATOM      7  C   UNL     1      25.417   6.309   3.549  0.00  0.00    -0.043 A 
ATOM      8  C   UNL     1      25.348   7.308   4.589  0.00  0.00    +0.013 A 
ATOM     12  C   UNL     1      26.491   7.510   5.326  0.00  0.00    +0.103 A 
ATOM     28  C   UNL     1      27.705   6.893   5.084  0.00  0.00    +0.005 A 
ATOM     29  C   UNL     1      27.785   5.924   4.047  0.00  0.00    -0.032 A 
ATOM     30  C   UNL     1      26.637   5.665   3.340  0.00  0.00    -0.037 A 
BRANCH  12  13
ATOM     13  N   UNL     1      26.442   8.529   6.360  0.00  0.00    -0.171 N 
ATOM     14  C   UNL     1      26.132   8.123   7.617  0.00  0.00    +0.241 A 
ATOM     15  O   UNL     1      26.038   6.920   7.908  0.00  0.00    -0.390 OA
ATOM     16  C   UNL     1      25.890   9.159   8.614  0.00  0.00    +0.074 A 
ATOM     17  C   UNL     1      25.523   8.966   9.931  0.00  0.00    +0.135 A 
ATOM     18  F   UNL     1      25.441   7.670  10.385  0.00  0.00    -0.183 F 
ATOM     19  C   UNL     1      25.250   9.934  10.873  0.00  0.00    +0.032 A 
ATOM     20  C   UNL     1      25.232  11.266  10.429  0.00  0.00    +0.032 A 
ATOM     24  C   UNL     1      25.563  11.564   9.116  0.00  0.00    -0.012 A 
ATOM     25  C   UNL     1      25.887  10.517   8.210  0.00  0.00    -0.047 A 
ATOM     26  C   UNL     1      26.248  10.869   6.843  0.00  0.00    -0.018 A 
ATOM     27  C   UNL     1      26.491   9.859   5.987  0.00  0.00    +0.184 A 
BRANCH  20  21
ATOM     21  N   UNL     1      24.888  12.261  11.309  0.00  0.00    -0.315 N 
ATOM     22  C   UNL     1      25.067  12.069  12.744  0.00  0.00    +0.159 C 
ATOM     23  C   UNL     1      24.517  13.606  10.800  0.00  0.00    +0.159 C 
ENDBRANCH  20  21
ENDBRANCH  12  13
BRANCH   8   9
ATOM      9  C   UNL     1      24.114   8.133   4.819  0.00  0.00    +0.213 C 
BRANCH   9  10
ATOM     10  O   UNL     1      23.393   7.609   5.950  0.00  0.00    -0.385 OA
ATOM     11  H   UNL     1      22.612   8.130   6.096  0.00  0.00    +0.212 HD
ENDBRANCH   9  10
ENDBRANCH   8   9
ENDBRANCH   6   7
BRANCH  32  33
ATOM     33  N   UNL     1      23.225   5.234  -0.819  0.00  0.00    -0.262 N 
ATOM     34  H   UNL     1      22.301   5.017  -1.218  0.00  0.00    +0.212 HD
BRANCH  33  35
ATOM     35  C   UNL     1      24.259   5.288  -1.706  0.00  0.00    +0.134 A 
ATOM     36  N   UNL     1      25.462   5.617  -1.366  0.00  0.00    -0.276 NA
ATOM     37  C   UNL     1      26.467   5.638  -2.260  0.00  0.00    +0.101 A 
ATOM     38  C   UNL     1      26.247   5.270  -3.597  0.00  0.00    +0.063 A 
ATOM     47  C   UNL     1      24.950   4.944  -3.963  0.00  0.00    +0.040 A 
ATOM     48  C   UNL     1      23.939   4.904  -3.040  0.00  0.00    +0.056 A 
BRANCH  38  39
ATOM     39  C   UNL     1      27.350   5.309  -4.569  0.00  0.00    +0.205 C 
ATOM     40  N   UNL     1      28.491   4.588  -4.390  0.00  0.00    -0.269 N 
ATOM     41  C   UNL     1      28.718   3.684  -3.237  0.00  0.00    +0.166 C 
ATOM     42  C   UNL     1      30.189   3.507  -2.874  0.00  0.00    +0.184 C 
ATOM     43  O   UNL     1      31.129   3.553  -4.009  0.00  0.00    -0.376 OA
ATOM     44  C   UNL     1      30.931   4.698  -4.860  0.00  0.00    +0.184 C 
ATOM     45  C   UNL     1      29.537   4.631  -5.500  0.00  0.00    +0.166 C 
ATOM     46  O   UNL     1      27.150   5.990  -5.567  0.00  0.00    -0.388 OA
ENDBRANCH  38  39
ENDBRANCH  33  35
ENDBRANCH  32  33
TORSDOF 8
