REMARK  Name = 4IWQ
REMARK  9 active torsions:
REMARK  status: ('A' for Active; 'I' for Inactive)
REMARK    1  A    between atoms: C_4  and  C_5
REMARK    2  A    between atoms: N_7  and  C_8
REMARK    3  A    between atoms: C_8  and  C_9
REMARK    4  A    between atoms: C_9  and  C_10
REMARK    5  A    between atoms: C_10  and  N_11
REMARK    6  A    between atoms: C_14  and  C_15
REMARK    7  A    between atoms: N_21  and  C_22
REMARK    8  A    between atoms: C_27  and  C_28
REMARK    9  A    between atoms: C_28  and  N_29
REMARK                            x       y       z     vdW  Elec       q    Type
REMARK                         _______ _______ _______ _____ _____    ______ ____
ROOT
ATOM      9  N   UNL     1       0.216 -30.265 -14.176  0.00  0.00    -0.329 N 
ATOM     10  H   UNL     1       0.573 -31.049 -14.810  0.00  0.00    +0.147 HD
ATOM     11  C   UNL     1      -1.245 -30.144 -14.423  0.00  0.00    +0.127 A 
ATOM     12  C   UNL     1      -1.746 -30.229 -15.711  0.00  0.00    +0.014 A 
ATOM     13  C   UNL     1      -3.116 -30.114 -15.906  0.00  0.00    +0.121 A 
ATOM     14  N   UNL     1      -3.942 -29.923 -14.851  0.00  0.00    -0.222 NA
ATOM     15  C   UNL     1      -3.450 -29.838 -13.583  0.00  0.00    +0.221 A 
ATOM     16  N   UNL     1      -4.389 -29.631 -12.499  0.00  0.00    -0.284 N 
ATOM     17  H   UNL     1      -5.128 -30.395 -12.627  0.00  0.00    +0.155 HD
ATOM     34  N   UNL     1      -2.077 -29.952 -13.383  0.00  0.00    -0.199 NA
ENDROOT
BRANCH  16  18
ATOM     18  C   UNL     1      -4.098 -29.625 -11.056  0.00  0.00    +0.034 A 
ATOM     19  C   UNL     1      -2.829 -29.893 -10.532  0.00  0.00    +0.023 A 
ATOM     20  C   UNL     1      -2.619 -29.875  -9.140  0.00  0.00    +0.002 A 
ATOM     21  C   UNL     1      -3.677 -29.594  -8.271  0.00  0.00    +0.005 A 
ATOM     22  C   UNL     1      -4.948 -29.319  -8.783  0.00  0.00    -0.032 A 
ATOM     30  C   UNL     1      -5.151 -29.345 -10.179  0.00  0.00    +0.028 A 
BRANCH  22  23
ATOM     23  C   UNL     1      -6.109 -29.023  -7.841  0.00  0.00    +0.120 C 
BRANCH  23  24
ATOM     24  N   UNL     1      -6.413 -27.593  -7.663  0.00  0.00    -0.294 NA
ATOM     25  C   UNL     1      -6.907 -26.982  -8.876  0.00  0.00    +0.113 C 
ATOM     26  C   UNL     1      -6.894 -25.481  -8.828  0.00  0.00    +0.175 C 
ATOM     27  O   UNL     1      -6.648 -24.966  -7.583  0.00  0.00    -0.377 OA
ATOM     28  C   UNL     1      -5.510 -25.417  -6.975  0.00  0.00    +0.175 C 
ATOM     29  C   UNL     1      -5.266 -26.880  -7.140  0.00  0.00    +0.113 C 
ENDBRANCH  23  24
ENDBRANCH  22  23
ENDBRANCH  16  18
BRANCH  12  31
ATOM     31  C   UNL     1      -0.770 -30.444 -16.867  0.00  0.00    +0.024 C 
ATOM     32  C   UNL     1      -0.750 -31.815 -17.317  0.00  0.00    +0.009 C 
ATOM     33  C   UNL     1      -1.473 -30.724 -18.098  0.00  0.00    +0.009 C 
ENDBRANCH  12  31
BRANCH   9   8
ATOM      8  C   UNL     1       0.708 -30.554 -12.831  0.00  0.00    +0.104 C 
BRANCH   8   7
ATOM      7  C   UNL     1       1.173 -31.996 -12.753  0.00  0.00    +0.037 C 
BRANCH   7   6
ATOM      6  C   UNL     1       1.651 -32.451 -14.101  0.00  0.00    +0.105 C 
BRANCH   6   4
ATOM      3  C   UNL     1       3.407 -31.861 -15.698  0.00  0.00    +0.216 C 
ATOM      4  N   UNL     1       2.919 -31.814 -14.416  0.00  0.00    -0.315 N 
ATOM      5  H   UNL     1       3.471 -31.310 -13.650  0.00  0.00    +0.149 HD
ATOM     35  O   UNL     1       2.994 -32.104 -16.961  0.00  0.00    -0.276 OA
BRANCH   3   2
ATOM      1  C   UNL     1       5.237 -31.008 -14.432  0.00  0.00    +0.012 C 
ATOM      2  C   UNL     1       4.852 -31.544 -15.696  0.00  0.00    +0.075 C 
ATOM     36  C   UNL     1       5.095 -30.355 -16.454  0.00  0.00    +0.012 C 
ATOM     37  C   UNL     1       5.593 -29.705 -15.159  0.00  0.00    +0.001 C 
ENDBRANCH   3   2
ENDBRANCH   6   4
ENDBRANCH   7   6
ENDBRANCH   8   7
ENDBRANCH   9   8
TORSDOF 9
