REMARK  Name = 6F1W
REMARK  7 active torsions:
REMARK  status: ('A' for Active; 'I' for Inactive)
REMARK    1  A    between atoms: C11_8  and  C38_29
REMARK    2  A    between atoms: C13_10  and  C14_11
REMARK    3  A    between atoms: C17_12  and  N16_39
REMARK    4  A    between atoms: C21_15  and  C23_17
REMARK    5  A    between atoms: C24_18  and  C35_26
REMARK    6  A    between atoms: C27_19  and  C28_20
REMARK    7  A    between atoms: C41_32  and  O42_46
REMARK                            x       y       z     vdW  Elec       q    Type
REMARK                         _______ _______ _______ _____ _____    ______ ____
ROOT
ATOM      7  C   UNL     1     -18.071 -35.750  -9.546  0.00  0.00    +0.600 C 
ATOM      8  O   UNL     1     -18.904 -36.502  -9.754  0.00  0.00    -0.550 OA
ATOM      9  N   UNL     1     -17.936 -35.161  -8.391  0.00  0.00    -0.350 NA
ENDROOT
BRANCH   7   6
ATOM      1  C   UNL     1     -15.500 -36.151 -13.726  0.00  0.00    +0.000 C 
ATOM      2  N   UNL     1     -16.502 -37.041 -14.278  0.00  0.00    -0.300 NA
ATOM      3  C   UNL     1     -17.782 -37.221 -13.637  0.00  0.00    +0.050 C 
ATOM      4  C   UNL     1     -17.661 -37.252 -12.140  0.00  0.00    +0.000 C 
ATOM      5  N   UNL     1     -16.924 -36.114 -11.709  0.00  0.00    -0.200 NA
ATOM      6  C   UNL     1     -17.089 -35.448 -10.610  0.00  0.00    +0.050 C 
ATOM     31  C   UNL     1     -16.163 -34.442 -10.563  0.00  0.00    -0.100 C 
ATOM     32  C   UNL     1     -15.406 -34.504 -11.661  0.00  0.00    +0.000 C 
ATOM     41  C   UNL     1     -18.291 -38.534 -14.199  0.00  0.00    +0.200 C 
ATOM     42  O   UNL     1     -19.641 -38.406 -14.575  0.00  0.00    -0.650 OA
ATOM     43  C   UNL     1     -17.406 -38.836 -15.369  0.00  0.00    +0.200 C 
ATOM     44  O   UNL     1     -17.912 -38.192 -16.523  0.00  0.00    -0.650 OA
ATOM     45  C   UNL     1     -16.088 -38.226 -14.987  0.00  0.00    +0.000 C 
ATOM     46  C   UNL     1     -15.961 -35.619 -12.406  0.00  0.00    +0.050 C 
BRANCH  32  33
ATOM     33  C   UNL     1     -14.329 -33.598 -12.103  0.00  0.00    +0.000 A 
ATOM     34  C   UNL     1     -14.601 -32.262 -12.041  0.00  0.00    -0.130 A 
ATOM     35  C   UNL     1     -13.693 -31.347 -12.483  0.00  0.00    -0.130 A 
ATOM     36  C   UNL     1     -12.492 -31.792 -12.988  0.00  0.00    +0.185 A 
ATOM     39  C   UNL     1     -12.203 -33.139 -13.065  0.00  0.00    -0.130 A 
ATOM     40  C   UNL     1     -13.139 -34.037 -12.637  0.00  0.00    -0.130 A 
BRANCH  36  37
ATOM     37  O   UNL     1     -11.589 -30.899 -13.421  0.00  0.00    -0.365 OA
ATOM     38  C   UNL     1     -11.967 -29.558 -13.567  0.00  0.00    +0.030 C 
ENDBRANCH  36  37
ENDBRANCH  32  33
ENDBRANCH   7   6
BRANCH   9  10
ATOM     10  C   UNL     1     -18.642 -35.339  -7.283  0.00  0.00    +0.430 A 
ATOM     11  N   UNL     1     -18.201 -34.749  -6.196  0.00  0.00    -0.760 NA
ATOM     12  C   UNL     1     -18.784 -34.890  -5.085  0.00  0.00    +0.250 A 
ATOM     13  C   UNL     1     -19.898 -35.682  -4.947  0.00  0.00    -0.130 A 
ATOM     14  C   UNL     1     -20.418 -36.320  -6.027  0.00  0.00    +0.000 A 
ATOM     30  C   UNL     1     -19.739 -36.141  -7.209  0.00  0.00    -0.130 A 
BRANCH  14  15
ATOM     15  C   UNL     1     -21.600 -37.222  -5.901  0.00  0.00    +0.050 A 
ATOM     16  C   UNL     1     -22.715 -37.243  -5.087  0.00  0.00    +0.100 A 
ATOM     17  N   UNL     1     -23.468 -38.308  -5.335  0.00  0.00    -0.100 NA
ATOM     18  O   UNL     1     -22.910 -38.980  -6.265  0.00  0.00    +0.000 OA
ATOM     26  C   UNL     1     -21.785 -38.434  -6.655  0.00  0.00    -0.050 A 
BRANCH  16  19
ATOM     19  C   UNL     1     -23.137 -36.239  -4.128  0.00  0.00    +0.000 A 
ATOM     20  C   UNL     1     -23.078 -34.931  -4.512  0.00  0.00    -0.130 A 
ATOM     21  C   UNL     1     -23.463 -33.943  -3.676  0.00  0.00    -0.130 A 
ATOM     22  C   UNL     1     -23.954 -34.271  -2.465  0.00  0.00    +0.300 A 
ATOM     23  F   UNL     1     -24.337 -33.371  -1.647  0.00  0.00    -0.300 F 
ATOM     24  C   UNL     1     -24.046 -35.591  -2.108  0.00  0.00    -0.130 A 
ATOM     25  C   UNL     1     -23.667 -36.569  -2.938  0.00  0.00    -0.130 A 
ENDBRANCH  16  19
BRANCH  26  27
ATOM     27  C   UNL     1     -21.035 -39.089  -7.704  0.00  0.00    -0.050 C 
ATOM     28  C   UNL     1     -21.085 -40.576  -7.521  0.00  0.00    -0.150 C 
ATOM     29  C   UNL     1     -21.534 -38.729  -9.061  0.00  0.00    -0.150 C 
ENDBRANCH  26  27
ENDBRANCH  14  15
ENDBRANCH   9  10
TORSDOF 7
