REMARK  Name = 1wcc_ligand
REMARK  1 active torsions:
REMARK  status: ('A' for Active; 'I' for Inactive)
REMARK    1  A    between atoms: N01_1  and  C02_2
REMARK                            x       y       z     vdW  Elec       q    Type
REMARK                         _______ _______ _______ _____ _____    ______ ____
ROOT
ATOM      4  C   UNL     1      27.787   6.277  64.762  0.00  0.00    +0.136 A 
ATOM      5  N   UNL     1      26.798   5.809  63.953  0.00  0.00    -0.246 NA
ATOM      6  C   UNL     1      26.468   4.493  63.960  0.00  0.00    +0.132 A 
ATOM      7 CL   UNL     1      25.235   3.899  62.943  0.00  0.00    -0.034 Cl
ATOM      8  C   UNL     1      27.128   3.579  64.773  0.00  0.00    +0.121 A 
ATOM      9  N   UNL     1      28.101   4.089  65.555  0.00  0.00    -0.288 NA
ATOM     10  C   UNL     1      28.510   5.382  65.635  0.00  0.00    +0.136 A 
ENDROOT
BRANCH   4   1
ATOM      1  N   UNL     1      28.090   7.628  64.721  0.00  0.00    -0.316 N 
ATOM      2  H   UNL     1      27.571   8.253  64.088  0.00  0.00    +0.179 HD
ATOM      3  H   UNL     1      28.834   8.007  65.323  0.00  0.00    +0.179 HD
ENDBRANCH   4   1
TORSDOF 1
