REMARK  Name = BW8
REMARK  8 active torsions:
REMARK  status: ('A' for Active; 'I' for Inactive)
REMARK    1  A    between atoms: C14_1  and  N18_27
REMARK    2  A    between atoms: C24_4  and  S28_34
REMARK    3  A    between atoms: C03_9  and  C04_10
REMARK    4  A    between atoms: C06_12  and  O10_29
REMARK    5  A    between atoms: C11_15  and  O10_29
REMARK    6  A    between atoms: C21_19  and  N20_28
REMARK    7  A    between atoms: C29_21  and  C30_22
REMARK    8  A    between atoms: C29_21  and  S28_34
REMARK                            x       y       z     vdW  Elec       q    Type
REMARK                         _______ _______ _______ _____ _____    ______ ____
ROOT
ATOM      1  C   UNL     1       7.503   0.909  -0.659  0.00  0.00    +0.102 A 
ATOM     18  C   UNL     1       6.885   2.087  -0.296  0.00  0.00    +0.158 A 
ATOM     19  F   UNL     1       5.834   2.041   0.578  0.00  0.00    -0.203 F 
ATOM     20  C   UNL     1       7.326   3.293  -0.815  0.00  0.00    +0.068 A 
ATOM     21  C   UNL     1       8.401   3.316  -1.687  0.00  0.00    +0.148 A 
ATOM     22  C   UNL     1       9.015   2.128  -2.064  0.00  0.00    +0.039 A 
ATOM     34  C   UNL     1       8.571   0.920  -1.545  0.00  0.00    +0.022 A 
ENDROOT
BRANCH   1   2
ATOM      2  N   UNL     1       6.969  -0.301  -0.068  0.00  0.00    -0.158 NA
ATOM      3  C   UNL     1       7.741  -1.472   0.291  0.00  0.00    +0.348 C 
ATOM      4  N   UNL     1       6.971  -2.558   0.875  0.00  0.00    -0.161 NA
ATOM     17  O   UNL     1       8.911  -1.526   0.109  0.00  0.00    -0.248 OA
BRANCH   4   5
ATOM      5  C   UNL     1       7.486  -3.834   1.342  0.00  0.00    +0.077 A 
ATOM      6  C   UNL     1       6.572  -4.817   1.679  0.00  0.00    +0.017 A 
ATOM      7  C   UNL     1       7.012  -6.041   2.142  0.00  0.00    +0.010 A 
ATOM      8  C   UNL     1       8.368  -6.278   2.282  0.00  0.00    +0.053 A 
ATOM     14  C   UNL     1       9.288  -5.297   1.955  0.00  0.00    +0.147 A 
ATOM     15  F   UNL     1      10.628  -5.529   2.090  0.00  0.00    -0.204 F 
ATOM     16  C   UNL     1       8.843  -4.071   1.491  0.00  0.00    +0.047 A 
BRANCH   8   9
ATOM      9  S   UNL     1       8.926  -7.896   2.891  0.00  0.00    -0.100 S 
BRANCH   9  10
ATOM     10  C   UNL     1       9.841  -8.700   1.543  0.00  0.00    +0.176 C 
BRANCH  10  11
ATOM     11  C   UNL     1       9.035  -8.579   0.249  0.00  0.00    +0.376 C 
ATOM     12  O   UNL     1       7.861  -9.029   0.191  0.00  0.00    -0.245 OA
ATOM     13  O   UNL     1       9.544  -8.027  -0.763  0.00  0.00    -0.245 OA
ENDBRANCH  10  11
ENDBRANCH   9  10
ENDBRANCH   8   9
ENDBRANCH   4   5
ENDBRANCH   1   2
BRANCH  21  23
ATOM     23  O   UNL     1       8.803   4.547  -2.219  0.00  0.00    -0.453 OA
BRANCH  23  24
ATOM     24  C   UNL     1      10.049   5.059  -1.831  0.00  0.00    +0.148 A 
ATOM     25  C   UNL     1      10.619   4.873  -0.581  0.00  0.00    +0.058 A 
ATOM     26  C   UNL     1      11.852   5.445  -0.300  0.00  0.00    +0.102 A 
ATOM     27  N   UNL     1      12.499   6.175  -1.194  0.00  0.00    -0.239 NA
ATOM     28  C   UNL     1      11.980   6.379  -2.392  0.00  0.00    +0.139 A 
ATOM     33  C   UNL     1      10.754   5.837  -2.730  0.00  0.00    +0.061 A 
BRANCH  28  29
ATOM     29  C   UNL     1      12.710   7.216  -3.439  0.00  0.00    +0.283 C 
ATOM     30  N   UNL     1      13.989   7.839  -3.154  0.00  0.00    -0.199 NA
ATOM     31  C   UNL     1      14.631   8.623  -4.195  0.00  0.00    +0.139 C 
ATOM     32  O   UNL     1      12.218   7.355  -4.506  0.00  0.00    -0.267 OA
ENDBRANCH  28  29
ENDBRANCH  23  24
ENDBRANCH  21  23
TORSDOF 8
