REMARK  Name = 5ID
REMARK  2 active torsions:
REMARK  status: ('A' for Active; 'I' for Inactive)
REMARK    1  A    between atoms: C5'_2  and  C4'_3
REMARK    2  A    between atoms: C1'_5  and  N9_6
REMARK                            x       y       z     vdW  Elec       q    Type
REMARK                         _______ _______ _______ _____ _____    ______ ____
ROOT
ATOM      8  N   UNL     1      13.249  10.835  13.010  0.00  0.00    -0.286 N 
ATOM      9  C   UNL     1      12.739  11.832  13.804  0.00  0.00    +0.151 A 
ATOM     10  N   UNL     1      13.105  12.109  15.063  0.00  0.00    -0.206 NA
ATOM     11  C   UNL     1      12.409  13.117  15.596  0.00  0.00    +0.202 A 
ATOM     12  N   UNL     1      11.442  13.845  15.041  0.00  0.00    -0.206 NA
ATOM     13  C   UNL     1      11.068  13.561  13.778  0.00  0.00    +0.175 A 
ATOM     14  N   UNL     1      10.079  14.270  13.238  0.00  0.00    -0.107 NA
ATOM     15  C   UNL     1      11.728  12.511  13.090  0.00  0.00    +0.076 A 
ATOM     16  C   UNL     1      11.679  11.883  11.806  0.00  0.00    +0.053 A 
ATOM     17  I   UNL     1      10.479  12.520  10.195  0.00  0.00    -0.041 I 
ATOM     18  C   UNL     1      12.586  10.865  11.798  0.00  0.00    +0.085 A 
ENDROOT
BRANCH   8   7
ATOM      3  C4* UNL     1      14.667   7.991  12.092  0.00  0.00    +0.183 C 
ATOM      4  C3* UNL     1      13.519   7.702  13.064  0.00  0.00    +0.216 C 
ATOM      5  C2* UNL     1      13.789   8.698  14.183  0.00  0.00    +0.234 C 
ATOM      6  O2* UNL     1      14.816   8.281  15.103  0.00  0.00    -0.216 OA
ATOM      7  C1* UNL     1      14.308   9.908  13.397  0.00  0.00    +0.240 C 
ATOM     19  O3* UNL     1      13.537   6.334  13.484  0.00  0.00    -0.218 OA
ATOM     20  O4* UNL     1      14.924   9.412  12.222  0.00  0.00    -0.331 OA
BRANCH   3   2
ATOM      1  O5* UNL     1      13.186   8.078  10.114  0.00  0.00    -0.218 OA
ATOM      2  C5* UNL     1      14.423   7.606  10.652  0.00  0.00    +0.214 C 
ENDBRANCH   3   2
ENDBRANCH   8   7
TORSDOF 2
