REMARK  Name = 5osr
REMARK  3 active torsions:
REMARK  status: ('A' for Active; 'I' for Inactive)
REMARK    1  A    between atoms: C1_1  and  O_17
REMARK    2  A    between atoms: C11_10  and  C12_11
REMARK    3  A    between atoms: C8_15  and  C7_16
REMARK                            x       y       z     vdW  Elec       q    Type
REMARK                         _______ _______ _______ _____ _____    ______ ____
ROOT
ATOM      1  C   UNL     1    -106.329-176.190 308.616  0.00  0.00    +0.082 A 
ATOM      4  C   UNL     1    -107.274-176.080 309.637  0.00  0.00    +0.014 A 
ATOM     14  C   UNL     1    -106.876-176.376 310.939  0.00  0.00    +0.015 A 
ATOM     15  C   UNL     1    -105.583-176.774 311.239  0.00  0.00    -0.050 A 
ATOM     16  C   UNL     1    -105.174-177.065 312.662  0.00  0.00    +0.044 C 
ATOM     17  C   UNL     1    -104.675-176.884 310.199  0.00  0.00    +0.006 A 
ATOM     18  C   UNL     1    -105.035-176.597 308.895  0.00  0.00    +0.034 A 
ENDROOT
BRANCH   4   5
ATOM      5  C   UNL     1    -108.697-175.696 309.394  0.00  0.00    +0.003 A 
ATOM      6  C   UNL     1    -109.698-176.634 309.636  0.00  0.00    +0.011 A 
ATOM      7  C   UNL     1    -111.031-176.313 309.451  0.00  0.00    +0.006 A 
ATOM      8  C   UNL     1    -111.412-175.054 309.018  0.00  0.00    -0.033 A 
ATOM     11  C   UNL     1    -110.420-174.113 308.773  0.00  0.00    +0.026 A 
ATOM     12  C   UNL     1    -109.091-174.432 308.961  0.00  0.00    +0.049 A 
ATOM     13 CL   UNL     1    -107.906-173.203 308.658  0.00  0.00    -0.084 Cl
BRANCH   8   9
ATOM      9  C   UNL     1    -112.855-174.687 308.797  0.00  0.00    +0.113 C 
ATOM     10  N   UNL     1    -113.627-175.675 308.049  0.00  0.00    -0.089 NA
ENDBRANCH   8   9
ENDBRANCH   4   5
BRANCH   1   2
ATOM      2  O   UNL     1    -106.764-175.862 307.364  0.00  0.00    -0.349 OA
ATOM      3  C   UNL     1    -105.833-175.983 306.294  0.00  0.00    +0.203 C 
ENDBRANCH   1   2
TORSDOF 3
