REMARK  Name = 6I5L
REMARK  3 active torsions:
REMARK  status: ('A' for Active; 'I' for Inactive)
REMARK    1  A    between atoms: C4_1  and  C2_18
REMARK    2  A    between atoms: C9_8  and  C11_10
REMARK    3  A    between atoms: C15_14  and  C17_22
REMARK                            x       y       z     vdW  Elec       q    Type
REMARK                         _______ _______ _______ _____ _____    ______ ____
ROOT
ATOM      1  C   UNL     1      15.727  -3.328  35.094  0.00  0.00    +0.100 A 
ATOM      8  N   UNL     1      15.796  -2.654  33.935  0.00  0.00    -0.450 NA
ATOM      9  C   UNL     1      15.830  -3.362  32.801  0.00  0.00    +0.350 A 
ATOM     10  C   UNL     1      15.869  -2.941  31.417  0.00  0.00    +0.050 A 
ATOM     21  C   UNL     1      15.871  -4.080  30.685  0.00  0.00    -0.150 A 
ATOM     22  O   UNL     1      15.818  -5.201  31.484  0.00  0.00    +0.000 OA
ATOM     23  C   UNL     1      15.791  -4.730  32.771  0.00  0.00    +0.000 A 
ATOM     24  C   UNL     1      15.719  -5.423  33.969  0.00  0.00    -0.130 A 
ATOM     25  C   UNL     1      15.688  -4.717  35.156  0.00  0.00    -0.130 A 
ENDROOT
BRANCH   1   2
ATOM      2  C   UNL     1      15.756  -2.499  36.313  0.00  0.00    +0.100 A 
ATOM      3  C   UNL     1      15.729  -1.128  36.376  0.00  0.00    -0.050 A 
ATOM      4  N   UNL     1      15.794  -0.798  37.670  0.00  0.00    -0.150 N 
ATOM      5  C   UNL     1      15.862   0.539  38.242  0.00  0.00    -0.100 C 
ATOM      6  N   UNL     1      15.840  -1.880  38.496  0.00  0.00    -0.100 NA
ATOM      7  C   UNL     1      15.819  -2.908  37.661  0.00  0.00    -0.050 A 
ENDBRANCH   1   2
BRANCH  10  11
ATOM     11  C   UNL     1      15.874  -1.565  30.844  0.00  0.00    +0.000 A 
ATOM     12  C   UNL     1      15.953  -0.456  31.685  0.00  0.00    -0.130 A 
ATOM     13  C   UNL     1      15.863   0.837  31.186  0.00  0.00    +0.000 A 
ATOM     18  C   UNL     1      15.716   1.015  29.813  0.00  0.00    -0.130 A 
ATOM     19  C   UNL     1      15.653  -0.077  28.962  0.00  0.00    -0.130 A 
ATOM     20  C   UNL     1      15.726  -1.362  29.473  0.00  0.00    -0.130 A 
BRANCH  13  14
ATOM     14  C   UNL     1      15.873   2.021  32.131  0.00  0.00    -0.050 C 
ATOM     15  C   UNL     1      15.072   1.993  33.448  0.00  0.00    -0.100 C 
ATOM     16  C   UNL     1      16.277   2.538  34.213  0.00  0.00    -0.100 C 
ATOM     17  C   UNL     1      17.115   2.385  32.925  0.00  0.00    -0.100 C 
ENDBRANCH  13  14
ENDBRANCH  10  11
TORSDOF 3
