REMARK  Name = 3WIK
REMARK  2 active torsions:
REMARK  status: ('A' for Active; 'I' for Inactive)
REMARK    1  A    between atoms: C_2  and  N_16
REMARK    2  A    between atoms: C_8  and  C_9
REMARK                            x       y       z     vdW  Elec       q    Type
REMARK                         _______ _______ _______ _____ _____    ______ ____
ROOT
ATOM      1  C   UNL     1     -11.397   3.451 -12.327  0.00  0.00    +0.016 C 
ATOM      2  C   UNL     1     -11.290   4.813 -12.030  0.00  0.00    +0.009 C 
ATOM      3  C   UNL     1     -11.740   5.784 -12.937  0.00  0.00    +0.006 C 
ATOM      4  C   UNL     1     -11.670   7.145 -12.703  0.00  0.00    +0.105 A 
ATOM      5  S   UNL     1     -11.021   7.727 -11.290  0.00  0.00    -0.033 S 
ATOM      6  C   UNL     1     -11.141   9.366 -11.443  0.00  0.00    +0.186 A 
ATOM      7  N   UNL     1     -11.687   9.513 -12.660  0.00  0.00    -0.150 NA
ATOM      8  N   UNL     1     -10.726  10.388 -10.618  0.00  0.00    -0.264 N 
ATOM      9  H   UNL     1     -10.655  11.349 -11.084  0.00  0.00    +0.157 HD
ATOM     10  C   UNL     1     -10.397  10.360  -9.317  0.00  0.00    +0.216 C 
ATOM     11  C   UNL     1      -9.974  11.677  -8.724  0.00  0.00    +0.109 C 
ATOM     12  O   UNL     1     -10.437   9.357  -8.635  0.00  0.00    -0.276 OA
ATOM     13  N   UNL     1     -12.008   8.257 -13.387  0.00  0.00    -0.268 N 
ATOM     14  H   UNL     1     -12.462   8.237 -14.356  0.00  0.00    +0.190 HD
ATOM     15  C   UNL     1     -12.292   5.413 -14.144  0.00  0.00    +0.009 C 
ATOM     16  C   UNL     1     -12.407   4.067 -14.440  0.00  0.00    +0.016 C 
ATOM     17  C   UNL     1     -11.953   3.103 -13.550  0.00  0.00    +0.194 C 
ENDROOT
BRANCH  17  18
ATOM     18  N   UNL     1     -12.172   1.794 -13.983  0.00  0.00    +0.040 N 
ATOM     19  O   UNL     1     -11.667   0.814 -13.438  0.00  0.00    -0.130 OA
ATOM     20  O   UNL     1     -12.965   1.700 -14.905  0.00  0.00    -0.130 OA
ENDBRANCH  17  18
TORSDOF 1
