REMARK  Name = 3ce3_ligand
REMARK  5 active torsions:
REMARK  status: ('A' for Active; 'I' for Inactive)
REMARK    1  A    between atoms: C18_2  and  C17_3
REMARK    2  A    between atoms: C11_8  and  N15_24
REMARK    3  A    between atoms: C6_18  and  O7_19
REMARK    4  A    between atoms: O7_19  and  C8_20
REMARK    5  A    between atoms: N21_26  and  C26_28
REMARK                            x       y       z     vdW  Elec       q    Type
REMARK                         _______ _______ _______ _____ _____    ______ ____
ROOT
ATOM      1  C   UNL     1      20.129  13.963  56.607  0.00  0.00    +0.153 A 
ATOM      2  F   UNL     1      20.186  12.688  56.062  0.00  0.00    -0.192 F 
ATOM      3  C   UNL     1      19.880  14.003  57.999  0.00  0.00    +0.139 A 
ATOM      4  C   UNL     1      19.831  15.319  58.604  0.00  0.00    +0.009 A 
ATOM      5  C   UNL     1      20.031  16.525  57.852  0.00  0.00    -0.007 A 
ATOM      6  C   UNL     1      20.282  16.396  56.462  0.00  0.00    +0.054 A 
ATOM     36  C   UNL     1      20.322  15.168  55.821  0.00  0.00    +0.032 A 
ENDROOT
BRANCH   6   7
ATOM      7  N   UNL     1      20.483  17.551  55.797  0.00  0.00    -0.246 N 
ATOM      8  H   UNL     1      20.521  18.362  56.381  0.00  0.00    +0.221 HD
ATOM      9  C   UNL     1      20.650  17.817  54.419  0.00  0.00    +0.209 C 
ATOM     10  O   UNL     1      20.508  17.031  53.488  0.00  0.00    -0.395 OA
BRANCH   9  11
ATOM     11  C   UNL     1      20.990  19.203  54.105  0.00  0.00    +0.104 A 
ATOM     12  C   UNL     1      21.097  19.590  52.775  0.00  0.00    +0.021 A 
ATOM     13  C   UNL     1      21.371  20.923  52.398  0.00  0.00    +0.014 A 
ATOM     14  C   UNL     1      21.569  21.942  53.350  0.00  0.00    +0.222 A 
ATOM     15  N   UNL     1      21.496  21.611  54.641  0.00  0.00    -0.158 N 
ATOM     23  C   UNL     1      21.194  20.260  55.165  0.00  0.00    +0.239 A 
ATOM     24  O   UNL     1      21.120  20.056  56.429  0.00  0.00    -0.408 OA
BRANCH  15  16
ATOM     16  C   UNL     1      21.684  22.598  55.570  0.00  0.00    +0.110 A 
ATOM     17  C   UNL     1      22.805  22.598  56.522  0.00  0.00    +0.028 A 
ATOM     18  C   UNL     1      22.982  23.621  57.524  0.00  0.00    +0.024 A 
ATOM     19  C   UNL     1      21.948  24.606  57.470  0.00  0.00    +0.122 A 
ATOM     20  F   UNL     1      22.145  25.462  58.351  0.00  0.00    -0.191 F 
ATOM     21  C   UNL     1      20.833  24.650  56.585  0.00  0.00    +0.024 A 
ATOM     22  C   UNL     1      20.695  23.623  55.609  0.00  0.00    +0.028 A 
ENDBRANCH  15  16
ENDBRANCH   9  11
ENDBRANCH   6   7
BRANCH   3  25
ATOM     25  O   UNL     1      19.723  12.765  58.681  0.00  0.00    -0.260 OA
BRANCH  25  26
ATOM     26  C   UNL     1      20.862  12.285  59.479  0.00  0.00    +0.122 A 
ATOM     27  C   UNL     1      22.240  12.671  59.271  0.00  0.00    +0.032 A 
ATOM     28  C   UNL     1      23.239  12.154  60.126  0.00  0.00    +0.053 A 
ATOM     29  N   UNL     1      22.820  11.267  61.132  0.00  0.00    -0.304 NA
ATOM     30  C   UNL     1      21.549  10.871  61.351  0.00  0.00    +0.124 A 
ATOM     31  N   UNL     1      21.112  10.028  62.329  0.00  0.00    -0.271 N 
ATOM     32  H   UNL     1      21.692   9.562  63.042  0.00  0.00    +0.229 HD
ATOM     33  C   UNL     1      19.686   9.913  62.175  0.00  0.00    +0.113 A 
ATOM     34  C   UNL     1      19.229  10.748  61.060  0.00  0.00    -0.029 A 
ATOM     35  C   UNL     1      20.499  11.333  60.574  0.00  0.00    +0.034 A 
ENDBRANCH  25  26
ENDBRANCH   3  25
TORSDOF 5
