REMARK  Name = 8MZ
REMARK  1 active torsions:
REMARK  status: ('A' for Active; 'I' for Inactive)
REMARK    1  A    between atoms: C5_2  and  C6_3
REMARK                            x       y       z     vdW  Elec       q    Type
REMARK                         _______ _______ _______ _____ _____    ______ ____
ROOT
ATOM      1  C   UNL     1     139.229  -1.728   1.029  0.00  0.00    +0.023 A 
ATOM      2  C   UNL     1     138.157  -2.096   1.832  0.00  0.00    +0.110 A 
ATOM      3  C   UNL     1     138.337  -2.365   3.162  0.00  0.00    +0.102 A 
ATOM      4  C   UNL     1     139.592  -2.234   3.754  0.00  0.00    +0.019 A 
ATOM      5  C   UNL     1     140.660  -1.846   2.960  0.00  0.00    +0.003 A 
ATOM      6  N   UNL     1     137.091  -2.752   3.667  0.00  0.00    -0.127 NA
ATOM      7  C   UNL     1     136.125  -2.716   2.655  0.00  0.00    +0.237 C 
ATOM      8  O   UNL     1     134.939  -3.044   2.720  0.00  0.00    -0.204 OA
ATOM      9  N   UNL     1     136.805  -2.292   1.554  0.00  0.00    -0.161 NA
ATOM     10  C   UNL     1     140.492  -1.606   1.595  0.00  0.00    +0.020 A 
ENDROOT
BRANCH  10  11
ATOM     11  C   UNL     1     141.649  -1.300   0.739  0.00  0.00    +0.090 A 
ATOM     12  C   UNL     1     142.913  -1.021   1.159  0.00  0.00    +0.057 A 
ATOM     13  S   UNL     1     143.981  -0.852  -0.182  0.00  0.00    -0.048 S 
ATOM     14  C   UNL     1     142.639  -1.160  -1.250  0.00  0.00    +0.201 A 
ATOM     15  N   UNL     1     142.816  -1.202  -2.586  0.00  0.00    -0.100 NA
ATOM     16  N   UNL     1     141.493  -1.369  -0.641  0.00  0.00    -0.221 NA
ENDBRANCH  10  11
TORSDOF 1
