REMARK  Name = 5OPB
REMARK  7 active torsions:
REMARK  status: ('A' for Active; 'I' for Inactive)
REMARK    1  A    between atoms: C_1  and  C_4
REMARK    2  A    between atoms: N_2  and  C_14
REMARK    3  A    between atoms: O_6  and  C_22
REMARK    4  A    between atoms: O_6  and  C_23
REMARK    5  A    between atoms: C_11  and  C_13
REMARK    6  A    between atoms: C_16  and  C_18
REMARK    7  A    between atoms: C_23  and  C_24
REMARK                            x       y       z     vdW  Elec       q    Type
REMARK                         _______ _______ _______ _____ _____    ______ ____
ROOT
ATOM      8  C   UNL     1       3.734  -4.432  18.446  0.00  0.00    +0.119 A 
ATOM      9  C   UNL     1       4.892  -4.738  17.679  0.00  0.00    +0.032 A 
ATOM     10  C   UNL     1       5.175  -5.585  16.589  0.00  0.00    +0.058 A 
ATOM     11  C   UNL     1       6.461  -5.586  16.108  0.00  0.00    +0.122 A 
ATOM     12  C   UNL     1       7.471  -4.767  16.632  0.00  0.00    +0.048 A 
ATOM     13  C   UNL     1       7.214  -3.906  17.694  0.00  0.00    +0.031 A 
ATOM     19  C   UNL     1       5.927  -3.930  18.206  0.00  0.00    +0.067 A 
ATOM     20  N   UNL     1       5.365  -3.201  19.200  0.00  0.00    -0.276 N 
ATOM     21  H   UNL     1       5.886  -2.476  19.790  0.00  0.00    +0.189 HD
ATOM     22  N   UNL     1       4.053  -3.513  19.348  0.00  0.00    -0.171 NA
ENDROOT
BRANCH   8   7
ATOM      5  C   UNL     1       0.128  -5.150  18.998  0.00  0.00    +0.125 A 
ATOM      6  C   UNL     1       1.367  -4.624  19.196  0.00  0.00    +0.073 A 
ATOM      7  C   UNL     1       2.377  -4.923  18.312  0.00  0.00    +0.097 A 
ATOM     23  N   UNL     1       2.109  -5.711  17.267  0.00  0.00    -0.234 NA
ATOM     24  C   UNL     1       0.881  -6.113  17.090  0.00  0.00    +0.224 A 
ATOM     25  N   UNL     1      -0.140  -5.910  17.912  0.00  0.00    -0.221 NA
BRANCH   5   4
ATOM      1  C   UNL     1      -4.521  -6.011  20.579  0.00  0.00    +0.039 C 
ATOM      2  C   UNL     1      -3.054  -5.853  20.875  0.00  0.00    +0.133 C 
ATOM      3  C   UNL     1      -2.202  -5.633  19.654  0.00  0.00    +0.137 C 
ATOM      4  N   UNL     1      -0.913  -5.000  19.924  0.00  0.00    -0.310 N 
ATOM     26  C   UNL     1      -0.683  -4.268  21.187  0.00  0.00    +0.137 C 
ATOM     27  C   UNL     1      -1.637  -4.633  22.291  0.00  0.00    +0.133 C 
ATOM     28  C   UNL     1      -1.685  -3.605  23.400  0.00  0.00    +0.039 C 
ATOM     29  O   UNL     1      -2.940  -4.731  21.728  0.00  0.00    -0.371 OA
ENDBRANCH   5   4
ENDBRANCH   8   7
BRANCH  11  14
ATOM     14  O   UNL     1       6.818  -6.400  15.011  0.00  0.00    -0.486 OA
BRANCH  14  15
ATOM     15  C   UNL     1       5.792  -6.849  14.134  0.00  0.00    +0.108 C 
ATOM     16  C   UNL     1       5.002  -8.057  14.473  0.00  0.00    +0.051 C 
ATOM     17  C   UNL     1       6.191  -8.154  13.585  0.00  0.00    +0.051 C 
ATOM     18  C   UNL     1       5.145  -5.724  13.378  0.00  0.00    +0.056 C 
ENDBRANCH  14  15
ENDBRANCH  11  14
TORSDOF 4
