REMARK  Name = 5G1X
REMARK  9 active torsions:
REMARK  status: ('A' for Active; 'I' for Inactive)
REMARK    1  A    between atoms: P_1  and  O_8
REMARK    2  A    between atoms: P_5  and  O_8
REMARK    3  A    between atoms: P_5  and  O_9
REMARK    4  A    between atoms: O_9  and  C_10
REMARK    5  A    between atoms: C_10  and  C_11
REMARK    6  A    between atoms: C_13  and  O_14
REMARK    7  A    between atoms: C_15  and  O_16
REMARK    8  A    between atoms: C_17  and  N_18
REMARK    9  A    between atoms: C_22  and  N_23
REMARK                            x       y       z     vdW  Elec       q    Type
REMARK                         _______ _______ _______ _____ _____    ______ ____
ROOT
ATOM      6  C   UNL     1      44.959 -10.954  41.453  0.00  0.00    +0.178 C 
ATOM      7  C   UNL     1      43.454 -10.756  41.392  0.00  0.00    +0.178 C 
ATOM      8  C   UNL     1      43.320  -9.318  41.837  0.00  0.00    +0.195 C 
ATOM      9  C   UNL     1      44.539  -8.663  41.229  0.00  0.00    +0.253 C 
ATOM     26  O   UNL     1      45.507  -9.691  41.050  0.00  0.00    -0.346 OA
ENDROOT
BRANCH   9  10
ATOM     10  N   UNL     1      44.261  -8.143  39.873  0.00  0.00    -0.285 N 
ATOM     11  C   UNL     1      43.908  -6.895  39.552  0.00  0.00    +0.167 A 
ATOM     12  N   UNL     1      43.656  -5.755  40.244  0.00  0.00    -0.216 NA
ATOM     13  C   UNL     1      43.302  -4.637  39.579  0.00  0.00    +0.225 A 
ATOM     14  N   UNL     1      43.171  -4.551  38.237  0.00  0.00    -0.219 NA
ATOM     15  C   UNL     1      43.379  -5.623  37.437  0.00  0.00    +0.147 A 
ATOM     19  C   UNL     1      43.773  -6.883  38.091  0.00  0.00    +0.147 A 
ATOM     20  N   UNL     1      44.071  -8.117  37.648  0.00  0.00    -0.231 NA
ATOM     21  C   UNL     1      44.363  -8.866  38.737  0.00  0.00    +0.203 A 
BRANCH  15  16
ATOM     16  N   UNL     1      43.259  -5.569  36.092  0.00  0.00    -0.341 N 
ATOM     17  H   UNL     1      42.973  -4.654  35.617  0.00  0.00    +0.144 HD
ATOM     18  H   UNL     1      43.450  -6.441  35.502  0.00  0.00    +0.144 HD
ENDBRANCH  15  16
ENDBRANCH   9  10
BRANCH   8  22
ATOM     22  O   UNL     1      43.511  -9.242  43.256  0.00  0.00    -0.385 OA
ATOM     23  H   UNL     1      42.786  -9.828  43.739  0.00  0.00    +0.210 HD
ENDBRANCH   8  22
BRANCH   7  24
ATOM     24  O   UNL     1      42.758 -11.675  42.243  0.00  0.00    -0.386 OA
ATOM     25  H   UNL     1      42.972 -12.659  41.945  0.00  0.00    +0.210 HD
ENDBRANCH   7  24
BRANCH   6   5
ATOM      5  C   UNL     1      45.455 -12.082  40.554  0.00  0.00    +0.202 C 
BRANCH   5   4
ATOM      4  O   UNL     1      45.126 -11.810  39.194  0.00  0.00    -0.325 OA
BRANCH   4   3
ATOM      3  P   UNL     1      44.655 -12.989  38.197  0.00  0.00    +0.215 P 
ATOM     27  O   UNL     1      43.388 -13.585  38.752  0.00  0.00    -0.437 OA
ATOM     28  O   UNL     1      44.589 -12.418  36.811  0.00  0.00    -0.517 OA
BRANCH   3   2
ATOM      2  O   UNL     1      45.867 -14.032  38.362  0.00  0.00    -0.314 OA
BRANCH   2   1
ATOM      1  P   UNL     1      45.797 -15.652  38.414  0.00  0.00    -0.007 P 
ATOM     29  O   UNL     1      44.718 -15.981  39.425  0.00  0.00    -0.577 OA
ATOM     30  O   UNL     1      45.512 -16.082  36.993  0.00  0.00    -0.577 OA
ATOM     31  O   UNL     1      47.182 -16.029  38.835  0.00  0.00    -0.637 OA
ENDBRANCH   2   1
ENDBRANCH   3   2
ENDBRANCH   4   3
ENDBRANCH   5   4
ENDBRANCH   6   5
TORSDOF 9
