REMARK  Name = IRE
REMARK  14 active torsions:
REMARK  status: ('A' for Active; 'I' for Inactive)
REMARK    1  A    between atoms: NBE_6  and  CAN_7
REMARK    2  A    between atoms: CAN_7  and  CAJ_8
REMARK    3  A    between atoms: CAJ_8  and  CAK_9
REMARK    4  A    between atoms: CAK_9  and  OAV_10
REMARK    5  A    between atoms: OAV_10  and  CBA_11
REMARK    6  A    between atoms: CAZ_12  and  OAT_14
REMARK    7  A    between atoms: NAS_23  and  CAY_24
REMARK    8  A    between atoms: NBE_37  and  CAN_38
REMARK    9  A    between atoms: CAN_38  and  CAJ_39
REMARK   10  A    between atoms: CAJ_39  and  CAK_40
REMARK   11  A    between atoms: CAK_40  and  OAV_41
REMARK   12  A    between atoms: OAV_41  and  CBA_42
REMARK   13  A    between atoms: CAZ_43  and  OAT_45
REMARK   14  A    between atoms: NAS_54  and  CAY_55
REMARK                            x       y       z     vdW  Elec       q    Type
REMARK                         _______ _______ _______ _____ _____    ______ ____
ROOT
ATOM     11  C   UNL     1     -24.798  -1.382  31.397  0.00  0.00    +0.172 A 
ATOM     12  C   UNL     1     -25.746  -0.422  31.774  0.00  0.00    +0.044 A 
ATOM     13  C   UNL     1     -25.774   0.955  31.339  0.00  0.00    +0.054 A 
ATOM     14  C   UNL     1     -26.782   1.976  31.741  0.00  0.00    +0.155 A 
ATOM     15  N   UNL     1     -27.867   1.672  32.635  0.00  0.00    -0.194 NA
ATOM     24  N   UNL     1     -26.690   3.245  31.253  0.00  0.00    -0.207 NA
ATOM     25  C   UNL     1     -25.635   3.535  30.385  0.00  0.00    +0.200 A 
ATOM     26  N   UNL     1     -24.683   2.688  29.969  0.00  0.00    -0.224 NA
ATOM     27  C   UNL     1     -24.744   1.366  30.448  0.00  0.00    +0.089 A 
ATOM     28  C   UNL     1     -23.757   0.387  30.048  0.00  0.00    +0.059 A 
ATOM     29  C   UNL     1     -23.756  -0.928  30.484  0.00  0.00    +0.174 A 
ENDROOT
BRANCH  15  16
ATOM     16  C   UNL     1     -28.916   2.528  33.231  0.00  0.00    +0.073 A 
ATOM     17  C   UNL     1     -29.921   1.989  34.054  0.00  0.00    +0.019 A 
ATOM     18  C   UNL     1     -30.920   2.777  34.627  0.00  0.00    +0.032 A 
ATOM     19  C   UNL     1     -30.996   4.156  34.428  0.00  0.00    +0.151 A 
ATOM     20  F   UNL     1     -31.929   4.853  34.968  0.00  0.00    -0.203 F 
ATOM     21  C   UNL     1     -30.001   4.718  33.607  0.00  0.00    +0.086 A 
ATOM     22 CL   UNL     1     -30.057   6.436  33.330  0.00  0.00    -0.080 Cl
ATOM     23  C   UNL     1     -29.007   3.925  33.039  0.00  0.00    +0.030 A 
ENDBRANCH  15  16
BRANCH  29  30
ATOM     30  O   UNL     1     -22.794  -1.846  30.082  0.00  0.00    -0.468 OA
ATOM     31  C   UNL     1     -21.679  -1.390  29.296  0.00  0.00    +0.253 C 
ENDBRANCH  29  30
BRANCH  11  10
ATOM     10  O   UNL     1     -24.885  -2.686  31.891  0.00  0.00    -0.472 OA
BRANCH  10   9
ATOM      9  C   UNL     1     -26.143  -3.194  32.407  0.00  0.00    +0.207 C 
BRANCH   9   8
ATOM      8  C   UNL     1     -26.109  -4.708  32.761  0.00  0.00    +0.065 C 
BRANCH   8   7
ATOM      7  C   UNL     1     -25.585  -5.522  31.544  0.00  0.00    +0.076 C 
BRANCH   7   6
ATOM      1  C   UNL     1     -26.233  -7.464  32.732  0.00  0.00    +0.105 C 
ATOM      2  C   UNL     1     -25.701  -8.722  33.411  0.00  0.00    +0.160 C 
ATOM      3  O   UNL     1     -24.444  -9.071  32.854  0.00  0.00    -0.351 OA
ATOM      4  C   UNL     1     -24.491  -9.104  31.445  0.00  0.00    +0.160 C 
ATOM      5  C   UNL     1     -24.792  -7.708  30.896  0.00  0.00    +0.105 C 
ATOM      6  N   UNL     1     -25.070  -6.830  32.075  0.00  0.00    -0.268 NA
ENDBRANCH   7   6
ENDBRANCH   8   7
ENDBRANCH   9   8
ENDBRANCH  10   9
ENDBRANCH  11  10
TORSDOF 7
