REMARK  Name = 4e6c_ligand
REMARK  8 active torsions:
REMARK  status: ('A' for Active; 'I' for Inactive)
REMARK    1  A    between atoms: C1_1  and  O14_15
REMARK    2  A    between atoms: C7_6  and  N4_16
REMARK    3  A    between atoms: C8_7  and  N4_16
REMARK    4  A    between atoms: C13_8  and  C15_9
REMARK    5  A    between atoms: C13_8  and  O12_14
REMARK    6  A    between atoms: C15_9  and  C16_10
REMARK    7  A    between atoms: P9_12  and  O12_14
REMARK    8  A    between atoms: P9_12  and  O14_15
REMARK                            x       y       z     vdW  Elec       q    Type
REMARK                         _______ _______ _______ _____ _____    ______ ____
ROOT
ATOM      1  C   UNL     1       3.974   6.732   2.672  0.00  0.00    +0.170 C 
ATOM     10  C   UNL     1       2.853   7.176   1.724  0.00  0.00    +0.088 C 
ATOM     11  C   UNL     1       1.521   6.438   1.876  0.00  0.00    +0.135 C 
ATOM     12  N   UNL     1       1.097   6.269   3.307  0.00  0.00    +0.239 N 
ATOM     13  C   UNL     1       0.011   5.255   3.308  0.00  0.00    +0.192 C 
ATOM     14  C   UNL     1       0.625   7.574   3.899  0.00  0.00    +0.192 C 
ATOM     15  C   UNL     1       2.175   5.743   4.200  0.00  0.00    +0.135 C 
ATOM     16  C   UNL     1       3.551   5.589   3.566  0.00  0.00    +0.088 C 
ENDROOT
BRANCH   1   2
ATOM      2  O   UNL     1       5.036   6.193   1.917  0.00  0.00    -0.250 OA
BRANCH   2   3
ATOM      3  P   UNL     1       4.798   5.154   0.656  0.00  0.00    +0.255 P 
ATOM      8  O   UNL     1       3.463   5.596   0.044  0.00  0.00    -0.618 OA
ATOM      9  O   UNL     1       4.972   3.701   1.149  0.00  0.00    -0.618 OA
BRANCH   3   4
ATOM      4  O   UNL     1       5.786   5.436  -0.628  0.00  0.00    -0.254 OA
BRANCH   4   5
ATOM      5  C   UNL     1       5.984   4.326  -1.517  0.00  0.00    +0.207 C 
BRANCH   5   6
ATOM      6  C   UNL     1       7.037   4.462  -2.624  0.00  0.00    +0.030 C 
ATOM      7  C   UNL     1       7.249   3.053  -3.157  0.00  0.00    +0.006 C 
ENDBRANCH   5   6
ENDBRANCH   4   5
ENDBRANCH   3   4
ENDBRANCH   2   3
ENDBRANCH   1   2
TORSDOF 5
