REMARK  Name = 1uu3_ligand
REMARK  4 active torsions:
REMARK  status: ('A' for Active; 'I' for Inactive)
REMARK    1  A    between atoms: CBF_31  and  CBG_32
REMARK    2  A    between atoms: CBG_32  and  NBH_33
REMARK    3  A    between atoms: NBH_33  and  CBI_34
REMARK    4  A    between atoms: NBH_33  and  CBJ_35
REMARK                            x       y       z     vdW  Elec       q    Type
REMARK                         _______ _______ _______ _____ _____    ______ ____
ROOT
ATOM      1  C   UNL     1      23.059  81.731  26.868  0.00  0.00    +0.069 C 
ATOM      2  C   UNL     1      22.386  81.641  28.239  0.00  0.00    +0.166 C 
ATOM      8  O   UNL     1      23.396  81.368  29.222  0.00  0.00    -0.368 OA
ATOM      9  C   UNL     1      24.091  82.524  29.751  0.00  0.00    +0.193 C 
ATOM     10  C   UNL     1      24.874  81.952  30.942  0.00  0.00    +0.203 C 
ATOM     11  N   UNL     1      26.165  81.460  30.385  0.00  0.00    -0.257 N 
ATOM     12  C   UNL     1      27.327  82.104  30.257  0.00  0.00    +0.071 A 
ATOM     13  C   UNL     1      27.694  83.406  30.656  0.00  0.00    +0.014 A 
ATOM     14  C   UNL     1      28.997  83.846  30.415  0.00  0.00    -0.021 A 
ATOM     15  C   UNL     1      29.913  82.993  29.778  0.00  0.00    -0.026 A 
ATOM     16  C   UNL     1      29.568  81.698  29.375  0.00  0.00    -0.017 A 
ATOM     17  C   UNL     1      28.235  81.245  29.633  0.00  0.00    -0.013 A 
ATOM     18  C   UNL     1      27.539  80.040  29.364  0.00  0.00    -0.005 A 
ATOM     19  C   UNL     1      27.920  78.853  28.656  0.00  0.00    +0.044 C 
ATOM     20  C   UNL     1      29.211  78.268  28.503  0.00  0.00    +0.224 C 
ATOM     21  N   UNL     1      29.196  77.202  27.729  0.00  0.00    -0.204 N 
ATOM     22  H   UNL     1      29.977  76.618  27.506  0.00  0.00    +0.220 HD
ATOM     23  C   UNL     1      27.916  77.044  27.289  0.00  0.00    +0.224 C 
ATOM     24  O   UNL     1      27.600  76.118  26.514  0.00  0.00    -0.372 OA
ATOM     25  O   UNL     1      30.255  78.709  29.007  0.00  0.00    -0.372 OA
ATOM     26  C   UNL     1      27.056  78.051  27.841  0.00  0.00    +0.044 C 
ATOM     27  C   UNL     1      25.670  78.216  27.471  0.00  0.00    -0.005 A 
ATOM     28  C   UNL     1      24.669  77.295  27.167  0.00  0.00    -0.013 A 
ATOM     29  C   UNL     1      24.597  75.867  27.300  0.00  0.00    -0.017 A 
ATOM     30  C   UNL     1      23.411  75.190  26.923  0.00  0.00    -0.026 A 
ATOM     31  C   UNL     1      22.346  75.938  26.414  0.00  0.00    -0.021 A 
ATOM     32  C   UNL     1      22.396  77.345  26.297  0.00  0.00    +0.014 A 
ATOM     33  C   UNL     1      23.569  78.022  26.687  0.00  0.00    +0.071 A 
ATOM     34  N   UNL     1      23.855  79.307  26.698  0.00  0.00    -0.259 N 
ATOM     35  C   UNL     1      25.176  79.425  27.087  0.00  0.00    +0.142 A 
ATOM     36  C   UNL     1      26.284  80.224  29.857  0.00  0.00    +0.143 A 
ATOM     37  C   UNL     1      23.050  80.408  26.142  0.00  0.00    +0.178 C 
ENDROOT
BRANCH   2   3
ATOM      3  C   UNL     1      21.457  80.414  28.401  0.00  0.00    +0.163 C 
BRANCH   3   4
ATOM      4  N   UNL     1      20.668  80.424  29.678  0.00  0.00    +0.233 N 
ATOM      5  H   UNL     1      20.498  81.375  29.966  0.00  0.00    +0.203 HD
ATOM      6  C   UNL     1      21.358  79.660  30.750  0.00  0.00    +0.190 C 
ATOM      7  C   UNL     1      19.406  79.690  29.482  0.00  0.00    +0.190 C 
ENDBRANCH   3   4
ENDBRANCH   2   3
TORSDOF 2
