REMARK  Name = 6HV0
REMARK  3 active torsions:
REMARK  status: ('A' for Active; 'I' for Inactive)
REMARK    1  A    between atoms: CAL_2  and  NAK_4
REMARK    2  A    between atoms: NAK_4  and  CAD_5
REMARK    3  A    between atoms: CAI_14  and  CAO_15
REMARK                            x       y       z     vdW  Elec       q    Type
REMARK                         _______ _______ _______ _____ _____    ______ ____
ROOT
ATOM      4  C   UNL     1      -4.424  33.992  26.381  0.00  0.00    +0.000 A 
ATOM      5  C   UNL     1      -4.683  32.603  26.768  0.00  0.00    +0.300 A 
ATOM      6  N   UNL     1      -4.293  31.336  26.360  0.00  0.00    -0.300 NA
ATOM      7  C   UNL     1      -4.930  30.343  27.182  0.00  0.00    -0.050 A 
ATOM      8  C   UNL     1      -5.777  30.999  28.169  0.00  0.00    +0.050 A 
ATOM     18  N   UNL     1      -5.583  32.369  27.872  0.00  0.00    -0.100 N 
ATOM     19  N   UNL     1      -6.206  33.366  28.581  0.00  0.00    -0.380 NA
ATOM     20  C   UNL     1      -5.937  34.632  28.187  0.00  0.00    +0.580 A 
ATOM     21 CL   UNL     1      -6.806  35.886  29.178  0.00  0.00    -0.200 Cl
ATOM     22  C   UNL     1      -5.068  34.987  27.116  0.00  0.00    -0.130 A 
ENDROOT
BRANCH   8   9
ATOM      9  C   UNL     1      -6.607  30.360  29.217  0.00  0.00    +0.000 A 
ATOM     10  C   UNL     1      -7.145  29.012  29.009  0.00  0.00    -0.130 A 
ATOM     11  C   UNL     1      -7.931  28.371  29.982  0.00  0.00    -0.130 A 
ATOM     12  C   UNL     1      -8.231  29.012  31.211  0.00  0.00    +0.200 A 
ATOM     13  N   UNL     1      -8.972  28.650  32.367  0.00  0.00    -0.500 NA
ATOM     14  N   UNL     1      -8.918  29.702  33.256  0.00  0.00    -0.100 NA
ATOM     15  C   UNL     1      -8.194  30.668  32.728  0.00  0.00    -0.050 A 
ATOM     16  C   UNL     1      -7.716  30.314  31.418  0.00  0.00    +0.050 A 
ATOM     17  C   UNL     1      -6.919  30.954  30.419  0.00  0.00    -0.130 A 
ENDBRANCH   8   9
BRANCH   4   3
ATOM      3  N   UNL     1      -3.552  34.368  25.308  0.00  0.00    -0.550 NA
BRANCH   3   2
ATOM      1  C   UNL     1      -4.175  35.844  23.386  0.00  0.00    -0.150 C 
ATOM      2  C   UNL     1      -3.503  35.758  24.771  0.00  0.00    +0.150 C 
ATOM     23  C   UNL     1      -2.021  36.127  24.538  0.00  0.00    -0.150 C 
ENDBRANCH   3   2
ENDBRANCH   4   3
TORSDOF 3
