REMARK  Name = 4Q1D
REMARK  14 active torsions:
REMARK  status: ('A' for Active; 'I' for Inactive)
REMARK    1  A    between atoms: C_2  and  C_3
REMARK    2  A    between atoms: C_3  and  O_4
REMARK    3  A    between atoms: O_4  and  C_5
REMARK    4  A    between atoms: C_7  and  O_8
REMARK    5  A    between atoms: O_8  and  C_9
REMARK    6  A    between atoms: C_12  and  C_13
REMARK    7  A    between atoms: C_16  and  C_17
REMARK    8  A    between atoms: C_17  and  C_18
REMARK    9  A    between atoms: C_18  and  C_19
REMARK   10  A    between atoms: C_20  and  C_21
REMARK   11  A    between atoms: C_21  and  C_22
REMARK   12  A    between atoms: C_21  and  S_23
REMARK   13  A    between atoms: S_23  and  C_24
REMARK   14  A    between atoms: C_30  and  N_31
REMARK                            x       y       z     vdW  Elec       q    Type
REMARK                         _______ _______ _______ _____ _____    ______ ____
ROOT
ATOM     10  C   UNL     1      12.318  32.994  -4.110  0.00  0.00    +0.109 A 
ATOM     11  S   UNL     1      13.269  32.565  -5.410  0.00  0.00    -0.072 S 
ATOM     12  C   UNL     1      13.355  30.942  -4.898  0.00  0.00    +0.014 A 
ATOM     13  C   UNL     1      12.652  30.834  -3.725  0.00  0.00    +0.065 A 
ATOM     32  N   UNL     1      12.073  31.955  -3.298  0.00  0.00    -0.243 NA
ENDROOT
BRANCH  10   9
ATOM      5  C   UNL     1      10.174  35.734  -2.999  0.00  0.00    +0.163 A 
ATOM      6  C   UNL     1      10.962  36.832  -3.340  0.00  0.00    +0.162 A 
ATOM      7  C   UNL     1      12.209  36.641  -3.937  0.00  0.00    +0.050 A 
ATOM      8  C   UNL     1      12.648  35.355  -4.190  0.00  0.00    +0.014 A 
ATOM      9  C   UNL     1      11.841  34.278  -3.861  0.00  0.00    +0.011 A 
ATOM     35  C   UNL     1      10.607  34.441  -3.257  0.00  0.00    +0.060 A 
BRANCH   6  33
ATOM     33  O   UNL     1      10.448  38.095  -3.052  0.00  0.00    -0.491 OA
ATOM     34  C   UNL     1      10.998  39.196  -3.812  0.00  0.00    +0.277 C 
ENDBRANCH   6  33
BRANCH   5   4
ATOM      4  O   UNL     1       8.932  35.972  -2.409  0.00  0.00    -0.486 OA
BRANCH   4   3
ATOM      3  C   UNL     1       8.873  35.436  -1.089  0.00  0.00    +0.262 C 
BRANCH   3   2
ATOM      1  F   UNL     1       7.364  35.175   0.649  0.00  0.00    -0.246 F 
ATOM      2  C   UNL     1       7.503  35.833  -0.551  0.00  0.00    +0.254 C 
ENDBRANCH   3   2
ENDBRANCH   4   3
ENDBRANCH   5   4
ENDBRANCH  10   9
BRANCH  13  14
ATOM     14  C   UNL     1      12.485  29.519  -2.989  0.00  0.00    +0.101 C 
ATOM     28  C   UNL     1      12.629  29.693  -1.478  0.00  0.00    +0.026 C 
BRANCH  14  15
ATOM     15  S   UNL     1      10.877  28.934  -3.499  0.00  0.00    -0.076 S 
BRANCH  15  16
ATOM     16  C   UNL     1      11.168  27.268  -3.825  0.00  0.00    +0.192 A 
ATOM     17  N   UNL     1      12.427  26.902  -3.943  0.00  0.00    -0.207 NA
ATOM     18  C   UNL     1      12.737  25.631  -4.188  0.00  0.00    +0.122 A 
ATOM     19  C   UNL     1      11.725  24.668  -4.329  0.00  0.00    +0.086 A 
ATOM     20  C   UNL     1      10.415  25.084  -4.178  0.00  0.00    +0.122 A 
ATOM     24  N   UNL     1      14.039  25.304  -4.307  0.00  0.00    -0.343 N 
ATOM     25  H   UNL     1      14.320  24.291  -4.504  0.00  0.00    +0.144 HD
ATOM     26  H   UNL     1      14.791  26.058  -4.205  0.00  0.00    +0.144 HD
ATOM     27  N   UNL     1      10.162  26.391  -3.943  0.00  0.00    -0.207 NA
BRANCH  20  21
ATOM     21  N   UNL     1       9.403  24.170  -4.294  0.00  0.00    -0.343 N 
ATOM     22  H   UNL     1       9.630  23.141  -4.480  0.00  0.00    +0.144 HD
ATOM     23  H   UNL     1       8.385  24.484  -4.199  0.00  0.00    +0.144 HD
ENDBRANCH  20  21
ENDBRANCH  15  16
ENDBRANCH  14  15
ENDBRANCH  13  14
BRANCH  12  29
ATOM     29  C   UNL     1      14.090  29.810  -5.566  0.00  0.00    +0.044 C 
BRANCH  29  30
ATOM     30  C   UNL     1      15.553  30.213  -5.598  0.00  0.00    +0.002 C 
ATOM     31  C   UNL     1      16.036  30.441  -4.142  0.00  0.00    +0.004 C 
ENDBRANCH  29  30
ENDBRANCH  12  29
TORSDOF 11
