REMARK  Name = 5T1T
REMARK  6 active torsions:
REMARK  status: ('A' for Active; 'I' for Inactive)
REMARK    1  A    between atoms: C_4  and  O_11
REMARK    2  A    between atoms: C_8  and  N_12
REMARK    3  A    between atoms: O_11  and  C_13
REMARK    4  A    between atoms: C_16  and  N_19
REMARK    5  A    between atoms: N_19  and  C_20
REMARK    6  A    between atoms: N_19  and  C_21
REMARK                            x       y       z     vdW  Elec       q    Type
REMARK                         _______ _______ _______ _____ _____    ______ ____
ROOT
ATOM      1  N   UNL     1      31.064   5.195  -8.386  0.00  0.00    -0.235 NA
ATOM      2  C   UNL     1      31.460   6.235  -9.184  0.00  0.00    +0.078 A 
ATOM      3  C   UNL     1      32.422   5.979 -10.183  0.00  0.00    +0.031 A 
ATOM      4  C   UNL     1      32.848   6.967 -11.018  0.00  0.00    +0.035 A 
ATOM      5  C   UNL     1      32.326   8.239 -10.862  0.00  0.00    +0.127 A 
ATOM      9  C   UNL     1      31.402   8.556  -9.911  0.00  0.00    +0.048 A 
ATOM     10  C   UNL     1      30.941   7.550  -9.047  0.00  0.00    +0.064 A 
ATOM     11  C   UNL     1      30.005   7.718  -7.969  0.00  0.00    +0.226 A 
ATOM     22  N   UNL     1      29.679   6.701  -7.142  0.00  0.00    -0.201 NA
ATOM     23  C   UNL     1      30.210   5.509  -7.425  0.00  0.00    +0.225 A 
ENDROOT
BRANCH   5   6
ATOM      6  N   UNL     1      32.819   9.305 -11.730  0.00  0.00    +0.057 N 
ATOM      7  O   UNL     1      32.127  10.308 -11.870  0.00  0.00    -0.126 OA
ATOM      8  O   UNL     1      33.930   9.175 -12.229  0.00  0.00    -0.126 OA
ENDBRANCH   5   6
BRANCH  11  12
ATOM     12  O   UNL     1      29.494   8.963  -7.827  0.00  0.00    -0.473 OA
BRANCH  12  13
ATOM     13  C   UNL     1      28.682   9.291  -6.657  0.00  0.00    +0.175 C 
ATOM     14  C   UNL     1      27.845  10.482  -7.062  0.00  0.00    +0.046 C 
ATOM     15  C   UNL     1      27.047  10.996  -5.865  0.00  0.00    +0.022 C 
ATOM     16  C   UNL     1      27.967  11.303  -4.676  0.00  0.00    +0.056 C 
ATOM     20  C   UNL     1      28.840  10.112  -4.297  0.00  0.00    +0.022 C 
ATOM     21  C   UNL     1      29.620   9.631  -5.519  0.00  0.00    +0.046 C 
BRANCH  16  17
ATOM     17  N   UNL     1      27.140  11.735  -3.448  0.00  0.00    -0.305 NA
ATOM     18  C   UNL     1      26.042  10.863  -3.010  0.00  0.00    +0.105 C 
ATOM     19  C   UNL     1      26.730  13.145  -3.476  0.00  0.00    +0.105 C 
ENDBRANCH  16  17
ENDBRANCH  12  13
ENDBRANCH  11  12
TORSDOF 4
