REMARK  Name = 4CFF
REMARK  5 active torsions:
REMARK  status: ('A' for Active; 'I' for Inactive)
REMARK    1  A    between atoms: C_4  and  N_34
REMARK    2  A    between atoms: C_5  and  O_32
REMARK    3  A    between atoms: C_6  and  C_7
REMARK    4  A    between atoms: O_32  and  C_33
REMARK    5  A    between atoms: N_34  and  C_35
REMARK                            x       y       z     vdW  Elec       q    Type
REMARK                         _______ _______ _______ _____ _____    ______ ____
ROOT
ATOM      1  O   UNL     1     -26.321   2.673 200.825  0.00  0.00    -0.328 OA
ATOM      2  C   UNL     1     -25.221   2.883 199.991  0.00  0.00    +0.174 C 
ATOM      3  N   UNL     1     -23.981   3.223 200.714  0.00  0.00    -0.307 N 
ATOM      4  C   UNL     1     -22.649   2.945 200.396  0.00  0.00    +0.053 A 
ATOM      5  C   UNL     1     -22.031   2.270 199.333  0.00  0.00    +0.026 A 
ATOM      6  C   UNL     1     -20.650   2.160 199.325  0.00  0.00    +0.002 A 
ATOM      7  C   UNL     1     -19.863   2.698 200.323  0.00  0.00    +0.001 A 
ATOM      8  C   UNL     1     -20.429   3.373 201.386  0.00  0.00    +0.010 A 
ATOM      9  C   UNL     1     -21.819   3.486 201.408  0.00  0.00    +0.008 A 
ATOM     10  C   UNL     1     -22.694   4.129 202.379  0.00  0.00    +0.015 A 
ATOM     11  C   UNL     1     -22.464   4.816 203.560  0.00  0.00    -0.008 A 
ATOM     12  C   UNL     1     -21.200   5.168 204.302  0.00  0.00    +0.141 C 
ATOM     13  N   UNL     1     -21.619   5.909 205.493  0.00  0.00    -0.307 N 
ATOM     14  H   UNL     1     -20.968   6.310 206.242  0.00  0.00    +0.149 HD
ATOM     15  C   UNL     1     -22.957   6.000 205.486  0.00  0.00    +0.245 C 
ATOM     16  O   UNL     1     -23.608   6.559 206.344  0.00  0.00    -0.270 OA
ATOM     17  C   UNL     1     -23.518   5.333 204.301  0.00  0.00    +0.052 A 
ATOM     18  C   UNL     1     -24.846   5.158 203.843  0.00  0.00    +0.022 A 
ATOM     19  C   UNL     1     -26.163   5.551 204.342  0.00  0.00    +0.009 A 
ATOM     20  C   UNL     1     -26.558   6.258 205.479  0.00  0.00    +0.010 A 
ATOM     21  C   UNL     1     -27.916   6.459 205.651  0.00  0.00    +0.001 A 
ATOM     22  C   UNL     1     -28.846   5.985 204.743  0.00  0.00    +0.002 A 
ATOM     23  C   UNL     1     -28.475   5.282 203.610  0.00  0.00    +0.026 A 
ATOM     24  C   UNL     1     -27.112   5.067 203.414  0.00  0.00    +0.052 A 
ATOM     25  N   UNL     1     -26.406   4.418 202.407  0.00  0.00    -0.312 N 
ATOM     26  C   UNL     1     -25.076   4.464 202.651  0.00  0.00    +0.077 A 
ATOM     27  C   UNL     1     -24.001   3.943 201.909  0.00  0.00    +0.077 A 
ATOM     28  C   UNL     1     -25.120   1.503 199.348  0.00  0.00    +0.069 C 
ATOM     29  C   UNL     1     -25.474   3.854 198.852  0.00  0.00    +0.187 C 
ATOM     32  C   UNL     1     -26.974   4.158 198.809  0.00  0.00    +0.091 C 
ATOM     36  C   UNL     1     -27.340   4.786 200.160  0.00  0.00    +0.076 C 
ATOM     37  C   UNL     1     -27.034   3.784 201.262  0.00  0.00    +0.224 C 
ENDROOT
BRANCH  32  33
ATOM     33  N   UNL     1     -27.274   5.093 197.715  0.00  0.00    -0.314 NA
ATOM     34  H   UNL     1     -26.619   5.938 197.766  0.00  0.00    +0.122 HD
ATOM     35  C   UNL     1     -27.066   4.372 196.450  0.00  0.00    +0.101 C 
ENDBRANCH  32  33
BRANCH  29  30
ATOM     30  O   UNL     1     -24.814   5.078 199.174  0.00  0.00    -0.374 OA
ATOM     31  C   UNL     1     -23.948   5.402 198.087  0.00  0.00    +0.194 C 
ENDBRANCH  29  30
TORSDOF 2
