REMARK  Name = 5VT1
REMARK  5 active torsions:
REMARK  status: ('A' for Active; 'I' for Inactive)
REMARK    1  A    between atoms: C_2  and  C_24
REMARK    2  A    between atoms: C_3  and  O_18
REMARK    3  A    between atoms: C_4  and  C_6
REMARK    4  A    between atoms: C_5  and  N_21
REMARK    5  A    between atoms: N_12  and  C_14
REMARK                            x       y       z     vdW  Elec       q    Type
REMARK                         _______ _______ _______ _____ _____    ______ ____
ROOT
ATOM      7  N   UNL     1      25.122  55.132  28.612  0.00  0.00    -0.296 N 
ATOM      8  H   UNL     1      25.255  55.692  29.256  0.00  0.00    +0.154 HD
ATOM      9  C   UNL     1      25.922  54.025  28.625  0.00  0.00    +0.184 A 
ATOM     10  N   UNL     1      25.921  53.270  27.524  0.00  0.00    -0.173 NA
ATOM     11  S   UNL     1      26.852  51.904  27.425  0.00  0.00    +0.119 S 
ATOM     12  N   UNL     1      27.543  51.678  28.852  0.00  0.00    -0.173 NA
ATOM     13  C   UNL     1      27.589  52.640  29.762  0.00  0.00    +0.184 A 
ATOM     14  N   UNL     1      28.366  52.379  30.827  0.00  0.00    -0.296 N 
ATOM     15  H   UNL     1      28.265  52.897  31.503  0.00  0.00    +0.154 HD
ATOM     27  C   UNL     1      26.713  53.741  29.765  0.00  0.00    +0.260 A 
ATOM     28  O   UNL     1      26.576  54.413  30.812  0.00  0.00    -0.281 OA
ENDROOT
BRANCH   7   2
ATOM      1  C   UNL     1      23.663  56.826  27.751  0.00  0.00    +0.069 A 
ATOM      2  C   UNL     1      24.056  55.496  27.742  0.00  0.00    +0.036 A 
ATOM      3  C   UNL     1      23.403  54.591  26.915  0.00  0.00    +0.024 A 
ATOM      4  C   UNL     1      22.371  55.016  26.098  0.00  0.00    +0.009 A 
ATOM      5  C   UNL     1      21.964  56.348  26.091  0.00  0.00    -0.009 A 
ATOM      6  C   UNL     1      20.823  56.809  25.228  0.00  0.00    +0.047 C 
ATOM     29  C   UNL     1      22.613  57.241  26.945  0.00  0.00    +0.122 A 
BRANCH  29  30
ATOM     30  O   UNL     1      22.226  58.543  27.000  0.00  0.00    -0.506 OA
ATOM     31  H   UNL     1      21.656  58.620  27.636  0.00  0.00    +0.292 HD
ENDBRANCH  29  30
ENDBRANCH   7   2
BRANCH  14  16
ATOM     16  C   UNL     1      29.351  51.360  30.992  0.00  0.00    +0.033 A 
ATOM     17  C   UNL     1      29.535  50.790  32.254  0.00  0.00    +0.024 A 
ATOM     18  C   UNL     1      30.537  49.862  32.457  0.00  0.00    +0.015 A 
ATOM     19  C   UNL     1      31.353  49.446  31.411  0.00  0.00    +0.037 A 
ATOM     25  C   UNL     1      31.182  50.022  30.156  0.00  0.00    +0.015 A 
ATOM     26  C   UNL     1      30.205  50.976  29.944  0.00  0.00    +0.024 A 
BRANCH  19  20
ATOM     20  C   UNL     1      32.423  48.433  31.670  0.00  0.00    +0.241 C 
ATOM     21  N   UNL     1      33.296  48.166  30.708  0.00  0.00    -0.325 N 
ATOM     22  H   UNL     1      34.161  48.345  30.827  0.00  0.00    +0.145 HD
ATOM     23  H   UNL     1      33.023  47.812  29.941  0.00  0.00    +0.145 HD
ATOM     24  O   UNL     1      32.487  47.891  32.781  0.00  0.00    -0.270 OA
ENDBRANCH  19  20
ENDBRANCH  14  16
TORSDOF 4
