REMARK  Name = 9T6
REMARK  3 active torsions:
REMARK  status: ('A' for Active; 'I' for Inactive)
REMARK    1  A    between atoms: C2_5  and  C10_8
REMARK    2  A    between atoms: C1_6  and  N13_22
REMARK    3  A    between atoms: C18_17  and  N13_22
REMARK                            x       y       z     vdW  Elec       q    Type
REMARK                         _______ _______ _______ _____ _____    ______ ____
ROOT
ATOM      1  C   UNL     1      -5.158  25.040 -30.990  0.00  0.00    +0.056 C 
ATOM      2  C   UNL     1      -5.597  26.333 -30.998  0.00  0.00    +0.236 C 
ATOM      3  N   UNL     1      -6.709  26.332 -31.782  0.00  0.00    -0.031 NA
ATOM      4  C   UNL     1      -7.012  25.097 -32.295  0.00  0.00    +0.373 C 
ATOM      5  N   UNL     1      -8.033  24.754 -33.110  0.00  0.00    -0.031 NA
ATOM      6  C   UNL     1      -8.010  23.441 -33.411  0.00  0.00    +0.238 C 
ATOM      7  C   UNL     1      -7.085  22.507 -32.959  0.00  0.00    +0.101 C 
ATOM      8  C   UNL     1      -6.064  22.929 -32.121  0.00  0.00    +0.133 C 
ATOM     24  C   UNL     1      -6.044  24.267 -31.795  0.00  0.00    +0.090 C 
ENDROOT
BRANCH   7  21
ATOM     21  C   UNL     1      -7.294  21.126 -33.439  0.00  0.00    +0.286 C 
ATOM     22  O   UNL     1      -6.582  20.170 -33.174  0.00  0.00    -0.267 OA
ATOM     23  N   UNL     1      -8.401  21.015 -34.237  0.00  0.00    -0.084 NA
ENDBRANCH   7  21
BRANCH   8   9
ATOM      9  N   UNL     1      -4.951  22.356 -31.523  0.00  0.00    -0.211 NA
BRANCH   9  10
ATOM     10  C   UNL     1      -4.827  21.085 -30.891  0.00  0.00    +0.073 C 
ATOM     11  C   UNL     1      -5.639  20.914 -29.603  0.00  0.00    +0.018 C 
ATOM     12  C   UNL     1      -5.171  21.872 -28.502  0.00  0.00    +0.002 C 
ATOM     13  C   UNL     1      -3.664  21.752 -28.230  0.00  0.00    +0.003 C 
ATOM     14  C   UNL     1      -3.364  20.312 -27.804  0.00  0.00    +0.030 C 
ATOM     15  C   UNL     1      -3.804  19.344 -28.897  0.00  0.00    +0.127 C 
ATOM     16  O   UNL     1      -3.537  18.047 -28.418  0.00  0.00    -0.226 OA
ATOM     17  C   UNL     1      -3.001  19.603 -30.183  0.00  0.00    +0.032 C 
ATOM     18  C   UNL     1      -2.880  21.993 -29.520  0.00  0.00    +0.002 C 
ATOM     19  C   UNL     1      -5.300  19.476 -29.196  0.00  0.00    +0.032 C 
ATOM     20  C   UNL     1      -3.316  21.018 -30.635  0.00  0.00    +0.018 C 
ENDBRANCH   9  10
ENDBRANCH   8   9
TORSDOF 3
