REMARK  Name = 3qkl_ligand
REMARK  14 active torsions:
REMARK  status: ('A' for Active; 'I' for Inactive)
REMARK    1  A    between atoms: C18_18  and  C19_19
REMARK    2  A    between atoms: C18_18  and  N39_39
REMARK    3  A    between atoms: C19_19  and  C20_20
REMARK    4  A    between atoms: C19_19  and  O21_21
REMARK    5  A    between atoms: C20_20  and  N22_22
REMARK    6  A    between atoms: N22_22  and  C23_23
REMARK    7  A    between atoms: N22_22  and  S36_36
REMARK    8  A    between atoms: C23_23  and  C24_24
REMARK    9  A    between atoms: C24_24  and  O33_33
REMARK   10  A    between atoms: C25_25  and  S36_36
REMARK   11  A    between atoms: C26_26  and  C32_32
REMARK   12  A    between atoms: C30_30  and  C31_31
REMARK   13  A    between atoms: O33_33  and  C35_35
REMARK   14  A    between atoms: C34_34  and  C35_35
REMARK                            x       y       z     vdW  Elec       q    Type
REMARK                         _______ _______ _______ _____ _____    ______ ____
ROOT
ATOM     18  C   UNL     1      -9.160   1.473  18.622  0.00  0.00    +0.113 C 
ENDROOT
BRANCH  18  19
ATOM     19  O   UNL     1      -8.024   1.884  17.827  0.00  0.00    -0.392 OA
ATOM     20  H   UNL     1      -7.569   1.107  17.496  0.00  0.00    +0.210 HD
ENDBRANCH  18  19
BRANCH  18  17
ATOM     17  C   UNL     1      -8.608   0.589  19.772  0.00  0.00    -0.076 C 
BRANCH  17  16
ATOM      1  C   UNL     1      -6.873  -2.262  17.832  0.00  0.00    +0.071 C 
ATOM      2  C   UNL     1      -7.351  -3.345  16.809  0.00  0.00    +0.049 C 
ATOM      3  C   UNL     1      -6.124  -4.197  16.372  0.00  0.00    +0.060 C 
ATOM      4  C   UNL     1      -4.866  -3.340  16.146  0.00  0.00    -0.016 A 
ATOM      5  C   UNL     1      -3.686  -3.868  15.558  0.00  0.00    +0.004 A 
ATOM      6  C   UNL     1      -3.372  -5.178  15.069  0.00  0.00    +0.084 A 
ATOM      7  N   UNL     1      -2.116  -5.128  14.624  0.00  0.00    -0.213 NA
ATOM      8  N   UNL     1      -1.598  -3.852  14.785  0.00  0.00    -0.221 N 
ATOM      9  H   UNL     1      -0.661  -3.550  14.518  0.00  0.00    +0.242 HD
ATOM     10  C   UNL     1      -2.562  -3.065  15.366  0.00  0.00    +0.072 A 
ATOM     11  C   UNL     1      -2.502  -1.693  15.732  0.00  0.00    -0.001 A 
ATOM     12  C   UNL     1      -3.676  -1.162  16.321  0.00  0.00    +0.004 A 
ATOM     13  C   UNL     1      -4.834  -1.969  16.533  0.00  0.00    +0.082 A 
ATOM     14  O   UNL     1      -5.952  -1.397  17.126  0.00  0.00    -0.326 OA
ATOM     15  C   UNL     1      -8.029  -1.361  18.314  0.00  0.00    -0.069 C 
ATOM     16  N   UNL     1      -7.536  -0.348  19.318  0.00  0.00    +0.407 NA
ATOM     39  C   UNL     1      -6.807  -0.957  20.490  0.00  0.00    -0.109 C 
ATOM     40  C   UNL     1      -5.649  -1.918  20.099  0.00  0.00    -0.020 C 
ATOM     41  C   UNL     1      -6.147  -2.944  19.035  0.00  0.00    +0.035 C 
ENDBRANCH  17  16
ENDBRANCH  18  17
BRANCH  18  21
ATOM     21  C   UNL     1      -9.963   2.673  19.204  0.00  0.00    +0.154 C 
BRANCH  21  22
ATOM     22  N   UNL     1     -10.995   3.348  18.330  0.00  0.00    -0.231 NA
BRANCH  22  23
ATOM     23  S   UNL     1     -12.586   2.575  18.032  0.00  0.00    +0.066 S 
ATOM     24  O   UNL     1     -13.311   3.322  16.994  0.00  0.00    -0.152 OA
ATOM     25  O   UNL     1     -13.255   2.502  19.348  0.00  0.00    -0.152 OA
BRANCH  23  26
ATOM     26  C   UNL     1     -12.146   0.898  17.403  0.00  0.00    +0.110 A 
ATOM     27  C   UNL     1     -12.345  -0.280  18.177  0.00  0.00    -0.026 A 
ATOM     28  C   UNL     1     -12.943  -0.265  19.572  0.00  0.00    +0.086 C 
ATOM     29  C   UNL     1     -11.977  -1.536  17.649  0.00  0.00    -0.016 A 
ATOM     30  C   UNL     1     -11.404  -1.621  16.361  0.00  0.00    -0.017 A 
ATOM     31  C   UNL     1     -11.203  -0.461  15.584  0.00  0.00    -0.016 A 
ATOM     32  C   UNL     1     -11.571   0.798  16.105  0.00  0.00    -0.026 A 
ATOM     33  C   UNL     1     -11.326   2.028  15.246  0.00  0.00    +0.086 C 
ENDBRANCH  23  26
ENDBRANCH  22  23
BRANCH  22  34
ATOM     34  C   UNL     1     -10.956   4.828  18.577  0.00  0.00    +0.153 C 
BRANCH  34  35
ATOM     35  C   UNL     1      -9.797   5.580  17.876  0.00  0.00    +0.180 C 
BRANCH  35  36
ATOM     36  O   UNL     1     -10.309   6.649  17.065  0.00  0.00    -0.378 OA
BRANCH  36  37
ATOM     37  C   UNL     1     -10.371   7.932  17.698  0.00  0.00    +0.156 C 
ATOM     38  C   UNL     1      -9.303   8.878  17.095  0.00  0.00    +0.034 C 
ENDBRANCH  36  37
ENDBRANCH  35  36
ENDBRANCH  34  35
ENDBRANCH  22  34
ENDBRANCH  21  22
ENDBRANCH  18  21
TORSDOF 11
