REMARK  Name = 5L2S
REMARK  9 active torsions:
REMARK  status: ('A' for Active; 'I' for Inactive)
REMARK    1  A    between atoms: C_1  and  C_3
REMARK    2  A    between atoms: C_1  and  N_7
REMARK    3  A    between atoms: C_4  and  C_13
REMARK    4  A    between atoms: C_14  and  C_27
REMARK    5  A    between atoms: C_19  and  C_24
REMARK    6  A    between atoms: C_25  and  C_28
REMARK    7  A    between atoms: C_26  and  C_28
REMARK    8  A    between atoms: C_27  and  N_34
REMARK    9  A    between atoms: C_28  and  N_33
REMARK                            x       y       z     vdW  Elec       q    Type
REMARK                         _______ _______ _______ _____ _____    ______ ____
ROOT
ATOM      7  C   UNL     1      20.692  37.347 -11.768  0.00  0.00    -0.015 A 
ATOM      8  C   UNL     1      21.606  36.789 -12.646  0.00  0.00    +0.117 A 
ATOM      9  N   UNL     1      22.623  35.996 -12.274  0.00  0.00    -0.240 NA
ATOM     10  C   UNL     1      22.771  35.733 -10.962  0.00  0.00    +0.125 A 
ATOM     11  N   UNL     1      23.895  34.969 -10.656  0.00  0.00    -0.269 N 
ATOM     12  H   UNL     1      24.430  34.675 -11.468  0.00  0.00    +0.156 HD
ATOM     13  C   UNL     1      24.431  34.548  -9.469  0.00  0.00    +0.221 A 
ATOM     14  N   UNL     1      24.303  35.319  -8.371  0.00  0.00    -0.211 NA
ATOM     15  C   UNL     1      24.862  34.876  -7.226  0.00  0.00    +0.111 A 
ATOM     30  C   UNL     1      25.546  33.610  -7.195  0.00  0.00    +0.167 A 
ATOM     31  F   UNL     1      26.034  33.015  -6.081  0.00  0.00    -0.202 F 
ATOM     32  C   UNL     1      25.617  32.918  -8.412  0.00  0.00    +0.155 A 
ATOM     33  N   UNL     1      25.073  33.372  -9.550  0.00  0.00    -0.220 NA
ATOM     34  C   UNL     1      21.889  36.243  -9.995  0.00  0.00    +0.044 A 
ATOM     35  C   UNL     1      20.851  37.047 -10.424  0.00  0.00    +0.010 A 
ENDROOT
BRANCH  15  16
ATOM     16  C   UNL     1      24.708  35.793  -6.063  0.00  0.00    +0.008 A 
ATOM     17  C   UNL     1      25.491  35.654  -4.914  0.00  0.00    +0.050 A 
ATOM     18  C   UNL     1      25.301  36.472  -3.828  0.00  0.00    +0.151 A 
ATOM     19  F   UNL     1      26.033  36.259  -2.713  0.00  0.00    -0.203 F 
ATOM     20  C   UNL     1      24.366  37.504  -3.812  0.00  0.00    +0.124 A 
ATOM     21  N   UNL     1      24.009  38.469  -2.887  0.00  0.00    -0.230 NA
ATOM     22  C   UNL     1      23.068  39.169  -3.465  0.00  0.00    +0.108 A 
ATOM     23  N   UNL     1      22.756  38.737  -4.742  0.00  0.00    -0.325 N 
ATOM     27  C   UNL     1      22.372  40.315  -2.831  0.00  0.00    +0.086 C 
ATOM     28  C   UNL     1      23.610  37.638  -4.978  0.00  0.00    +0.072 A 
ATOM     29  C   UNL     1      23.750  36.809  -6.086  0.00  0.00    +0.038 A 
BRANCH  23  24
ATOM     24  C   UNL     1      21.983  39.502  -5.756  0.00  0.00    +0.083 C 
ATOM     25  C   UNL     1      22.880  40.014  -6.867  0.00  0.00    +0.030 C 
ATOM     26  C   UNL     1      20.807  38.695  -6.272  0.00  0.00    +0.030 C 
ENDBRANCH  23  24
ENDBRANCH  15  16
BRANCH   7   6
ATOM      6  C   UNL     1      19.577  38.253 -12.245  0.00  0.00    +0.121 C 
BRANCH   6   5
ATOM      2  N   UNL     1      20.096  42.138 -13.919  0.00  0.00    -0.300 NA
ATOM      3  C   UNL     1      21.232  41.502 -13.235  0.00  0.00    +0.100 C 
ATOM      4  C   UNL     1      20.766  40.371 -12.331  0.00  0.00    +0.100 C 
ATOM      5  N   UNL     1      20.019  39.363 -13.102  0.00  0.00    -0.296 NA
ATOM     36  C   UNL     1      18.870  40.011 -13.742  0.00  0.00    +0.100 C 
ATOM     37  C   UNL     1      19.326  41.126 -14.660  0.00  0.00    +0.100 C 
BRANCH   2   1
ATOM      1  C   UNL     1      19.249  42.926 -12.990  0.00  0.00    +0.081 C 
ATOM     38  C   UNL     1      19.881  44.214 -12.550  0.00  0.00    +0.020 C 
ENDBRANCH   2   1
ENDBRANCH   6   5
ENDBRANCH   7   6
TORSDOF 5
