REMARK  Name = GJG
REMARK  2 active torsions:
REMARK  status: ('A' for Active; 'I' for Inactive)
REMARK    1  A    between atoms: C2_9  and  C1_11
REMARK    2  A    between atoms: N6_12  and  C11_13
REMARK                            x       y       z     vdW  Elec       q    Type
REMARK                         _______ _______ _______ _____ _____    ______ ____
ROOT
ATOM      1  N   UNL     1      20.875   6.569   1.979  0.00  0.00    -0.228 NA
ATOM      2  C   UNL     1      19.694   5.924   2.072  0.00  0.00    +0.105 A 
ATOM      3  C   UNL     1      19.120   5.365   0.930  0.00  0.00    +0.076 A 
ATOM      7  C   UNL     1      19.747   5.480  -0.294  0.00  0.00    +0.009 A 
ATOM      8  C   UNL     1      20.951   6.143  -0.367  0.00  0.00    +0.036 A 
ATOM      9  C   UNL     1      21.496   6.685   0.780  0.00  0.00    +0.147 A 
ATOM     10  N   UNL     1      22.683   7.320   0.631  0.00  0.00    -0.222 NA
ENDROOT
BRANCH  10  11
ATOM     11  C   UNL     1      23.434   7.838   1.748  0.00  0.00    +0.094 C 
ATOM     12  C   UNL     1      24.579   6.861   1.983  0.00  0.00    +0.022 C 
ATOM     13  C   UNL     1      25.499   7.340   3.092  0.00  0.00    +0.002 C 
ATOM     14  C   UNL     1      26.077   8.699   2.731  0.00  0.00    +0.000 C 
ATOM     15  C   UNL     1      24.962   9.714   2.507  0.00  0.00    +0.002 C 
ATOM     16  C   UNL     1      23.962   9.245   1.453  0.00  0.00    +0.022 C 
ENDBRANCH  10  11
BRANCH   3   4
ATOM      4  C   UNL     1      17.830   4.644   0.958  0.00  0.00    +0.286 C 
ATOM      5  N   UNL     1      17.017   4.824   1.984  0.00  0.00    -0.084 NA
ATOM      6  O   UNL     1      17.588   3.923  -0.005  0.00  0.00    -0.267 OA
ENDBRANCH   3   4
TORSDOF 2
