REMARK  Name = 5J6A
REMARK  10 active torsions:
REMARK  status: ('A' for Active; 'I' for Inactive)
REMARK    1  A    between atoms: C_1  and  O_35
REMARK    2  A    between atoms: C_3  and  S_13
REMARK    3  A    between atoms: C_11  and  O_34
REMARK    4  A    between atoms: S_13  and  N_15
REMARK    5  A    between atoms: C_17  and  N_19
REMARK    6  A    between atoms: N_19  and  C_20
REMARK    7  A    between atoms: C_26  and  C_27
REMARK    8  A    between atoms: C_27  and  C_28
REMARK    9  A    between atoms: C_27  and  N_32
REMARK   10  A    between atoms: C_28  and  C_29
REMARK                            x       y       z     vdW  Elec       q    Type
REMARK                         _______ _______ _______ _____ _____    ______ ____
ROOT
ATOM      8  N   UNL     1     -63.712  11.051  10.066  0.00  0.00    -0.168 NA
ATOM      9  C   UNL     1     -63.540  12.544   9.859  0.00  0.00    +0.145 C 
ATOM     10  C   UNL     1     -64.813  13.197  10.352  0.00  0.00    -0.027 A 
ATOM     11  C   UNL     1     -65.146  14.552  10.472  0.00  0.00    +0.007 A 
ATOM     12  C   UNL     1     -66.413  14.926  10.972  0.00  0.00    +0.023 A 
ATOM     13  C   UNL     1     -67.351  13.967  11.355  0.00  0.00    +0.028 A 
ATOM     34  C   UNL     1     -66.977  12.579  11.213  0.00  0.00    +0.028 A 
ATOM     35  C   UNL     1     -65.736  12.223  10.727  0.00  0.00    -0.025 A 
ATOM     36  C   UNL     1     -65.118  10.843  10.493  0.00  0.00    +0.145 C 
ENDROOT
BRANCH   8   7
ATOM      7  S   UNL     1     -62.839   9.952   9.203  0.00  0.00    +0.065 S 
ATOM     37  O   UNL     1     -62.989   8.708   9.874  0.00  0.00    -0.153 OA
ATOM     38  O   UNL     1     -63.305  10.105   7.871  0.00  0.00    -0.153 OA
BRANCH   7   6
ATOM      1  C   UNL     1     -58.497  11.199   9.186  0.00  0.00    +0.120 A 
ATOM      4  C   UNL     1     -59.255  11.233   8.023  0.00  0.00    +0.047 A 
ATOM      5  C   UNL     1     -60.580  10.837   8.073  0.00  0.00    +0.036 A 
ATOM      6  C   UNL     1     -61.221  10.388   9.236  0.00  0.00    +0.147 A 
ATOM     39  C   UNL     1     -60.419  10.409  10.390  0.00  0.00    +0.147 A 
ATOM     42  C   UNL     1     -59.066  10.783  10.396  0.00  0.00    +0.092 A 
BRANCH   1   2
ATOM      2  O   UNL     1     -57.201  11.582   9.147  0.00  0.00    -0.507 OA
ATOM      3  H   UNL     1     -57.058  12.400   9.790  0.00  0.00    +0.292 HD
ENDBRANCH   1   2
BRANCH  39  40
ATOM     40  O   UNL     1     -61.022   9.992  11.572  0.00  0.00    -0.505 OA
ATOM     41  H   UNL     1     -60.523   9.145  11.940  0.00  0.00    +0.292 HD
ENDBRANCH  39  40
ENDBRANCH   7   6
ENDBRANCH   8   7
BRANCH  13  14
ATOM     14  N   UNL     1     -68.640  14.273  11.854  0.00  0.00    -0.341 N 
ATOM     15  H   UNL     1     -68.849  15.303  12.053  0.00  0.00    +0.146 HD
BRANCH  14  16
ATOM     16  C   UNL     1     -69.708  13.323  12.122  0.00  0.00    +0.073 C 
ATOM     17  C   UNL     1     -69.521  12.531  13.449  0.00  0.00    +0.041 C 
ATOM     18  C   UNL     1     -70.650  11.569  13.806  0.00  0.00    +0.109 C 
ATOM     19  N   UNL     1     -71.939  12.275  13.879  0.00  0.00    -0.300 N 
ATOM     20  C   UNL     1     -72.787  12.340  14.992  0.00  0.00    +0.233 C 
ATOM     21  O   UNL     1     -72.428  11.740  16.014  0.00  0.00    -0.274 OA
ATOM     32  C   UNL     1     -72.235  12.942  12.597  0.00  0.00    +0.109 C 
ATOM     33  C   UNL     1     -71.150  13.930  12.191  0.00  0.00    +0.041 C 
BRANCH  20  22
ATOM     22  C   UNL     1     -74.169  13.106  15.034  0.00  0.00    +0.147 C 
BRANCH  22  23
ATOM     23  N   UNL     1     -74.976  12.534  16.102  0.00  0.00    -0.320 NA
ATOM     24  H   UNL     1     -75.139  11.494  15.909  0.00  0.00    +0.119 HD
ATOM     25  H   UNL     1     -74.465  12.647  17.035  0.00  0.00    +0.119 HD
ENDBRANCH  22  23
BRANCH  22  26
ATOM     26  C   UNL     1     -73.982  14.654  15.248  0.00  0.00    +0.123 C 
BRANCH  26  27
ATOM     27  C   UNL     1     -74.230  15.417  13.964  0.00  0.00    +0.212 C 
ATOM     28  N   UNL     1     -75.528  15.478  13.465  0.00  0.00    -0.329 N 
ATOM     29  H   UNL     1     -75.728  16.011  12.559  0.00  0.00    +0.145 HD
ATOM     30  H   UNL     1     -76.325  14.992  13.987  0.00  0.00    +0.145 HD
ATOM     31  O   UNL     1     -73.328  15.969  13.338  0.00  0.00    -0.276 OA
ENDBRANCH  26  27
ENDBRANCH  22  26
ENDBRANCH  20  22
ENDBRANCH  14  16
ENDBRANCH  13  14
TORSDOF 10
