REMARK  Name = 3a2c_ligand
REMARK  7 active torsions:
REMARK  status: ('A' for Active; 'I' for Inactive)
REMARK    1  A    between atoms: C15_6  and  N10_7
REMARK    2  A    between atoms: C3_9  and  C14_10
REMARK    3  A    between atoms: C1_17  and  N9_18
REMARK    4  A    between atoms: N9_18  and  C13_19
REMARK    5  A    between atoms: C16_24  and  O21_25
REMARK    6  A    between atoms: O21_25  and  C24_26
REMARK    7  A    between atoms: C24_26  and  C27_27
REMARK                            x       y       z     vdW  Elec       q    Type
REMARK                         _______ _______ _______ _____ _____    ______ ____
ROOT
ATOM      3  N   UNL     1      96.910 109.602  97.273  0.00  0.00    -0.299 N 
ATOM      4  H   UNL     1      97.686 108.955  97.133  0.00  0.00    +0.183 HD
ATOM      5  C   UNL     1      97.162 110.893  97.452  0.00  0.00    +0.096 A 
ATOM      6  N   UNL     1      96.132 111.733  97.651  0.00  0.00    -0.293 NA
ATOM      7  C   UNL     1      96.324 112.999  98.039  0.00  0.00    +0.127 A 
ATOM      8  N   UNL     1      97.634 113.462  98.245  0.00  0.00    -0.127 N 
ATOM      9  C   UNL     1      98.728 112.597  98.083  0.00  0.00    +0.234 A 
ATOM     21  N   UNL     1      97.648 114.688  98.364  0.00  0.00    -0.226 NA
ATOM     22  C   UNL     1      96.293 115.250  98.460  0.00  0.00    +0.029 A 
ATOM     23  C   UNL     1      95.457 113.999  98.196  0.00  0.00    -0.041 A 
ATOM     24  C   UNL     1      98.480 111.308  97.629  0.00  0.00    +0.060 A 
ATOM     25  C   UNL     1      99.605 110.279  97.473  0.00  0.00    +0.057 C 
ENDROOT
BRANCH   3   2
ATOM      1  C   UNL     1      95.535 107.966  96.234  0.00  0.00    +0.038 C 
ATOM      2  C   UNL     1      95.529 109.087  97.273  0.00  0.00    +0.140 C 
ATOM     26  C   UNL     1      95.119 108.527  98.642  0.00  0.00    +0.157 C 
ATOM     27  N   UNL     1      93.839 107.797  98.585  0.00  0.00    +0.229 N 
ATOM     28  H   UNL     1      93.105 108.452  98.316  0.00  0.00    +0.201 HD
ATOM     29  H   UNL     1      93.657 107.390  99.502  0.00  0.00    +0.201 HD
ATOM     30  C   UNL     1      93.884 106.710  97.592  0.00  0.00    +0.129 C 
ATOM     31  C   UNL     1      94.176 107.269  96.197  0.00  0.00    +0.053 C 
ENDBRANCH   3   2
BRANCH   9  10
ATOM     10  N   UNL     1      99.916 113.202  98.094  0.00  0.00    -0.236 N 
ATOM     11  H   UNL     1      99.972 113.979  98.752  0.00  0.00    +0.219 HD
BRANCH  10  12
ATOM     12  C   UNL     1     101.039 112.995  97.420  0.00  0.00    +0.058 A 
ATOM     13  C   UNL     1     101.028 112.296  96.222  0.00  0.00    +0.005 A 
ATOM     14  C   UNL     1     102.224 111.950  95.609  0.00  0.00    +0.010 A 
ATOM     15  C   UNL     1     103.424 112.244  96.238  0.00  0.00    +0.080 A 
ATOM     19  C   UNL     1     103.442 112.897  97.463  0.00  0.00    +0.010 A 
ATOM     20  C   UNL     1     102.243 113.285  98.050  0.00  0.00    +0.005 A 
BRANCH  15  16
ATOM     16  O   UNL     1     104.567 111.909  95.587  0.00  0.00    -0.326 OA
BRANCH  16  17
ATOM     17  C   UNL     1     105.558 112.941  95.538  0.00  0.00    +0.187 C 
ATOM     18  C   UNL     1     106.603 112.346  94.592  0.00  0.00    +0.039 C 
ENDBRANCH  16  17
ENDBRANCH  15  16
ENDBRANCH  10  12
ENDBRANCH   9  10
TORSDOF 5
