REMARK  Name = 5AUV
REMARK  4 active torsions:
REMARK  status: ('A' for Active; 'I' for Inactive)
REMARK    1  A    between atoms: C_3  and  O_4
REMARK    2  A    between atoms: C_7  and  C_8
REMARK    3  A    between atoms: C_16  and  O_17
REMARK    4  A    between atoms: C_19  and  O_20
REMARK                            x       y       z     vdW  Elec       q    Type
REMARK                         _______ _______ _______ _____ _____    ______ ____
ROOT
ATOM      3  C   UNL     1     -23.628   2.443 -11.667  0.00  0.00    +0.139 C 
ATOM      4  C   UNL     1     -24.036   1.785 -12.820  0.00  0.00    +0.098 C 
ATOM      5  C   UNL     1     -23.249   0.740 -13.297  0.00  0.00    +0.197 C 
ATOM      6  C   UNL     1     -22.132   0.359 -12.559  0.00  0.00    +0.106 A 
ATOM      7  C   UNL     1     -21.376  -0.743 -12.946  0.00  0.00    +0.135 A 
ATOM     10  C   UNL     1     -20.268  -1.165 -12.220  0.00  0.00    +0.091 A 
ATOM     11  C   UNL     1     -19.916  -0.478 -11.066  0.00  0.00    +0.124 A 
ATOM     14  C   UNL     1     -20.668   0.616 -10.656  0.00  0.00    +0.092 A 
ATOM     15  C   UNL     1     -21.771   1.030 -11.394  0.00  0.00    +0.146 A 
ATOM     16  O   UNL     1     -23.576   0.132 -14.321  0.00  0.00    -0.287 OA
ATOM     17  O   UNL     1     -22.511   2.097 -10.970  0.00  0.00    -0.454 OA
ENDROOT
BRANCH   3   2
ATOM      1  C   UNL     1     -25.498   3.959 -11.707  0.00  0.00    +0.015 A 
ATOM      2  C   UNL     1     -24.368   3.463 -11.077  0.00  0.00    +0.018 A 
ATOM     18  C   UNL     1     -24.004   3.943  -9.817  0.00  0.00    +0.015 A 
ATOM     19  C   UNL     1     -24.757   4.941  -9.204  0.00  0.00    +0.046 A 
ATOM     20  C   UNL     1     -25.884   5.445  -9.857  0.00  0.00    +0.117 A 
ATOM     23  C   UNL     1     -26.243   4.956 -11.101  0.00  0.00    +0.046 A 
BRANCH  20  21
ATOM     21  O   UNL     1     -26.651   6.420  -9.297  0.00  0.00    -0.507 OA
ATOM     22  H   UNL     1     -26.660   7.262  -9.924  0.00  0.00    +0.292 HD
ENDBRANCH  20  21
ENDBRANCH   3   2
BRANCH   7   8
ATOM      8  O   UNL     1     -21.767  -1.372 -14.082  0.00  0.00    -0.506 OA
ATOM      9  H   UNL     1     -22.750  -1.723 -13.968  0.00  0.00    +0.292 HD
ENDBRANCH   7   8
BRANCH  11  12
ATOM     12  O   UNL     1     -18.842  -0.865 -10.327  0.00  0.00    -0.506 OA
ATOM     13  H   UNL     1     -18.149  -0.078 -10.278  0.00  0.00    +0.292 HD
ENDBRANCH  11  12
TORSDOF 4
