REMARK  Name = 4UXL
REMARK  5 active torsions:
REMARK  status: ('A' for Active; 'I' for Inactive)
REMARK    1  A    between atoms: C_1  and  C_7
REMARK    2  A    between atoms: C_15  and  N_27
REMARK    3  A    between atoms: C_18  and  C_19
REMARK    4  A    between atoms: C_20  and  N_25
REMARK    5  A    between atoms: C_21  and  N_26
REMARK                            x       y       z     vdW  Elec       q    Type
REMARK                         _______ _______ _______ _____ _____    ______ ____
ROOT
ATOM      3  C   UNL     1      46.199 -19.300  -4.761  0.00  0.00    +0.188 C 
ATOM      4  N   UNL     1      46.549 -19.654  -3.445  0.00  0.00    -0.205 NA
ATOM      5  N   UNL     1      45.531 -19.845  -2.692  0.00  0.00    -0.278 N 
ATOM      6  H   UNL     1      45.575 -20.121  -1.659  0.00  0.00    +0.166 HD
ATOM      7  C   UNL     1      44.450 -19.656  -3.359  0.00  0.00    +0.043 C 
ATOM      8  C   UNL     1      43.067 -19.809  -2.703  0.00  0.00    +0.159 C 
ATOM      9  N   UNL     1      42.379 -21.132  -2.874  0.00  0.00    -0.295 N 
ATOM     10  C   UNL     1      43.241 -22.314  -2.642  0.00  0.00    +0.133 C 
ATOM     11  C   UNL     1      41.041 -21.321  -3.213  0.00  0.00    +0.247 C 
ATOM     12  O   UNL     1      40.584 -22.476  -3.323  0.00  0.00    -0.270 OA
ATOM     13  C   UNL     1      40.055 -20.211  -3.466  0.00  0.00    +0.044 A 
ATOM     14  C   UNL     1      39.461 -19.959  -4.777  0.00  0.00    +0.007 A 
ATOM     15  C   UNL     1      39.779 -20.807  -6.052  0.00  0.00    +0.202 C 
ATOM     16  O   UNL     1      40.399 -20.019  -7.158  0.00  0.00    -0.481 OA
ATOM     17  C   UNL     1      41.638 -19.380  -7.045  0.00  0.00    +0.161 A 
ATOM     18  C   UNL     1      42.035 -18.416  -8.011  0.00  0.00    +0.158 A 
ATOM     22  N   UNL     1      43.229 -17.753  -7.974  0.00  0.00    -0.236 NA
ATOM     23  C   UNL     1      44.099 -18.020  -6.956  0.00  0.00    +0.121 A 
ATOM     24  C   UNL     1      43.832 -18.969  -5.917  0.00  0.00    +0.004 A 
ATOM     25  C   UNL     1      42.586 -19.638  -5.993  0.00  0.00    +0.059 A 
ATOM     26  C   UNL     1      38.474 -21.388  -6.612  0.00  0.00    +0.057 C 
ATOM     27  C   UNL     1      38.509 -18.877  -4.903  0.00  0.00    +0.046 A 
ATOM     28  C   UNL     1      38.139 -18.063  -3.796  0.00  0.00    +0.124 A 
ATOM     29  F   UNL     1      37.250 -17.078  -3.948  0.00  0.00    -0.205 F 
ATOM     30  C   UNL     1      38.727 -18.318  -2.526  0.00  0.00    +0.039 A 
ATOM     31  C   UNL     1      39.668 -19.373  -2.363  0.00  0.00    +0.016 A 
ATOM     32  C   UNL     1      47.924 -19.790  -2.968  0.00  0.00    +0.130 C 
ATOM     33  C   UNL     1      44.791 -19.286  -4.763  0.00  0.00    +0.020 C 
ENDROOT
BRANCH  18  19
ATOM     19  N   UNL     1      41.163 -18.117  -9.075  0.00  0.00    -0.340 N 
ATOM     20  H   UNL     1      41.446 -17.394  -9.811  0.00  0.00    +0.144 HD
ATOM     21  H   UNL     1      40.218 -18.613  -9.147  0.00  0.00    +0.144 HD
ENDBRANCH  18  19
BRANCH   3   1
ATOM      1  C   UNL     1      47.090 -19.020  -5.825  0.00  0.00    +0.095 C 
ATOM      2  N   UNL     1      47.818 -18.762  -6.696  0.00  0.00    -0.194 NA
ENDBRANCH   3   1
TORSDOF 2
