REMARK  Name = 4B99
REMARK  8 active torsions:
REMARK  status: ('A' for Active; 'I' for Inactive)
REMARK    1  A    between atoms: C_5  and  N_6
REMARK    2  A    between atoms: N_15  and  C_16
REMARK    3  A    between atoms: N_23  and  C_24
REMARK    4  A    between atoms: C_25  and  O_27
REMARK    5  A    between atoms: O_27  and  C_28
REMARK    6  A    between atoms: C_31  and  C_32
REMARK    7  A    between atoms: C_39  and  N_40
REMARK    8  A    between atoms: N_43  and  C_44
REMARK                            x       y       z     vdW  Elec       q    Type
REMARK                         _______ _______ _______ _____ _____    ______ ____
ROOT
ATOM      3  N   UNL     1     -44.924   3.790 -11.937  0.00  0.00    -0.320 N 
ATOM      4  C   UNL     1     -44.738   3.548 -13.244  0.00  0.00    +0.163 A 
ATOM      5  N   UNL     1     -43.967   2.466 -13.453  0.00  0.00    -0.195 NA
ATOM      6  C   UNL     1     -43.635   2.052 -14.678  0.00  0.00    +0.222 A 
ATOM      7  N   UNL     1     -42.901   0.957 -14.884  0.00  0.00    -0.281 N 
ATOM      8  H   UNL     1     -42.567   0.752 -15.880  0.00  0.00    +0.155 HD
ATOM     32  N   UNL     1     -44.050   2.745 -15.744  0.00  0.00    -0.221 NA
ATOM     33  C   UNL     1     -44.837   3.896 -15.591  0.00  0.00    +0.144 A 
ATOM     34  C   UNL     1     -45.191   4.310 -14.306  0.00  0.00    +0.106 A 
ATOM     35  N   UNL     1     -45.966   5.412 -14.212  0.00  0.00    -0.307 N 
ATOM     36  C   UNL     1     -47.018   5.619 -15.261  0.00  0.00    +0.153 C 
ATOM     37  C   UNL     1     -45.932   6.295 -13.188  0.00  0.00    +0.261 A 
ATOM     38  O   UNL     1     -46.733   7.241 -13.207  0.00  0.00    -0.267 OA
ATOM     39  C   UNL     1     -45.055   6.198 -12.108  0.00  0.00    +0.063 A 
ATOM     40  C   UNL     1     -44.637   7.430 -11.605  0.00  0.00    +0.015 A 
ATOM     41  C   UNL     1     -43.787   7.488 -10.514  0.00  0.00    +0.001 A 
ATOM     42  C   UNL     1     -43.329   6.323  -9.927  0.00  0.00    +0.002 A 
ATOM     43  C   UNL     1     -43.733   5.094 -10.431  0.00  0.00    +0.026 A 
ATOM     44  C   UNL     1     -44.630   5.027 -11.500  0.00  0.00    +0.056 A 
ENDROOT
BRANCH   7   9
ATOM      9  C   UNL     1     -42.555   0.089 -13.900  0.00  0.00    +0.076 A 
ATOM     10  C   UNL     1     -41.976   0.444 -12.689  0.00  0.00    +0.028 A 
ATOM     11  C   UNL     1     -41.618  -0.543 -11.777  0.00  0.00    +0.015 A 
ATOM     12  C   UNL     1     -41.830  -1.892 -12.048  0.00  0.00    +0.041 A 
ATOM     28  C   UNL     1     -42.376  -2.251 -13.266  0.00  0.00    +0.060 A 
ATOM     29  C   UNL     1     -42.735  -1.259 -14.186  0.00  0.00    +0.142 A 
BRANCH  12  13
ATOM     13  C   UNL     1     -41.407  -2.862 -11.126  0.00  0.00    +0.247 C 
ATOM     14  N   UNL     1     -41.990  -3.010  -9.921  0.00  0.00    -0.297 N 
ATOM     15  C   UNL     1     -43.191  -2.267  -9.541  0.00  0.00    +0.109 C 
ATOM     16  C   UNL     1     -44.214  -3.309  -9.145  0.00  0.00    +0.038 C 
ATOM     17  C   UNL     1     -43.559  -4.102  -7.959  0.00  0.00    +0.060 C 
ATOM     25  C   UNL     1     -42.448  -4.991  -8.547  0.00  0.00    +0.038 C 
ATOM     26  C   UNL     1     -41.422  -4.013  -8.980  0.00  0.00    +0.109 C 
ATOM     27  O   UNL     1     -40.390  -3.504 -11.424  0.00  0.00    -0.270 OA
BRANCH  17  18
ATOM     18  N   UNL     1     -44.464  -4.795  -7.015  0.00  0.00    -0.297 NA
ATOM     19  C   UNL     1     -45.128  -5.878  -7.785  0.00  0.00    +0.100 C 
ATOM     20  C   UNL     1     -46.214  -6.567  -6.956  0.00  0.00    +0.099 C 
ATOM     21  N   UNL     1     -47.340  -5.640  -6.950  0.00  0.00    -0.303 NA
ATOM     22  C   UNL     1     -48.280  -6.007  -8.030  0.00  0.00    +0.105 C 
ATOM     23  C   UNL     1     -46.931  -4.216  -7.056  0.00  0.00    +0.099 C 
ATOM     24  C   UNL     1     -45.529  -3.928  -6.474  0.00  0.00    +0.100 C 
ENDBRANCH  17  18
ENDBRANCH  12  13
BRANCH  29  30
ATOM     30  O   UNL     1     -43.301  -1.504 -15.403  0.00  0.00    -0.493 OA
ATOM     31  C   UNL     1     -43.546  -2.879 -15.705  0.00  0.00    +0.277 C 
ENDBRANCH  29  30
ENDBRANCH   7   9
BRANCH   3   2
ATOM      1  C   UNL     1     -46.577   1.994 -11.545  0.00  0.00    +0.025 C 
ATOM      2  C   UNL     1     -45.274   2.604 -11.076  0.00  0.00    +0.089 C 
ATOM     45  C   UNL     1     -45.610   2.828  -9.616  0.00  0.00    +0.025 C 
ATOM     46  C   UNL     1     -46.369   1.535  -9.278  0.00  0.00    +0.002 C 
ATOM     47  C   UNL     1     -46.537   0.788 -10.606  0.00  0.00    +0.002 C 
ENDBRANCH   3   2
TORSDOF 5
