REMARK  Name = 3at4_ligand
REMARK  7 active torsions:
REMARK  status: ('A' for Active; 'I' for Inactive)
REMARK    1  A    between atoms: C5_5  and  N15_8
REMARK    2  A    between atoms: C27_14  and  C57_25
REMARK    3  A    between atoms: C37_19  and  N44_21
REMARK    4  A    between atoms: N44_21  and  C46_22
REMARK    5  A    between atoms: C46_22  and  C48_23
REMARK    6  A    between atoms: C46_22  and  C51_24
REMARK    7  A    between atoms: C57_25  and  C59_26
REMARK                            x       y       z     vdW  Elec       q    Type
REMARK                         _______ _______ _______ _____ _____    ______ ____
ROOT
ATOM      1  N   UNL     1     -25.163  -9.142 -29.590  0.00  0.00    -0.285 NA
ATOM      2  C   UNL     1     -25.203  -8.586 -28.389  0.00  0.00    +0.147 A 
ATOM      3  C   UNL     1     -25.489  -9.405 -27.267  0.00  0.00    +0.186 A 
ATOM     13  N   UNL     1     -25.723 -10.710 -27.380  0.00  0.00    -0.216 NA
ATOM     14  C   UNL     1     -25.670 -11.284 -28.605  0.00  0.00    +0.198 A 
ATOM     15  N   UNL     1     -25.900 -12.617 -28.764  0.00  0.00    -0.139 N 
ATOM     16  N   UNL     1     -26.049 -13.121 -29.891  0.00  0.00    -0.193 NA
ATOM     17  C   UNL     1     -26.304 -14.437 -29.822  0.00  0.00    +0.091 A 
ATOM     18  C   UNL     1     -26.257 -14.819 -28.469  0.00  0.00    +0.005 A 
ATOM     19  C   UNL     1     -26.411 -16.051 -27.834  0.00  0.00    -0.011 A 
ATOM     20  C   UNL     1     -26.291 -16.050 -26.431  0.00  0.00    -0.002 A 
ATOM     21  C   UNL     1     -26.032 -14.838 -25.738  0.00  0.00    +0.032 A 
ATOM     27  C   UNL     1     -25.885 -13.592 -26.434  0.00  0.00    +0.029 A 
ATOM     28  C   UNL     1     -26.000 -13.602 -27.837  0.00  0.00    +0.101 A 
ATOM     29  C   UNL     1     -25.379 -10.465 -29.732  0.00  0.00    +0.147 A 
ENDROOT
BRANCH   3   4
ATOM      4  N   UNL     1     -25.521  -8.851 -26.047  0.00  0.00    -0.229 N 
ATOM      5  C   UNL     1     -25.304  -7.475 -25.603  0.00  0.00    +0.112 A 
ATOM      6  C   UNL     1     -25.493  -7.267 -24.233  0.00  0.00    -0.048 A 
ATOM      7  C   UNL     1     -25.841  -8.528 -23.703  0.00  0.00    -0.052 A 
ATOM     12  C   UNL     1     -25.814  -9.416 -24.748  0.00  0.00    +0.102 A 
BRANCH   7   8
ATOM      8  C   UNL     1     -26.221  -8.904 -22.291  0.00  0.00    +0.118 C 
BRANCH   8   9
ATOM      9  C   UNL     1     -25.420  -8.189 -21.212  0.00  0.00    +0.041 C 
ATOM     10  O   UNL     1     -25.478  -8.717 -20.100  0.00  0.00    -0.567 OA
ATOM     11  O   UNL     1     -24.779  -7.144 -21.480  0.00  0.00    -0.567 OA
ENDBRANCH   8   9
ENDBRANCH   7   8
ENDBRANCH   3   4
BRANCH  21  22
ATOM     22  N   UNL     1     -25.919 -14.894 -24.380  0.00  0.00    -0.322 N 
ATOM     23  H   UNL     1     -25.733 -15.802 -23.930  0.00  0.00    +0.176 HD
BRANCH  22  24
ATOM     24  C   UNL     1     -26.053 -13.708 -23.548  0.00  0.00    +0.084 C 
ATOM     25  C   UNL     1     -27.349 -13.731 -22.735  0.00  0.00    +0.032 C 
ATOM     26  C   UNL     1     -24.797 -13.420 -22.710  0.00  0.00    +0.032 C 
ENDBRANCH  22  24
ENDBRANCH  21  22
TORSDOF 5
