REMARK  Name = 2uzb_ligand
REMARK  5 active torsions:
REMARK  status: ('A' for Active; 'I' for Inactive)
REMARK    1  A    between atoms: S2_2  and  N6_4
REMARK    2  A    between atoms: S2_2  and  C16_6
REMARK    3  A    between atoms: N6_4  and  C61_5
REMARK    4  A    between atoms: C13_9  and  C4_12
REMARK    5  A    between atoms: C1_16  and  C6_17
REMARK                            x       y       z     vdW  Elec       q    Type
REMARK                         _______ _______ _______ _____ _____    ______ ____
ROOT
ATOM      7  C   UNL     1      37.790  18.165  -1.613  0.00  0.00    +0.123 A 
ATOM      8  C   UNL     1      37.293  16.885  -1.398  0.00  0.00    -0.006 A 
ATOM      9  C   UNL     1      36.699  16.893  -0.140  0.00  0.00    -0.008 A 
ATOM     10  C   UNL     1      36.844  18.164   0.411  0.00  0.00    +0.115 A 
ATOM     21  O   UNL     1      37.520  18.921  -0.504  0.00  0.00    -0.256 OA
ENDROOT
BRANCH  10  11
ATOM     11  C   UNL     1      36.372  18.633   1.737  0.00  0.00    +0.061 C 
ATOM     12  C   UNL     1      36.557  19.886   2.179  0.00  0.00    +0.122 C 
ATOM     13  C   UNL     1      36.158  20.420   3.401  0.00  0.00    +0.253 C 
ATOM     14  O   UNL     1      35.540  19.828   4.282  0.00  0.00    -0.372 OA
ATOM     15  N   UNL     1      36.488  21.699   3.559  0.00  0.00    -0.190 N 
ATOM     16  H   UNL     1      36.255  22.207   4.388  0.00  0.00    +0.244 HD
ATOM     17  C   UNL     1      37.146  22.262   2.550  0.00  0.00    +0.192 C 
ATOM     18  N   UNL     1      37.555  23.463   2.515  0.00  0.00    -0.384 NA
ATOM     19  H   UNL     1      37.395  24.073   3.301  0.00  0.00    +0.055 HD
ATOM     20  S   UNL     1      37.316  21.116   1.359  0.00  0.00    +0.036 S 
ENDBRANCH  10  11
BRANCH   7   6
ATOM      3  C   UNL     1      39.662  20.128  -4.895  0.00  0.00    +0.106 A 
ATOM      4  C   UNL     1      39.374  20.801  -3.715  0.00  0.00    +0.026 A 
ATOM      5  C   UNL     1      38.778  20.099  -2.677  0.00  0.00    +0.008 A 
ATOM      6  C   UNL     1      38.468  18.751  -2.815  0.00  0.00    +0.011 A 
ATOM     22  C   UNL     1      38.753  18.084  -4.005  0.00  0.00    +0.008 A 
ATOM     23  C   UNL     1      39.344  18.783  -5.054  0.00  0.00    +0.026 A 
BRANCH   3   2
ATOM      1  O   UNL     1      39.390  22.036  -6.648  0.00  0.00    -0.151 OA
ATOM      2  S   UNL     1      40.385  21.128  -6.148  0.00  0.00    +0.067 S 
ATOM     27  O   UNL     1      40.856  20.294  -7.218  0.00  0.00    -0.151 OA
BRANCH   2  24
ATOM     24  N   UNL     1      41.612  21.958  -5.539  0.00  0.00    -0.251 NA
ATOM     25  H   UNL     1      42.524  21.549  -5.571  0.00  0.00    +0.167 HD
ATOM     26  C   UNL     1      41.471  23.255  -4.952  0.00  0.00    +0.147 C 
ENDBRANCH   2  24
ENDBRANCH   3   2
ENDBRANCH   7   6
TORSDOF 4
