REMARK  Name = 3uo5_ligand
REMARK  3 active torsions:
REMARK  status: ('A' for Active; 'I' for Inactive)
REMARK    1  A    between atoms: C06_1  and  C11_2
REMARK    2  A    between atoms: C09_5  and  N01_8
REMARK    3  A    between atoms: N04_15  and  C16_16
REMARK                            x       y       z     vdW  Elec       q    Type
REMARK                         _______ _______ _______ _____ _____    ______ ____
ROOT
ATOM      5  N   UNL     1      -3.329 -32.943   7.260  0.00  0.00    -0.243 N 
ATOM      6  H   UNL     1      -3.076 -33.709   7.884  0.00  0.00    +0.219 HD
ATOM      7  C   UNL     1      -3.993 -31.834   7.865  0.00  0.00    +0.196 A 
ATOM      8  N   UNL     1      -4.642 -30.912   7.148  0.00  0.00    -0.234 NA
ATOM      9  C   UNL     1      -5.259 -29.881   7.735  0.00  0.00    +0.134 A 
ATOM     10  N   UNL     1      -5.952 -28.919   6.943  0.00  0.00    -0.256 N 
ATOM     11  H   UNL     1      -6.272 -28.043   7.356  0.00  0.00    +0.216 HD
ATOM     18  C   UNL     1      -5.220 -29.764   9.110  0.00  0.00    +0.057 A 
ATOM     19  C   UNL     1      -4.545 -30.729   9.843  0.00  0.00    +0.086 A 
ATOM     20  N   UNL     1      -3.949 -31.743   9.193  0.00  0.00    -0.269 NA
ENDROOT
BRANCH   5   4
ATOM      1  C   UNL     1      -2.181 -33.552   3.257  0.00  0.00    -0.002 A 
ATOM      2  C   UNL     1      -3.288 -32.767   3.521  0.00  0.00    +0.005 A 
ATOM      3  C   UNL     1      -3.691 -32.552   4.830  0.00  0.00    +0.020 A 
ATOM      4  C   UNL     1      -2.973 -33.112   5.876  0.00  0.00    +0.068 A 
ATOM     21  C   UNL     1      -1.864 -33.905   5.593  0.00  0.00    +0.020 A 
ATOM     22  C   UNL     1      -1.465 -34.131   4.286  0.00  0.00    +0.005 A 
BRANCH   1  23
ATOM     23  C   UNL     1      -1.754 -33.793   1.858  0.00  0.00    +0.055 C 
ATOM     24  O   UNL     1      -2.584 -33.624   0.928  0.00  0.00    -0.564 OA
ATOM     25  O   UNL     1      -0.574 -34.179   1.620  0.00  0.00    -0.564 OA
ENDBRANCH   1  23
ENDBRANCH   5   4
BRANCH  10  12
ATOM     12  C   UNL     1      -6.192 -29.200   5.559  0.00  0.00    +0.064 A 
ATOM     13  C   UNL     1      -5.158 -29.075   4.643  0.00  0.00    +0.015 A 
ATOM     14  C   UNL     1      -5.375 -29.336   3.297  0.00  0.00    -0.013 A 
ATOM     15  C   UNL     1      -6.627 -29.723   2.867  0.00  0.00    -0.021 A 
ATOM     16  C   UNL     1      -7.663 -29.844   3.782  0.00  0.00    -0.013 A 
ATOM     17  C   UNL     1      -7.452 -29.585   5.128  0.00  0.00    +0.015 A 
ENDBRANCH  10  12
TORSDOF 3
