REMARK  Name = 2xp6_ligand
REMARK  3 active torsions:
REMARK  status: ('A' for Active; 'I' for Inactive)
REMARK    1  A    between atoms: C12_2  and  C10_4
REMARK    2  A    between atoms: C9_5  and  C15_16
REMARK    3  A    between atoms: C7_7  and  C6_9
REMARK                            x       y       z     vdW  Elec       q    Type
REMARK                         _______ _______ _______ _____ _____    ______ ____
ROOT
ATOM      3  CA  UNL     1     -37.213  27.177  25.638  0.00  0.00    +0.104 A 
ATOM      4  N   UNL     1     -36.025  26.720  26.102  0.00  0.00    -0.259 N 
ATOM      5  H   UNL     1     -35.593  26.940  27.011  0.00  0.00    +0.234 HD
ATOM      6  C   UNL     1     -35.523  25.925  25.147  0.00  0.00    +0.135 A 
ATOM     14  N   UNL     1     -36.363  25.902  24.097  0.00  0.00    -0.312 NA
ATOM     15  C   UNL     1     -37.405  26.684  24.347  0.00  0.00    +0.012 A 
ATOM     16  C   UNL     1     -38.578  26.925  23.370  0.00  0.00    +0.076 C 
ENDROOT
BRANCH   6   7
ATOM      7  C   UNL     1     -34.321  25.257  25.212  0.00  0.00    +0.027 A 
ATOM      8  C   UNL     1     -33.741  24.726  24.051  0.00  0.00    +0.016 A 
ATOM      9  C   UNL     1     -32.500  24.056  24.085  0.00  0.00    +0.003 A 
ATOM     10  C   UNL     1     -31.852  23.935  25.321  0.00  0.00    +0.017 A 
ATOM     11  C   UNL     1     -32.426  24.520  26.471  0.00  0.00    +0.043 A 
ATOM     12 CL   UNL     1     -31.594  24.412  27.989  0.00  0.00    -0.070 Cl
ATOM     13  C   UNL     1     -33.676  25.190  26.418  0.00  0.00    +0.030 A 
ENDBRANCH   6   7
BRANCH   3   2
ATOM      1  O   UNL     1     -37.853  28.363  27.620  0.00  0.00    -0.565 OA
ATOM      2  C   UNL     1     -38.106  28.152  26.436  0.00  0.00    +0.075 C 
ATOM     17  OXT UNL     1     -39.027  28.782  25.919  0.00  0.00    -0.565 OA
ENDBRANCH   3   2
TORSDOF 2
