REMARK  Name = 5L2T
REMARK  6 active torsions:
REMARK  status: ('A' for Active; 'I' for Inactive)
REMARK    1  A    between atoms: C_9  and  N_28
REMARK    2  A    between atoms: C_10  and  C_12
REMARK    3  A    between atoms: C_11  and  N_29
REMARK    4  A    between atoms: C_21  and  N_27
REMARK    5  A    between atoms: C_22  and  N_30
REMARK    6  A    between atoms: C_23  and  N_30
REMARK                            x       y       z     vdW  Elec       q    Type
REMARK                         _______ _______ _______ _____ _____    ______ ____
ROOT
ATOM      1  C   UNL     1      24.400  34.251  -8.961  0.00  0.00    +0.222 A 
ATOM      2  N   UNL     1      23.627  34.491 -10.063  0.00  0.00    -0.268 N 
ATOM      3  H   UNL     1      23.771  33.851 -10.838  0.00  0.00    +0.156 HD
ATOM     17  N   UNL     1      24.228  35.002  -7.852  0.00  0.00    -0.196 NA
ATOM     18  C   UNL     1      24.881  34.537  -6.775  0.00  0.00    +0.147 A 
ATOM     19  N   UNL     1      24.819  35.097  -5.508  0.00  0.00    -0.318 N 
ATOM     25  C   UNL     1      25.616  34.289  -4.663  0.00  0.00    +0.107 A 
ATOM     31  C   UNL     1      26.147  33.265  -5.393  0.00  0.00    +0.044 A 
ATOM     32  C   UNL     1      25.705  33.394  -6.724  0.00  0.00    +0.038 A 
ATOM     33  C   UNL     1      25.796  32.765  -7.959  0.00  0.00    +0.126 A 
ATOM     34  N   UNL     1      25.189  33.170  -9.079  0.00  0.00    -0.222 NA
ENDROOT
BRANCH   2   4
ATOM      4  C   UNL     1      22.673  35.456 -10.321  0.00  0.00    +0.125 A 
ATOM      5  C   UNL     1      21.725  35.788  -9.345  0.00  0.00    +0.045 A 
ATOM      6  C   UNL     1      20.823  36.797  -9.621  0.00  0.00    +0.028 A 
ATOM      7  C   UNL     1      20.863  37.456 -10.842  0.00  0.00    +0.048 A 
ATOM     15  C   UNL     1      21.831  37.040 -11.757  0.00  0.00    +0.136 A 
ATOM     16  N   UNL     1      22.718  36.063 -11.516  0.00  0.00    -0.238 NA
BRANCH   7   8
ATOM      8  N   UNL     1      19.973  38.497 -11.115  0.00  0.00    -0.326 N 
ATOM      9  C   UNL     1      19.494  38.754 -12.477  0.00  0.00    +0.120 C 
ATOM     10  C   UNL     1      18.125  39.394 -12.447  0.00  0.00    +0.100 C 
ATOM     11  N   UNL     1      18.138  40.616 -11.598  0.00  0.00    -0.313 NA
ATOM     12  H   UNL     1      17.215  41.036 -11.567  0.00  0.00    +0.122 HD
ATOM     13  C   UNL     1      18.635  40.331 -10.223  0.00  0.00    +0.100 C 
ATOM     14  C   UNL     1      20.007  39.701 -10.282  0.00  0.00    +0.120 C 
ENDBRANCH   7   8
ENDBRANCH   2   4
BRANCH  19  20
ATOM     20  C   UNL     1      23.907  36.190  -5.074  0.00  0.00    +0.089 C 
ATOM     21  C   UNL     1      24.166  37.532  -5.760  0.00  0.00    +0.025 C 
ATOM     22  C   UNL     1      22.776  38.063  -6.149  0.00  0.00    +0.002 C 
ATOM     23  C   UNL     1      21.787  37.233  -5.412  0.00  0.00    +0.002 C 
ATOM     24  C   UNL     1      22.421  35.877  -5.251  0.00  0.00    +0.025 C 
ENDBRANCH  19  20
BRANCH  25  26
ATOM     26  C   UNL     1      25.789  34.560  -3.199  0.00  0.00    +0.263 C 
ATOM     27  O   UNL     1      25.286  33.771  -2.399  0.00  0.00    -0.268 OA
ATOM     28  N   UNL     1      26.550  35.592  -2.820  0.00  0.00    -0.302 N 
ATOM     29  C   UNL     1      27.229  36.474  -3.764  0.00  0.00    +0.132 C 
ATOM     30  C   UNL     1      26.779  35.915  -1.410  0.00  0.00    +0.132 C 
ENDBRANCH  25  26
TORSDOF 4
