REMARK  Name = 3ugc_ligand
REMARK  9 active torsions:
REMARK  status: ('A' for Active; 'I' for Inactive)
REMARK    1  A    between atoms: C2_2  and  C5_5
REMARK    2  A    between atoms: C6_6  and  C51_34
REMARK    3  A    between atoms: C11_9  and  N14_11
REMARK    4  A    between atoms: C31_21  and  O34_23
REMARK    5  A    between atoms: O34_23  and  C35_24
REMARK    6  A    between atoms: C40_28  and  N43_30
REMARK    7  A    between atoms: C45_31  and  C47_33
REMARK    8  A    between atoms: C51_34  and  N54_35
REMARK    9  A    between atoms: N61_38  and  C68_41
REMARK                            x       y       z     vdW  Elec       q    Type
REMARK                         _______ _______ _______ _____ _____    ______ ____
ROOT
ATOM      6  N   UNL     1      22.180 -18.679 -18.696  0.00  0.00    -0.202 N 
ATOM      7  H   UNL     1      22.558 -18.873 -19.601  0.00  0.00    +0.227 HD
ATOM      8  C   UNL     1      20.836 -18.563 -18.592  0.00  0.00    +0.361 C 
ATOM      9  N   UNL     1      20.112 -18.756 -19.709  0.00  0.00    -0.162 N 
ATOM     10  C   UNL     1      18.741 -18.503 -19.878  0.00  0.00    +0.089 A 
ATOM     11  C   UNL     1      17.883 -17.880 -18.958  0.00  0.00    +0.010 A 
ATOM     12  C   UNL     1      16.557 -17.682 -19.371  0.00  0.00    +0.007 A 
ATOM     13  C   UNL     1      16.141 -18.093 -20.636  0.00  0.00    +0.103 A 
ATOM     26  C   UNL     1      17.015 -18.691 -21.537  0.00  0.00    -0.002 A 
ATOM     27  C   UNL     1      18.312 -18.891 -21.137  0.00  0.00    -0.036 A 
ATOM     28  C   UNL     1      19.481 -19.501 -21.882  0.00  0.00    -0.046 A 
ATOM     29  C   UNL     1      20.669 -19.395 -20.903  0.00  0.00    +0.146 A 
ATOM     30  O   UNL     1      20.238 -18.362 -17.536  0.00  0.00    -0.360 OA
ENDROOT
BRANCH   6   5
ATOM      3  C   UNL     1      23.717 -18.682 -15.291  0.00  0.00    +0.039 A 
ATOM      4  C   UNL     1      22.772 -18.848 -16.296  0.00  0.00    +0.045 A 
ATOM      5  C   UNL     1      23.097 -18.546 -17.617  0.00  0.00    +0.090 A 
ATOM     31  C   UNL     1      24.385 -18.143 -17.946  0.00  0.00    +0.061 A 
ATOM     32  C   UNL     1      25.339 -18.020 -16.928  0.00  0.00    +0.030 A 
ATOM     33  C   UNL     1      25.024 -18.299 -15.591  0.00  0.00    +0.025 A 
BRANCH   3   2
ATOM      1  F   UNL     1      23.204 -17.820 -13.177  0.00  0.00    -0.229 F 
ATOM      2  C   UNL     1      23.303 -18.978 -13.866  0.00  0.00    +0.364 C 
ATOM     44  F   UNL     1      22.143 -19.620 -13.786  0.00  0.00    -0.229 F 
ATOM     45  F   UNL     1      24.210 -19.715 -13.205  0.00  0.00    -0.229 F 
ENDBRANCH   3   2
BRANCH  33  34
ATOM     34  C   UNL     1      26.094 -18.092 -14.498  0.00  0.00    +0.222 C 
BRANCH  34  35
ATOM     35  N   UNL     1      27.131 -17.167 -14.959  0.00  0.00    +0.259 N 
ATOM     36  H   UNL     1      27.394 -17.430 -15.896  0.00  0.00    +0.206 HD
ATOM     37  C   UNL     1      26.637 -15.791 -14.994  0.00  0.00    +0.185 C 
ATOM     38  C   UNL     1      27.698 -14.836 -15.559  0.00  0.00    +0.183 C 
ATOM     39  N   UNL     1      28.890 -14.925 -14.678  0.00  0.00    +0.240 N 
ATOM     40  H   UNL     1      28.620 -14.658 -13.744  0.00  0.00    +0.203 HD
ATOM     41  C   UNL     1      29.920 -13.970 -15.163  0.00  0.00    +0.191 C 
ATOM     42  C   UNL     1      29.408 -16.299 -14.627  0.00  0.00    +0.183 C 
ATOM     43  C   UNL     1      28.319 -17.263 -14.102  0.00  0.00    +0.185 C 
ENDBRANCH  34  35
ENDBRANCH  33  34
ENDBRANCH   6   5
BRANCH  13  14
ATOM     14  O   UNL     1      14.827 -17.877 -21.013  0.00  0.00    -0.245 OA
BRANCH  14  15
ATOM     15  C   UNL     1      13.831 -18.602 -20.436  0.00  0.00    +0.186 A 
ATOM     16  C   UNL     1      12.541 -18.071 -20.499  0.00  0.00    +0.097 A 
ATOM     17  C   UNL     1      11.547 -18.847 -19.921  0.00  0.00    +0.145 A 
ATOM     23  N   UNL     1      11.822 -20.016 -19.341  0.00  0.00    -0.266 NA
ATOM     24  C   UNL     1      13.087 -20.476 -19.261  0.00  0.00    +0.162 A 
ATOM     25  N   UNL     1      14.070 -19.750 -19.803  0.00  0.00    -0.259 NA
BRANCH  17  18
ATOM     18  N   UNL     1      10.173 -18.479 -19.814  0.00  0.00    -0.214 N 
ATOM     19  H   UNL     1       9.555 -19.121 -19.360  0.00  0.00    +0.235 HD
ATOM     20  C   UNL     1       9.647 -17.330 -20.279  0.00  0.00    +0.208 C 
ATOM     21  C   UNL     1       8.161 -17.171 -20.041  0.00  0.00    +0.175 C 
ATOM     22  O   UNL     1      10.247 -16.480 -20.864  0.00  0.00    -0.382 OA
ENDBRANCH  17  18
ENDBRANCH  14  15
ENDBRANCH  13  14
TORSDOF 7
