REMARK  Name = 3VS1
REMARK  5 active torsions:
REMARK  status: ('A' for Active; 'I' for Inactive)
REMARK    1  A    between atoms: C_5  and  N_6
REMARK    2  A    between atoms: C_12  and  N_13
REMARK    3  A    between atoms: C_15  and  C_16
REMARK    4  A    between atoms: C_21  and  N_22
REMARK    5  A    between atoms: N_25  and  C_26
REMARK                            x       y       z     vdW  Elec       q    Type
REMARK                         _______ _______ _______ _____ _____    ______ ____
ROOT
ATOM      7  C   UNL     1       1.232  -4.434  13.651  0.00  0.00    -0.016 A 
ATOM      8  C   UNL     1       0.968  -5.153  14.803  0.00  0.00    +0.010 A 
ATOM      9  C   UNL     1      -0.178  -4.899  15.533  0.00  0.00    +0.024 A 
ATOM     10  C   UNL     1      -1.083  -3.936  15.115  0.00  0.00    +0.035 A 
ATOM     23  C   UNL     1      -0.844  -3.234  13.937  0.00  0.00    +0.024 A 
ATOM     24  C   UNL     1       0.314  -3.487  13.201  0.00  0.00    +0.010 A 
ENDROOT
BRANCH   7   6
ATOM      3  N   UNL     1       3.924  -6.173  11.959  0.00  0.00    -0.324 N 
ATOM      4  C   UNL     1       4.381  -4.929  11.771  0.00  0.00    +0.147 A 
ATOM      5  C   UNL     1       3.494  -4.033  12.361  0.00  0.00    +0.066 A 
ATOM      6  C   UNL     1       2.473  -4.799  12.914  0.00  0.00    +0.012 A 
ATOM     25  C   UNL     1       3.779  -2.676  12.302  0.00  0.00    +0.129 A 
ATOM     29  N   UNL     1       4.901  -2.264  11.673  0.00  0.00    -0.220 NA
ATOM     30  C   UNL     1       5.738  -3.149  11.114  0.00  0.00    +0.225 A 
ATOM     31  N   UNL     1       5.493  -4.465  11.157  0.00  0.00    -0.218 NA
ATOM     32  C   UNL     1       2.775  -6.118  12.630  0.00  0.00    +0.097 A 
BRANCH   3   2
ATOM      1  C   UNL     1       3.441  -8.376  11.052  0.00  0.00    +0.033 C 
ATOM      2  C   UNL     1       4.548  -7.432  11.500  0.00  0.00    +0.111 C 
ATOM     33  C   UNL     1       5.235  -8.104  12.686  0.00  0.00    -0.006 C 
ATOM     34  C   UNL     1       4.823  -9.570  12.699  0.00  0.00    -0.029 C 
ATOM     35  C   UNL     1       3.588  -9.688  11.815  0.00  0.00    +0.029 C 
ENDBRANCH   3   2
BRANCH  25  26
ATOM     26  N   UNL     1       2.948  -1.764  12.860  0.00  0.00    -0.343 N 
ATOM     27  H   UNL     1       2.058  -2.086  13.359  0.00  0.00    +0.144 HD
ATOM     28  H   UNL     1       3.181  -0.721  12.802  0.00  0.00    +0.144 HD
ENDBRANCH  25  26
ENDBRANCH   7   6
BRANCH  10  11
ATOM     11  N   UNL     1      -2.218  -3.786  15.926  0.00  0.00    -0.269 N 
ATOM     12  H   UNL     1      -2.327  -4.535  16.683  0.00  0.00    +0.156 HD
ATOM     13  C   UNL     1      -3.183  -2.868  15.912  0.00  0.00    +0.308 C 
ATOM     14  N   UNL     1      -4.117  -3.083  16.839  0.00  0.00    -0.269 N 
ATOM     15  H   UNL     1      -3.984  -3.946  17.457  0.00  0.00    +0.156 HD
ATOM     22  O   UNL     1      -3.216  -1.929  15.139  0.00  0.00    -0.252 OA
BRANCH  14  16
ATOM     16  C   UNL     1      -5.253  -2.305  17.094  0.00  0.00    +0.035 A 
ATOM     17  C   UNL     1      -6.460  -2.961  17.296  0.00  0.00    +0.023 A 
ATOM     18  C   UNL     1      -7.614  -2.240  17.569  0.00  0.00    +0.002 A 
ATOM     19  C   UNL     1      -7.559  -0.856  17.658  0.00  0.00    +0.000 A 
ATOM     20  C   UNL     1      -6.350  -0.199  17.471  0.00  0.00    +0.002 A 
ATOM     21  C   UNL     1      -5.196  -0.923  17.195  0.00  0.00    +0.023 A 
ENDBRANCH  14  16
ENDBRANCH  10  11
TORSDOF 5
