REMARK  Name = 3qti_ligand
REMARK  4 active torsions:
REMARK  status: ('A' for Active; 'I' for Inactive)
REMARK    1  A    between atoms: C4_7  and  C5_9
REMARK    2  A    between atoms: C5_9  and  C6_11
REMARK    3  A    between atoms: N5_10  and  C11_17
REMARK    4  A    between atoms: C7_13  and  C8_14
REMARK                            x       y       z     vdW  Elec       q    Type
REMARK                         _______ _______ _______ _____ _____    ______ ____
ROOT
ATOM      9  C   UNL     1      15.178  22.941 -18.443  0.00  0.00    +0.100 A 
ATOM     10  C   UNL     1      14.549  21.755 -18.707  0.00  0.00    +0.019 A 
ATOM     11  N   UNL     1      15.180  20.693 -18.070  0.00  0.00    -0.344 NA
ATOM     12  C   UNL     1      16.187  21.234 -17.402  0.00  0.00    +0.156 A 
ATOM     13  C   UNL     1      17.198  20.703 -16.562  0.00  0.00    +0.070 A 
ATOM     14  C   UNL     1      18.113  21.567 -16.008  0.00  0.00    +0.036 A 
ATOM     15  C   UNL     1      18.045  22.974 -16.277  0.00  0.00    +0.069 A 
ATOM     22  N   UNL     1      17.111  23.531 -17.070  0.00  0.00    -0.161 NA
ATOM     23  N   UNL     1      16.228  22.633 -17.601  0.00  0.00    -0.139 N 
ENDROOT
BRANCH  15  16
ATOM     16  C   UNL     1      19.032  23.919 -15.736  0.00  0.00    +0.024 A 
ATOM     17  C   UNL     1      20.093  23.630 -14.922  0.00  0.00    +0.175 A 
ATOM     18  N   UNL     1      20.755  24.817 -14.714  0.00  0.00    -0.204 N 
ATOM     19  C   UNL     1      21.952  25.055 -13.938  0.00  0.00    +0.245 C 
ATOM     20  N   UNL     1      20.179  25.843 -15.380  0.00  0.00    -0.212 NA
ATOM     21  C   UNL     1      19.155  25.307 -16.028  0.00  0.00    +0.078 A 
ENDBRANCH  15  16
BRANCH   9   8
ATOM      8  C   UNL     1      14.848  24.329 -18.894  0.00  0.00    +0.158 C 
BRANCH   8   7
ATOM      1  C   UNL     1      12.895  26.701 -15.768  0.00  0.00    +0.042 A 
ATOM      2  C   UNL     1      14.254  26.965 -16.160  0.00  0.00    -0.001 A 
ATOM      3  C   UNL     1      14.967  27.988 -15.496  0.00  0.00    +0.037 A 
ATOM      4  C   UNL     1      14.315  28.730 -14.481  0.00  0.00    +0.034 A 
ATOM      5  C   UNL     1      12.966  28.418 -14.181  0.00  0.00    +0.093 A 
ATOM      6  C   UNL     1      14.891  26.179 -17.157  0.00  0.00    +0.011 A 
ATOM      7  C   UNL     1      14.171  25.129 -17.790  0.00  0.00    -0.025 A 
ATOM     24  C   UNL     1      12.831  24.861 -17.404  0.00  0.00    +0.013 A 
ATOM     25  C   UNL     1      12.210  25.626 -16.387  0.00  0.00    +0.022 A 
ATOM     26  N   UNL     1      12.271  27.433 -14.803  0.00  0.00    -0.298 NA
ENDBRANCH   8   7
ENDBRANCH   9   8
TORSDOF 3
