REMARK  Name = 2xck_ligand
REMARK  8 active torsions:
REMARK  status: ('A' for Active; 'I' for Inactive)
REMARK    1  A    between atoms: C21_2  and  C20_12
REMARK    2  A    between atoms: N22_3  and  C32_4
REMARK    3  A    between atoms: C32_4  and  C33_5
REMARK    4  A    between atoms: C35_9  and  C39_10
REMARK    5  A    between atoms: N18_16  and  C24_17
REMARK    6  A    between atoms: N1_26  and  C2_27
REMARK    7  A    between atoms: C5_30  and  N25_33
REMARK    8  A    between atoms: N28_36  and  C31_37
REMARK                            x       y       z     vdW  Elec       q    Type
REMARK                         _______ _______ _______ _____ _____    ______ ____
ROOT
ATOM      3  C   UNL     1     -37.087 -28.580  27.695  0.00  0.00    +0.136 A 
ATOM      4  N   UNL     1     -37.271 -27.441  28.380  0.00  0.00    -0.171 NA
ATOM      5  N   UNL     1     -36.034 -26.922  28.708  0.00  0.00    -0.188 N 
ATOM      6  C   UNL     1     -35.087 -27.743  28.254  0.00  0.00    +0.122 A 
ATOM      7  C   UNL     1     -33.694 -27.629  28.271  0.00  0.00    +0.077 A 
ATOM      8  C   UNL     1     -32.924 -28.735  27.914  0.00  0.00    +0.015 A 
ATOM      9  C   UNL     1     -33.561 -30.063  27.635  0.00  0.00    -0.002 A 
ATOM     10  C   UNL     1     -34.894 -29.882  26.897  0.00  0.00    -0.002 A 
ATOM     11  C   UNL     1     -31.557 -28.573  27.872  0.00  0.00    +0.123 A 
ATOM     12  N   UNL     1     -31.032 -27.370  28.134  0.00  0.00    -0.245 NA
ATOM     13  C   UNL     1     -31.778 -26.299  28.461  0.00  0.00    +0.204 A 
ATOM     14  N   UNL     1     -31.170 -25.098  28.688  0.00  0.00    -0.250 N 
ATOM     15  H   UNL     1     -30.173 -25.050  28.478  0.00  0.00    +0.215 HD
ATOM     29  N   UNL     1     -33.107 -26.445  28.509  0.00  0.00    -0.260 NA
ATOM     30  C   UNL     1     -36.076 -25.666  29.505  0.00  0.00    +0.240 C 
ATOM     31  C   UNL     1     -35.720 -28.787  27.574  0.00  0.00    +0.032 A 
ENDROOT
BRANCH  14  16
ATOM     16  C   UNL     1     -31.737 -23.963  29.160  0.00  0.00    +0.053 A 
ATOM     17  C   UNL     1     -33.044 -23.639  28.834  0.00  0.00    +0.002 A 
ATOM     18  C   UNL     1     -33.622 -22.481  29.330  0.00  0.00    -0.004 A 
ATOM     19  C   UNL     1     -32.900 -21.624  30.176  0.00  0.00    +0.029 A 
ATOM     27  C   UNL     1     -31.563 -21.935  30.497  0.00  0.00    -0.004 A 
ATOM     28  C   UNL     1     -30.982 -23.108  29.977  0.00  0.00    +0.002 A 
BRANCH  19  20
ATOM     20  N   UNL     1     -33.528 -20.420  30.637  0.00  0.00    -0.319 N 
ATOM     21  C   UNL     1     -34.863 -20.073  30.122  0.00  0.00    +0.104 C 
ATOM     22  C   UNL     1     -35.683 -19.364  31.210  0.00  0.00    -0.086 C 
ATOM     23  N   UNL     1     -34.809 -18.443  31.978  0.00  0.00    +0.403 NA
ATOM     24  C   UNL     1     -35.547 -17.464  32.843  0.00  0.00    -0.131 C 
ATOM     25  C   UNL     1     -33.814 -19.275  32.688  0.00  0.00    -0.086 C 
ATOM     26  C   UNL     1     -32.812 -19.542  31.575  0.00  0.00    +0.104 C 
ENDBRANCH  19  20
ENDBRANCH  14  16
BRANCH   3   2
ATOM      1  O   UNL     1     -38.129 -30.602  26.908  0.00  0.00    -0.386 OA
ATOM      2  C   UNL     1     -38.228 -29.405  27.167  0.00  0.00    +0.217 C 
ATOM     32  N   UNL     1     -39.370 -28.703  26.969  0.00  0.00    -0.273 N 
ATOM     33  H   UNL     1     -39.289 -27.703  27.155  0.00  0.00    +0.187 HD
BRANCH  32  34
ATOM     34  C   UNL     1     -40.693 -29.130  26.536  0.00  0.00    +0.211 C 
BRANCH  34  35
ATOM     35  C   UNL     1     -41.374 -29.566  27.823  0.00  0.00    -0.008 A 
ATOM     36  C   UNL     1     -40.837 -29.169  29.078  0.00  0.00    +0.028 A 
ATOM     37  C   UNL     1     -41.459 -29.549  30.264  0.00  0.00    +0.017 A 
ATOM     38  C   UNL     1     -40.888 -29.150  31.601  0.00  0.00    +0.108 C 
ATOM     39  N   UNL     1     -42.570 -30.325  30.198  0.00  0.00    -0.308 NA
ATOM     40  C   UNL     1     -43.117 -30.715  29.009  0.00  0.00    +0.073 A 
ATOM     41  C   UNL     1     -42.532 -30.337  27.797  0.00  0.00    +0.022 A 
ENDBRANCH  34  35
ENDBRANCH  32  34
ENDBRANCH   3   2
TORSDOF 5
