REMARK  Name = 4joa_ligand
REMARK  5 active torsions:
REMARK  status: ('A' for Active; 'I' for Inactive)
REMARK    1  A    between atoms: C22_8  and  C21_9
REMARK    2  A    between atoms: C21_9  and  N17_10
REMARK    3  A    between atoms: C10_14  and  C9_15
REMARK    4  A    between atoms: C1_23  and  C11_24
REMARK    5  A    between atoms: N14_26  and  C20_27
REMARK                            x       y       z     vdW  Elec       q    Type
REMARK                         _______ _______ _______ _____ _____    ______ ____
ROOT
ATOM     12  C   UNL     1       4.858  14.252  42.488  0.00  0.00    -0.026 A 
ATOM     13  C   UNL     1       4.124  13.065  42.958  0.00  0.00    +0.001 A 
ATOM     14  C   UNL     1       4.414  12.009  43.813  0.00  0.00    +0.007 A 
ATOM     15  C   UNL     1       3.424  11.042  44.011  0.00  0.00    -0.024 A 
ATOM     22  C   UNL     1       2.199  11.176  43.345  0.00  0.00    +0.068 A 
ATOM     23  N   UNL     1       1.960  12.214  42.528  0.00  0.00    -0.289 NA
ATOM     24  C   UNL     1       2.900  13.172  42.312  0.00  0.00    +0.132 A 
ATOM     25  N   UNL     1       2.899  14.292  41.547  0.00  0.00    -0.269 N 
ATOM     26  H   UNL     1       2.101  14.591  40.969  0.00  0.00    +0.229 HD
ATOM     27  C   UNL     1       4.073  14.975  41.631  0.00  0.00    +0.120 A 
ENDROOT
BRANCH  15  16
ATOM     16  C   UNL     1       3.663   9.874  44.915  0.00  0.00    -0.000 A 
ATOM     17  C   UNL     1       4.747   9.703  45.779  0.00  0.00    +0.072 A 
ATOM     18  N   UNL     1       4.607   8.521  46.423  0.00  0.00    -0.214 NA
ATOM     19  N   UNL     1       3.418   7.961  45.942  0.00  0.00    -0.207 N 
ATOM     20  C   UNL     1       3.045   6.639  46.513  0.00  0.00    +0.243 C 
ATOM     21  C   UNL     1       2.843   8.756  45.040  0.00  0.00    +0.164 A 
ENDBRANCH  15  16
BRANCH  12  11
ATOM      8  N   UNL     1       8.188  15.495  42.734  0.00  0.00    -0.200 N 
ATOM      9  N   UNL     1       8.016  15.001  44.042  0.00  0.00    -0.216 NA
ATOM     10  C   UNL     1       6.766  14.483  44.118  0.00  0.00    +0.063 A 
ATOM     11  C   UNL     1       6.238  14.664  42.859  0.00  0.00    -0.021 A 
ATOM     28  C   UNL     1       7.099  15.289  41.984  0.00  0.00    +0.147 A 
BRANCH   8   7
ATOM      7  C   UNL     1       9.507  16.077  42.465  0.00  0.00    +0.262 C 
BRANCH   7   6
ATOM      1  F   UNL     1      11.639  19.611  45.077  0.00  0.00    -0.189 F 
ATOM      2  C   UNL     1      10.739  19.260  44.141  0.00  0.00    +0.122 A 
ATOM      3  C   UNL     1       9.971  20.236  43.511  0.00  0.00    +0.017 A 
ATOM      4  C   UNL     1       9.044  19.865  42.542  0.00  0.00    +0.021 A 
ATOM      5  C   UNL     1       8.887  18.521  42.201  0.00  0.00    +0.132 A 
ATOM      6  C   UNL     1       9.646  17.542  42.834  0.00  0.00    +0.021 A 
ATOM     29  F   UNL     1       7.988  18.181  41.259  0.00  0.00    -0.192 F 
ATOM     30  C   UNL     1      10.581  17.918  43.798  0.00  0.00    +0.028 A 
ENDBRANCH   7   6
ENDBRANCH   8   7
ENDBRANCH  12  11
TORSDOF 4
