REMARK  Name = 3r7r_ligand
REMARK  5 active torsions:
REMARK  status: ('A' for Active; 'I' for Inactive)
REMARK    1  A    between atoms: C1_1  and  N2_6
REMARK    2  A    between atoms: N1_2  and  C14_20
REMARK    3  A    between atoms: N1_2  and  C22_28
REMARK    4  A    between atoms: C11_17  and  C13_19
REMARK    5  A    between atoms: C20_26  and  C21_27
REMARK                            x       y       z     vdW  Elec       q    Type
REMARK                         _______ _______ _______ _____ _____    ______ ____
ROOT
ATOM      1  C   UNL     1      17.496  62.813  22.322  0.00  0.00    +0.059 A 
ATOM      2  C   UNL     1      17.791  61.754  23.150  0.00  0.00    +0.031 A 
ATOM      3  C   UNL     1      19.065  61.266  23.246  0.00  0.00    +0.090 A 
ATOM      4  C   UNL     1      20.095  61.866  22.476  0.00  0.00    +0.007 A 
ATOM      5  C   UNL     1      21.506  61.451  22.468  0.00  0.00    +0.029 A 
ATOM      6  C   UNL     1      22.146  60.579  23.311  0.00  0.00    -0.044 A 
ATOM      7  C   UNL     1      23.468  60.411  23.036  0.00  0.00    -0.005 A 
ATOM      8  C   UNL     1      23.954  61.124  22.003  0.00  0.00    +0.096 A 
ATOM     20  C   UNL     1      21.467  59.866  24.437  0.00  0.00    +0.078 C 
ATOM     21  C   UNL     1      20.212  59.257  23.863  0.00  0.00    +0.204 C 
ATOM     22  S   UNL     1      22.646  62.063  21.328  0.00  0.00    -0.038 S 
ATOM     23  C   UNL     1      19.778  62.928  21.653  0.00  0.00    -0.019 A 
ATOM     24  O   UNL     1      19.233  60.241  24.095  0.00  0.00    -0.317 OA
ATOM     30  C   UNL     1      18.495  63.400  21.564  0.00  0.00    -0.007 A 
ENDROOT
BRANCH   1  25
ATOM     25  N   UNL     1      16.181  63.254  22.266  0.00  0.00    -0.235 N 
ATOM     26  H   UNL     1      15.424  62.587  22.415  0.00  0.00    +0.227 HD
ATOM     27  C   UNL     1      15.886  64.537  22.020  0.00  0.00    +0.202 C 
ATOM     28  C   UNL     1      14.442  64.939  21.976  0.00  0.00    +0.173 C 
ATOM     29  O   UNL     1      16.763  65.354  21.846  0.00  0.00    -0.384 OA
ENDBRANCH   1  25
BRANCH   8   9
ATOM      9  C   UNL     1      25.337  61.078  21.574  0.00  0.00    +0.232 C 
ATOM     10  O   UNL     1      26.111  60.360  22.166  0.00  0.00    -0.383 OA
ATOM     11  N   UNL     1      25.818  61.789  20.553  0.00  0.00    -0.224 N 
ATOM     12  C   UNL     1      27.228  61.659  20.235  0.00  0.00    +0.208 C 
BRANCH  11  13
ATOM     13  C   UNL     1      25.019  62.647  19.823  0.00  0.00    +0.082 A 
ATOM     14  C   UNL     1      24.263  62.161  18.783  0.00  0.00    +0.059 A 
ATOM     15 CL   UNL     1      24.341  60.485  18.439  0.00  0.00    -0.083 Cl
ATOM     16  C   UNL     1      23.448  62.965  18.024  0.00  0.00    -0.003 A 
ATOM     17  C   UNL     1      23.402  64.304  18.317  0.00  0.00    -0.028 A 
ATOM     18  C   UNL     1      24.169  64.815  19.365  0.00  0.00    -0.017 A 
ATOM     19  C   UNL     1      24.978  63.992  20.122  0.00  0.00    +0.010 A 
ENDBRANCH  11  13
ENDBRANCH   8   9
TORSDOF 3
