REMARK  Name = I3P
REMARK  6 active torsions:
REMARK  status: ('A' for Active; 'I' for Inactive)
REMARK    1  A    between atoms: C1_1  and  O1_7
REMARK    2  A    between atoms: C4_4  and  O4_10
REMARK    3  A    between atoms: C5_5  and  O5_11
REMARK    4  A    between atoms: O1_7  and  P1_13
REMARK    5  A    between atoms: O4_10  and  P4_17
REMARK    6  A    between atoms: O5_11  and  P5_21
REMARK                            x       y       z     vdW  Elec       q    Type
REMARK                         _______ _______ _______ _____ _____    ______ ____
ROOT
ATOM      1  C   UNL     1      14.891  17.234  35.195  0.00  0.00    +0.192 C 
ATOM      7  C   UNL     1      16.166  16.454  34.906  0.00  0.00    +0.212 C 
ATOM      8  O   UNL     1      17.204  17.035  35.667  0.00  0.00    -0.218 OA
ATOM      9  C   UNL     1      16.542  16.500  33.435  0.00  0.00    +0.189 C 
ATOM     15  C   UNL     1      15.384  16.039  32.572  0.00  0.00    +0.189 C 
ATOM     16  C   UNL     1      14.106  16.821  32.872  0.00  0.00    +0.215 C 
ATOM     17  O   UNL     1      13.022  16.394  32.025  0.00  0.00    -0.218 OA
ATOM     23  C   UNL     1      13.743  16.677  34.350  0.00  0.00    +0.215 C 
ATOM     24  O   UNL     1      13.507  15.303  34.677  0.00  0.00    -0.218 OA
ENDROOT
BRANCH   1   2
ATOM      2  O   UNL     1      14.625  17.132  36.593  0.00  0.00    -0.267 OA
BRANCH   2   3
ATOM      3  P   UNL     1      14.104  18.399  37.428  0.00  0.00    +0.533 P 
ATOM      4  O   UNL     1      13.718  17.779  38.735  0.00  0.00    -0.115 OA
ATOM      5  O   UNL     1      15.273  19.357  37.474  0.00  0.00    -0.115 OA
ATOM      6  O   UNL     1      12.928  18.862  36.619  0.00  0.00    -0.222 OA
ENDBRANCH   2   3
ENDBRANCH   1   2
BRANCH   9  10
ATOM     10  O   UNL     1      17.650  15.635  33.211  0.00  0.00    -0.267 OA
BRANCH  10  11
ATOM     11  P   UNL     1      19.160  16.216  33.159  0.00  0.00    +0.533 P 
ATOM     12  O   UNL     1      19.474  16.583  34.578  0.00  0.00    -0.115 OA
ATOM     13  O   UNL     1      19.989  15.060  32.654  0.00  0.00    -0.115 OA
ATOM     14  O   UNL     1      19.134  17.407  32.230  0.00  0.00    -0.222 OA
ENDBRANCH  10  11
ENDBRANCH   9  10
BRANCH  15  18
ATOM     18  O   UNL     1      15.779  16.230  31.232  0.00  0.00    -0.267 OA
BRANCH  18  19
ATOM     19  P   UNL     1      15.506  15.112  30.111  0.00  0.00    +0.533 P 
ATOM     20  O   UNL     1      16.227  13.882  30.560  0.00  0.00    -0.115 OA
ATOM     21  O   UNL     1      14.018  14.987  30.118  0.00  0.00    -0.115 OA
ATOM     22  O   UNL     1      16.126  15.762  28.867  0.00  0.00    -0.222 OA
ENDBRANCH  18  19
ENDBRANCH  15  18
TORSDOF 6
