REMARK  Name = IQU
REMARK  4 active torsions:
REMARK  status: ('A' for Active; 'I' for Inactive)
REMARK    1  A    between atoms: C1_1  and  S_11
REMARK    2  A    between atoms: S_11  and  N1'_14
REMARK    3  A    between atoms: N1'_14  and  C2'_15
REMARK    4  A    between atoms: C2'_15  and  C3'_16
REMARK                            x       y       z     vdW  Elec       q    Type
REMARK                         _______ _______ _______ _____ _____    ______ ____
ROOT
ATOM      1  C   UNL     1      14.016 -22.932 -26.851  0.00  0.00    +0.124 A 
ATOM      2  C   UNL     1      14.933 -23.556 -25.945  0.00  0.00    +0.022 A 
ATOM      3  C   UNL     1      15.707 -22.711 -25.101  0.00  0.00    +0.021 A 
ATOM      4  C   UNL     1      16.592 -23.340 -24.193  0.00  0.00    +0.099 A 
ATOM      5  N   UNL     1      16.745 -24.653 -24.089  0.00  0.00    -0.242 NA
ATOM      6  C   UNL     1      16.020 -25.429 -24.912  0.00  0.00    +0.099 A 
ATOM      7  C   UNL     1      15.562 -21.302 -25.211  0.00  0.00    +0.002 A 
ATOM      8  C   UNL     1      14.681 -20.757 -26.105  0.00  0.00    +0.001 A 
ATOM      9  C   UNL     1      15.130 -24.949 -25.827  0.00  0.00    +0.022 A 
ATOM     10  C   UNL     1      13.901 -21.572 -26.917  0.00  0.00    +0.020 A 
ENDROOT
BRANCH   1  11
ATOM     11  S   UNL     1      13.017 -23.897 -27.953  0.00  0.00    +0.077 S 
ATOM     12  O   UNL     1      12.540 -25.049 -27.245  0.00  0.00    -0.152 OA
ATOM     17  O   UNL     1      13.768 -24.073 -29.154  0.00  0.00    -0.152 OA
BRANCH  11  13
ATOM     13  N   UNL     1      11.707 -23.032 -28.353  0.00  0.00    -0.076 NA
BRANCH  13  14
ATOM     14  C   UNL     1      10.648 -22.766 -27.372  0.00  0.00    +0.136 C 
BRANCH  14  15
ATOM     15  C   UNL     1       9.434 -22.144 -28.034  0.00  0.00    +0.130 C 
ATOM     16  N   UNL     1       8.773 -23.101 -28.967  0.00  0.00    -0.130 NA
ENDBRANCH  14  15
ENDBRANCH  13  14
ENDBRANCH  11  13
ENDBRANCH   1  11
TORSDOF 4
