REMARK  Name = 2x7o_ligand
REMARK  9 active torsions:
REMARK  status: ('A' for Active; 'I' for Inactive)
REMARK    1  A    between atoms: NAI_6  and  CAH_7
REMARK    2  A    between atoms: CAH_7  and  CAG_8
REMARK    3  A    between atoms: CAQ_13  and  NAP_14
REMARK    4  A    between atoms: NAP_14  and  CAO_15
REMARK    5  A    between atoms: CAO_15  and  CAN_16
REMARK    6  A    between atoms: CBF_30  and  C21_35
REMARK    7  A    between atoms: CAX_33  and  CAT_34
REMARK    8  A    between atoms: CAT_34  and  N25_36
REMARK    9  A    between atoms: N25_36  and  C29_37
REMARK                            x       y       z     vdW  Elec       q    Type
REMARK                         _______ _______ _______ _____ _____    ______ ____
ROOT
ATOM     10  C   UNL     1      89.285  54.125  55.326  0.00  0.00    +0.095 C 
ATOM     11  C   UNL     1      88.610  54.381  56.546  0.00  0.00    +0.067 C 
ATOM     12  C   UNL     1      87.964  53.413  57.389  0.00  0.00    +0.203 C 
ATOM     13  N   UNL     1      87.410  54.016  58.442  0.00  0.00    -0.243 N 
ATOM     14  H   UNL     1      86.880  53.537  59.170  0.00  0.00    +0.223 HD
ATOM     15  C   UNL     1      87.649  55.375  58.415  0.00  0.00    +0.068 A 
ATOM     16  C   UNL     1      87.269  56.401  59.287  0.00  0.00    +0.023 A 
ATOM     17  C   UNL     1      87.655  57.739  59.028  0.00  0.00    +0.028 A 
ATOM     24  C   UNL     1      88.398  58.051  57.866  0.00  0.00    -0.013 A 
ATOM     25  C   UNL     1      88.760  57.040  56.992  0.00  0.00    -0.021 A 
ATOM     26  O   UNL     1      87.892  52.216  57.178  0.00  0.00    -0.397 OA
ATOM     27  C   UNL     1      88.399  55.685  57.244  0.00  0.00    -0.007 A 
ENDROOT
BRANCH  10  28
ATOM     28  C   UNL     1      89.877  55.257  54.575  0.00  0.00    +0.024 A 
ATOM     29  C   UNL     1      91.139  55.800  54.928  0.00  0.00    +0.022 A 
ATOM     30  C   UNL     1      91.656  56.878  54.195  0.00  0.00    +0.006 A 
ATOM     31  C   UNL     1      90.938  57.425  53.117  0.00  0.00    +0.008 A 
ATOM     32  C   UNL     1      89.687  56.896  52.766  0.00  0.00    +0.006 A 
ATOM     33  C   UNL     1      89.156  55.821  53.489  0.00  0.00    +0.022 A 
ENDBRANCH  10  28
BRANCH  17  18
ATOM     18  C   UNL     1      87.253  58.813  59.960  0.00  0.00    +0.197 C 
ATOM     19  N   UNL     1      87.724  58.875  61.250  0.00  0.00    -0.277 N 
ATOM     20  C   UNL     1      88.665  57.892  61.810  0.00  0.00    +0.167 C 
ATOM     23  O   UNL     1      86.470  59.650  59.529  0.00  0.00    -0.389 OA
BRANCH  19  21
ATOM     21  C   UNL     1      87.300  59.947  62.150  0.00  0.00    +0.134 C 
ATOM     22  C   UNL     1      86.299  59.385  63.162  0.00  0.00    +0.030 C 
ENDBRANCH  19  21
ENDBRANCH  17  18
BRANCH  10   8
ATOM      8  N   UNL     1      89.335  52.807  54.877  0.00  0.00    -0.263 N 
ATOM      9  H   UNL     1      88.718  52.173  55.385  0.00  0.00    +0.219 HD
BRANCH   8   7
ATOM      4  C   UNL     1      91.500  50.774  51.847  0.00  0.00    -0.073 A 
ATOM      5  C   UNL     1      91.074  50.106  53.010  0.00  0.00    -0.018 A 
ATOM      6  C   UNL     1      90.360  50.803  54.000  0.00  0.00    +0.009 A 
ATOM      7  C   UNL     1      90.079  52.182  53.850  0.00  0.00    +0.060 A 
ATOM     34  C   UNL     1      90.495  52.832  52.663  0.00  0.00    +0.009 A 
ATOM     35  C   UNL     1      91.209  52.138  51.677  0.00  0.00    -0.018 A 
BRANCH   4   3
ATOM      3  C   UNL     1      92.262  50.030  50.776  0.00  0.00    -0.049 C 
BRANCH   3   2
ATOM      1  C   UNL     1      92.313  50.358  48.352  0.00  0.00    -0.107 C 
ATOM      2  N   UNL     1      91.476  50.041  49.528  0.00  0.00    +0.407 NA
ATOM     36  C   UNL     1      90.694  48.796  49.352  0.00  0.00    -0.107 C 
ATOM     37  C   UNL     1      89.758  48.918  48.133  0.00  0.00    -0.022 C 
ATOM     38  C   UNL     1      90.554  49.290  46.864  0.00  0.00    -0.004 C 
ATOM     39  C   UNL     1      91.429  50.540  47.101  0.00  0.00    -0.022 C 
ENDBRANCH   3   2
ENDBRANCH   4   3
ENDBRANCH   8   7
ENDBRANCH  10   8
TORSDOF 7
