REMARK  Name = 6XH
REMARK  3 active torsions:
REMARK  status: ('A' for Active; 'I' for Inactive)
REMARK    1  A    between atoms: C12_6  and  N11_25
REMARK    2  A    between atoms: C19_10  and  N18_26
REMARK    3  A    between atoms: C22_13  and  C26_16
REMARK                            x       y       z     vdW  Elec       q    Type
REMARK                         _______ _______ _______ _____ _____    ______ ____
ROOT
ATOM      1  C   UNL     1      -0.665 -17.393 -21.747  0.00  0.00    +0.058 A 
ATOM      2  C   UNL     1      -0.657 -18.771 -21.149  0.00  0.00    +0.067 C 
ATOM      3  C   UNL     1      -0.273 -18.660 -19.676  0.00  0.00    +0.100 C 
ATOM      4  N   UNL     1       0.836 -17.720 -19.496  0.00  0.00    -0.275 N 
ATOM      5  C   UNL     1       2.033 -18.172 -19.040  0.00  0.00    +0.226 C 
ATOM      6  C   UNL     1       3.155 -17.184 -18.817  0.00  0.00    +0.095 C 
ATOM      7  O   UNL     1       2.205 -19.370 -18.826  0.00  0.00    -0.275 OA
ATOM      8  C   UNL     1       0.556 -16.306 -19.821  0.00  0.00    +0.124 C 
ATOM      9  C   UNL     1      -0.129 -16.286 -21.178  0.00  0.00    +0.046 A 
ATOM     10  C   UNL     1      -0.370 -15.230 -22.083  0.00  0.00    +0.170 A 
ATOM     11  N   UNL     1       0.021 -13.913 -21.886  0.00  0.00    -0.191 NA
ATOM     25  N   UNL     1      -0.998 -15.675 -23.151  0.00  0.00    -0.153 NA
ATOM     26  N   UNL     1      -1.194 -17.035 -22.942  0.00  0.00    -0.253 N 
ENDROOT
BRANCH  11  12
ATOM     12  C   UNL     1      -0.312 -12.807 -22.696  0.00  0.00    +0.100 A 
ATOM     13  C   UNL     1       0.192 -11.570 -22.321  0.00  0.00    +0.155 A 
ATOM     14  F   UNL     1       0.965 -11.516 -21.214  0.00  0.00    -0.203 F 
ATOM     15  C   UNL     1      -0.063 -10.409 -23.027  0.00  0.00    +0.031 A 
ATOM     16  C   UNL     1      -0.863 -10.462 -24.169  0.00  0.00    +0.005 A 
ATOM     17  C   UNL     1      -1.389 -11.697 -24.559  0.00  0.00    +0.002 A 
ATOM     24  C   UNL     1      -1.121 -12.857 -23.836  0.00  0.00    +0.019 A 
BRANCH  16  18
ATOM     18  C   UNL     1      -1.162  -9.212 -24.927  0.00  0.00    +0.040 A 
ATOM     19  C   UNL     1      -1.034  -7.918 -24.488  0.00  0.00    +0.097 A 
ATOM     20  N   UNL     1      -1.418  -7.080 -25.468  0.00  0.00    -0.247 N 
ATOM     21  C   UNL     1      -1.429  -5.619 -25.423  0.00  0.00    +0.154 C 
ATOM     22  N   UNL     1      -1.803  -7.874 -26.541  0.00  0.00    -0.168 NA
ATOM     23  C   UNL     1      -1.669  -9.137 -26.236  0.00  0.00    +0.122 A 
ENDBRANCH  16  18
ENDBRANCH  11  12
BRANCH  26  27
ATOM     27  C   UNL     1      -1.851 -17.897 -23.911  0.00  0.00    +0.137 C 
ATOM     28  C   UNL     1      -3.170 -17.290 -24.424  0.00  0.00    +0.059 C 
ATOM     29  C   UNL     1      -3.241 -17.819 -25.882  0.00  0.00    +0.144 C 
ATOM     30  O   UNL     1      -1.930 -18.357 -26.181  0.00  0.00    -0.352 OA
ATOM     31  C   UNL     1      -0.987 -17.976 -25.178  0.00  0.00    +0.166 C 
ENDBRANCH  26  27
TORSDOF 3
