REMARK  Name = 3os3_ligand
REMARK  14 active torsions:
REMARK  status: ('A' for Active; 'I' for Inactive)
REMARK    1  A    between atoms: C4_1  and  C25_25
REMARK    2  A    between atoms: C6_3  and  C19_20
REMARK    3  A    between atoms: C13_5  and  C14_17
REMARK    4  A    between atoms: C22_8  and  O21_22
REMARK    5  A    between atoms: C22_8  and  C23_23
REMARK    6  A    between atoms: C1_9  and  N2_10
REMARK    7  A    between atoms: N2_10  and  C3_11
REMARK    8  A    between atoms: C19_20  and  N20_21
REMARK    9  A    between atoms: N20_21  and  O21_22
REMARK   10  A    between atoms: C23_23  and  O24_24
REMARK   11  A    between atoms: N27_27  and  O28_28
REMARK   12  A    between atoms: O28_28  and  C29_29
REMARK   13  A    between atoms: C29_29  and  C30_30
REMARK   14  A    between atoms: C30_30  and  O31_31
REMARK                            x       y       z     vdW  Elec       q    Type
REMARK                         _______ _______ _______ _____ _____    ______ ____
ROOT
ATOM      1  C   UNL     1      10.352  39.967  -4.033  0.00  0.00    +0.061 A 
ATOM     11  C   UNL     1       9.159  39.608  -4.748  0.00  0.00    +0.105 A 
ATOM     12  C   UNL     1       8.452  38.459  -4.282  0.00  0.00    +0.186 A 
ATOM     13  F   UNL     1       7.350  38.069  -4.901  0.00  0.00    -0.193 F 
ATOM     14  C   UNL     1       8.890  37.703  -3.179  0.00  0.00    +0.167 A 
ATOM     15  F   UNL     1       8.176  36.649  -2.808  0.00  0.00    -0.189 F 
ATOM     16  C   UNL     1      10.060  38.061  -2.488  0.00  0.00    +0.029 A 
ATOM     37  C   UNL     1      10.801  39.192  -2.909  0.00  0.00    +0.003 A 
ENDROOT
BRANCH   1   2
ATOM      2  C   UNL     1      11.169  41.133  -4.443  0.00  0.00    +0.215 C 
ATOM      3  N   UNL     1      12.073  41.693  -3.545  0.00  0.00    -0.163 N 
ATOM      4  H   UNL     1      12.038  41.453  -2.554  0.00  0.00    +0.221 HD
ATOM     10  O   UNL     1      11.033  41.548  -5.592  0.00  0.00    -0.394 OA
BRANCH   3   5
ATOM      5  O   UNL     1      13.053  42.613  -4.040  0.00  0.00    -0.255 OA
BRANCH   5   6
ATOM      6  C   UNL     1      14.294  41.921  -4.056  0.00  0.00    +0.225 C 
BRANCH   6   7
ATOM      7  C   UNL     1      14.633  41.627  -5.490  0.00  0.00    +0.187 C 
BRANCH   7   8
ATOM      8  O   UNL     1      15.618  42.549  -5.889  0.00  0.00    -0.393 OA
ATOM      9  H   UNL     1      15.856  42.385  -6.805  0.00  0.00    +0.209 HD
ENDBRANCH   7   8
ENDBRANCH   6   7
ENDBRANCH   5   6
ENDBRANCH   3   5
ENDBRANCH   1   2
BRANCH  11  26
ATOM     26  N   UNL     1       8.735  40.384  -5.870  0.00  0.00    -0.274 N 
ATOM     27  H   UNL     1       9.467  40.535  -6.564  0.00  0.00    +0.207 HD
BRANCH  26  28
ATOM     28  C   UNL     1       7.493  40.988  -6.211  0.00  0.00    +0.094 A 
ATOM     29  C   UNL     1       6.277  40.833  -5.480  0.00  0.00    +0.013 A 
ATOM     30  C   UNL     1       5.089  41.469  -5.891  0.00  0.00    -0.003 A 
ATOM     31  C   UNL     1       5.093  42.285  -7.038  0.00  0.00    +0.011 A 
ATOM     32  C   UNL     1       6.271  42.463  -7.785  0.00  0.00    +0.036 A 
ATOM     35  C   UNL     1       7.454  41.822  -7.359  0.00  0.00    +0.155 A 
ATOM     36  F   UNL     1       8.565  41.996  -8.069  0.00  0.00    -0.191 F 
BRANCH  31  33
ATOM     33  C   UNL     1       3.903  42.918  -7.440  0.00  0.00    -0.081 C 
ATOM     34  C   UNL     1       2.889  43.446  -7.772  0.00  0.00    -0.002 C 
ENDBRANCH  31  33
ENDBRANCH  26  28
ENDBRANCH  11  26
BRANCH  16  17
ATOM     17  C   UNL     1      10.498  37.242  -1.353  0.00  0.00    +0.218 C 
BRANCH  17  18
ATOM     18  N   UNL     1      10.583  37.675  -0.134  0.00  0.00    +0.399 N 
ATOM     19  H   UNL     1      10.573  38.695  -0.126  0.00  0.00    +0.237 HD
ATOM     20  H   UNL     1       9.789  37.338   0.411  0.00  0.00    +0.237 HD
BRANCH  18  21
ATOM     21  O   UNL     1      11.796  37.198   0.431  0.00  0.00    -0.326 OA
BRANCH  21  22
ATOM     22  C   UNL     1      12.497  38.330   1.000  0.00  0.00    +0.242 C 
BRANCH  22  23
ATOM     23  C   UNL     1      11.793  38.788   2.264  0.00  0.00    +0.189 C 
BRANCH  23  24
ATOM     24  O   UNL     1      12.324  38.048   3.364  0.00  0.00    -0.393 OA
ATOM     25  H   UNL     1      11.890  38.325   4.174  0.00  0.00    +0.209 HD
ENDBRANCH  23  24
ENDBRANCH  22  23
ENDBRANCH  21  22
ENDBRANCH  18  21
ENDBRANCH  17  18
ENDBRANCH  16  17
TORSDOF 14
