REMARK  Name = 5W85
REMARK  9 active torsions:
REMARK  status: ('A' for Active; 'I' for Inactive)
REMARK    1  A    between atoms: CA_1  and  C_4
REMARK    2  A    between atoms: CA_1  and  N_19
REMARK    3  A    between atoms: CA_1  and  CB_24
REMARK    4  A    between atoms: CG_3  and  CB_24
REMARK    5  A    between atoms: C_4  and  O_25
REMARK    6  A    between atoms: C_9  and  N_20
REMARK    7  A    between atoms: C_11  and  N_22
REMARK    8  A    between atoms: C_13  and  C_21
REMARK    9  A    between atoms: C_18  and  N_19
REMARK                            x       y       z     vdW  Elec       q    Type
REMARK                         _______ _______ _______ _____ _____    ______ ____
ROOT
ATOM     11  C   UNK A   0       7.227  42.424   8.196  0.00  0.00    +0.044 A 
ATOM     12  C   UNK A   0       8.612  42.599   8.201  0.00  0.00    +0.067 A 
ATOM     13  C   UNK A   0       9.274  42.806   6.988  0.00  0.00    +0.125 A 
ATOM     14  N   UNK A   0      10.647  42.995   6.900  0.00  0.00    -0.299 N 
ATOM     15  H   UNK A   0      11.017  43.139   5.907  0.00  0.00    +0.154 HD
ATOM     25  N   UNK A   0       8.636  42.838   5.812  0.00  0.00    -0.239 NA
ATOM     26  C   UNK A   0       7.308  42.672   5.815  0.00  0.00    +0.127 A 
ATOM     27  C   UNK A   0       6.545  42.459   6.960  0.00  0.00    +0.076 A 
ENDROOT
BRANCH  14  16
ATOM     16  C   UNK A   0      11.628  43.028   7.905  0.00  0.00    +0.034 A 
ATOM     17  C   UNK A   0      12.788  42.259   7.771  0.00  0.00    +0.025 A 
ATOM     18  C   UNK A   0      13.764  42.271   8.760  0.00  0.00    +0.030 A 
ATOM     19  C   UNK A   0      13.590  43.058   9.900  0.00  0.00    +0.078 A 
ATOM     20  N   UNK A   0      14.473  43.170  10.975  0.00  0.00    -0.247 NA
ATOM     21  C   UNK A   0      13.994  43.984  11.859  0.00  0.00    +0.157 A 
ATOM     22  S   UNK A   0      12.451  44.703  11.517  0.00  0.00    -0.075 S 
ATOM     23  C   UNK A   0      12.425  43.824  10.020  0.00  0.00    +0.041 A 
ATOM     24  C   UNK A   0      11.441  43.823   9.038  0.00  0.00    +0.040 A 
ENDBRANCH  14  16
BRANCH  27  28
ATOM     28  C   UNK A   0       5.060  42.285   6.893  0.00  0.00    +0.247 C 
ATOM     29  O   UNK A   0       4.335  42.741   7.775  0.00  0.00    -0.270 OA
ATOM     30  N   UNK A   0       4.583  41.619   5.843  0.00  0.00    -0.314 N 
ATOM     31  H   UNK A   0       5.272  41.200   5.139  0.00  0.00    +0.149 HD
ATOM     32  C   UNK A   0       3.158  41.443   5.622  0.00  0.00    +0.128 C 
ENDBRANCH  27  28
BRANCH  11   9
ATOM      9  N   PHE A   1       6.509  42.214   9.371  0.00  0.00    -0.338 N 
ATOM     10  H   PHE A   1       5.494  41.886   9.282  0.00  0.00    +0.146 HD
BRANCH   9   1
ATOM      1  CA  PHE A   1       7.045  42.410  10.718  0.00  0.00    +0.100 C 
BRANCH   1   2
ATOM      2  CB  PHE A   1       6.999  43.900  11.106  0.00  0.00    +0.059 C 
BRANCH   2   3
ATOM      3  CG  PHE A   1       7.675  44.256  12.408  0.00  0.00    -0.045 A 
ATOM      4  CD2 PHE A   1       9.040  44.055  12.582  0.00  0.00    +0.003 A 
ATOM      5  CE2 PHE A   1       9.659  44.384  13.778  0.00  0.00    +0.000 A 
ATOM      6  CZ  PHE A   1       8.920  44.916  14.821  0.00  0.00    +0.000 A 
ATOM      7  CE1 PHE A   1       7.561  45.121  14.662  0.00  0.00    +0.000 A 
ATOM      8  CD1 PHE A   1       6.943  44.791  13.465  0.00  0.00    +0.003 A 
ENDBRANCH   2   3
ENDBRANCH   1   2
BRANCH   1  33
ATOM     33  C   PHE A   1       6.224  41.624  11.730  0.00  0.00    +0.178 C 
BRANCH  33  34
ATOM     34  O   PHE A   1       4.825  41.863  11.570  0.00  0.00    -0.393 OA
ATOM     35  H   PHE A   1       4.626  42.885  11.704  0.00  0.00    +0.209 HD
ENDBRANCH  33  34
ENDBRANCH   1  33
ENDBRANCH   9   1
ENDBRANCH  11   9
TORSDOF 8
