REMARK  Name = 6NW2
REMARK  2 active torsions:
REMARK  status: ('A' for Active; 'I' for Inactive)
REMARK    1  A    between atoms: C14_2  and  N13_13
REMARK    2  A    between atoms: C11_5  and  C7_6
REMARK                            x       y       z     vdW  Elec       q    Type
REMARK                         _______ _______ _______ _____ _____    ______ ____
ROOT
ATOM      9  C   UNL     1       8.249 -13.886 -27.245  0.00  0.00    +0.600 C 
ATOM     10  N   UNL     1       8.083 -15.177 -26.888  0.00  0.00    -0.400 NA
ATOM     24  O   UNL     1       8.207 -12.994 -26.422  0.00  0.00    -0.550 OA
ENDROOT
BRANCH  10  11
ATOM     11  C   UNL     1       7.834 -15.566 -25.521  0.00  0.00    +0.050 C 
ATOM     12  C   UNL     1       8.198 -17.031 -25.474  0.00  0.00    +0.600 C 
ATOM     13  O   UNL     1       8.447 -17.628 -26.499  0.00  0.00    -0.550 OA
ATOM     14  N   UNL     1       8.256 -17.674 -24.292  0.00  0.00    -0.200 N 
ATOM     15  C   UNL     1       8.614 -19.102 -24.276  0.00  0.00    -0.050 C 
ATOM     16  C   UNL     1       7.949 -16.979 -23.106  0.00  0.00    +0.050 A 
ATOM     17  C   UNL     1       8.780 -17.063 -22.000  0.00  0.00    -0.130 A 
ATOM     18  C   UNL     1       8.454 -16.397 -20.825  0.00  0.00    -0.130 A 
ATOM     19  C   UNL     1       7.305 -15.630 -20.750  0.00  0.00    -0.130 A 
ATOM     20  C   UNL     1       6.464 -15.536 -21.847  0.00  0.00    -0.130 A 
ATOM     21  C   UNL     1       6.779 -16.208 -23.023  0.00  0.00    +0.185 A 
ATOM     22  O   UNL     1       5.944 -16.109 -24.089  0.00  0.00    -0.365 OA
ATOM     23  C   UNL     1       6.361 -15.328 -25.205  0.00  0.00    +0.080 C 
ENDBRANCH  10  11
BRANCH   9   6
ATOM      1  C   UNL     1       9.092 -11.913 -31.832  0.00  0.00    -0.100 C 
ATOM      2  C   UNL     1       8.610 -10.511 -31.421  0.00  0.00    -0.100 C 
ATOM      3  C   UNL     1       9.049 -10.138 -30.005  0.00  0.00    -0.050 C 
ATOM      4  C   UNL     1       8.359 -11.044 -28.971  0.00  0.00    -0.100 C 
ATOM      5  C   UNL     1       8.593 -12.478 -29.373  0.00  0.00    +0.050 A 
ATOM      6  C   UNL     1       8.524 -13.655 -28.657  0.00  0.00    +0.050 A 
ATOM      7  N   UNL     1       8.821 -14.672 -29.523  0.00  0.00    -0.100 NA
ATOM      8  N   UNL     1       9.047 -14.171 -30.682  0.00  0.00    -0.500 NA
ATOM     25  C   UNL     1       8.694  -8.667 -29.712  0.00  0.00    -0.150 C 
ATOM     26  C   UNL     1       8.910 -12.876 -30.679  0.00  0.00    +0.200 A 
ENDBRANCH   9   6
TORSDOF 2
