REMARK  Name = 3mvh_ligand
REMARK  7 active torsions:
REMARK  status: ('A' for Active; 'I' for Inactive)
REMARK    1  A    between atoms: C1_1  and  C2_2
REMARK    2  A    between atoms: C2_2  and  C3_3
REMARK    3  A    between atoms: C10_10  and  N11_11
REMARK    4  A    between atoms: C14_14  and  N15_15
REMARK    5  A    between atoms: C14_14  and  C16_16
REMARK    6  A    between atoms: C16_16  and  N17_17
REMARK    7  A    between atoms: C18_18  and  C20_20
REMARK                            x       y       z     vdW  Elec       q    Type
REMARK                         _______ _______ _______ _____ _____    ______ ____
ROOT
ATOM      6  N   UNL     1      17.391  -4.422  28.163  0.00  0.00    -0.282 N 
ATOM      7  C   UNL     1      17.811  -3.199  27.585  0.00  0.00    +0.198 C 
ATOM      8  C   UNL     1      18.618  -3.768  26.358  0.00  0.00    +0.030 C 
ATOM     26  C   UNL     1      19.503  -4.730  27.068  0.00  0.00    +0.087 C 
ATOM     27  C   UNL     1      18.499  -5.420  28.024  0.00  0.00    +0.145 C 
ENDROOT
BRANCH   6   5
ATOM      3  C   UNL     1      14.632  -2.492  28.778  0.00  0.00    -0.037 A 
ATOM      4  C   UNL     1      15.045  -3.874  28.904  0.00  0.00    +0.049 A 
ATOM      5  C   UNL     1      16.168  -4.724  28.661  0.00  0.00    +0.122 A 
ATOM     28  N   UNL     1      16.098  -6.027  29.016  0.00  0.00    -0.274 NA
ATOM     29  C   UNL     1      14.994  -6.599  29.552  0.00  0.00    +0.147 A 
ATOM     30  N   UNL     1      13.894  -5.838  29.723  0.00  0.00    -0.279 NA
ATOM     31  C   UNL     1      13.946  -4.506  29.426  0.00  0.00    +0.132 A 
ATOM     32  N   UNL     1      12.920  -3.638  29.579  0.00  0.00    -0.276 N 
ATOM     33  H   UNL     1      11.976  -3.884  29.909  0.00  0.00    +0.227 HD
ATOM     34  C   UNL     1      13.326  -2.404  29.232  0.00  0.00    +0.099 A 
BRANCH   3   2
ATOM      1  C   UNL     1      16.329  -0.758  29.317  0.00  0.00    +0.013 C 
ATOM      2  C   UNL     1      15.398  -1.302  28.248  0.00  0.00    +0.033 C 
ENDBRANCH   3   2
ENDBRANCH   6   5
BRANCH   8  22
ATOM     22  N   UNL     1      17.977  -4.766  25.501  0.00  0.00    +0.226 N 
ATOM     23  H   UNL     1      18.676  -5.221  24.935  0.00  0.00    +0.200 HD
ATOM     24  H   UNL     1      17.511  -5.452  26.074  0.00  0.00    +0.200 HD
ATOM     25  H   UNL     1      17.303  -4.313  24.904  0.00  0.00    +0.200 HD
ENDBRANCH   8  22
BRANCH   8   9
ATOM      9  C   UNL     1      19.229  -2.740  25.398  0.00  0.00    +0.194 C 
BRANCH   9  10
ATOM     10  N   UNL     1      19.719  -1.548  26.097  0.00  0.00    -0.282 N 
ATOM     11  H   UNL     1      19.114  -0.757  26.192  0.00  0.00    +0.184 HD
ATOM     12  C   UNL     1      20.920  -1.491  26.597  0.00  0.00    +0.201 C 
ATOM     21  O   UNL     1      21.683  -2.437  26.477  0.00  0.00    -0.389 OA
BRANCH  12  13
ATOM     13  C   UNL     1      21.425  -0.289  27.310  0.00  0.00    +0.079 A 
ATOM     14  C   UNL     1      22.360  -0.510  28.307  0.00  0.00    +0.152 A 
ATOM     15  F   UNL     1      22.736  -1.757  28.628  0.00  0.00    -0.178 F 
ATOM     16  C   UNL     1      22.868   0.556  29.021  0.00  0.00    +0.071 A 
ATOM     17  C   UNL     1      22.444   1.836  28.708  0.00  0.00    +0.136 A 
ATOM     18  F   UNL     1      22.975   2.830  29.404  0.00  0.00    -0.180 F 
ATOM     19  C   UNL     1      21.538   2.090  27.685  0.00  0.00    +0.032 A 
ATOM     20  C   UNL     1      21.020   1.006  26.973  0.00  0.00    +0.020 A 
ENDBRANCH  12  13
ENDBRANCH   9  10
ENDBRANCH   8   9
TORSDOF 6
