REMARK  Name = JQ1
REMARK  5 active torsions:
REMARK  status: ('A' for Active; 'I' for Inactive)
REMARK    1  A    between atoms: CAM_13  and  CAS_19
REMARK    2  A    between atoms: CAM_13  and  CBC_29
REMARK    3  A    between atoms: OAQ_17  and  CAS_19
REMARK    4  A    between atoms: OAQ_17  and  CBE_31
REMARK    5  A    between atoms: CAT_20  and  CAW_23
REMARK                            x       y       z     vdW  Elec       q    Type
REMARK                         _______ _______ _______ _____ _____    ______ ____
ROOT
ATOM      1  C   UNL     1      40.505   6.647  10.728  0.00  0.00    +0.074 C 
ATOM      2  C   UNL     1      41.988   6.202  10.676  0.00  0.00    +0.148 A 
ATOM      3  N   UNL     1      42.887   6.351  11.647  0.00  0.00    -0.274 N 
ATOM      4  C   UNL     1      42.773   6.910  12.866  0.00  0.00    +0.097 A 
ATOM      5  C   UNL     1      43.336   6.437  14.084  0.00  0.00    +0.036 A 
ATOM      6  C   UNL     1      43.044   7.287  15.193  0.00  0.00    -0.016 A 
ATOM      7  C   UNL     1      43.489   7.098  16.658  0.00  0.00    +0.031 C 
ATOM      8  C   UNL     1      42.265   8.402  14.849  0.00  0.00    +0.005 A 
ATOM      9  C   UNL     1      41.760   9.445  15.848  0.00  0.00    +0.038 C 
ATOM     10  C   UNL     1      44.107   5.241  14.179  0.00  0.00    +0.078 C 
ATOM     17  N   UNL     1      44.960   4.905  13.217  0.00  0.00    -0.264 NA
ATOM     18  C   UNL     1      45.271   5.807  12.028  0.00  0.00    +0.173 C 
ATOM     27  S   UNL     1      41.922   8.356  13.181  0.00  0.00    -0.074 S 
ATOM     28  C   UNL     1      43.998   5.844  11.171  0.00  0.00    +0.170 A 
ATOM     29  N   UNL     1      43.800   5.360   9.925  0.00  0.00    -0.131 NA
ATOM     30  N   UNL     1      42.601   5.579   9.653  0.00  0.00    -0.133 NA
ENDROOT
BRANCH  10  11
ATOM     11  C   UNL     1      43.768   4.236  15.118  0.00  0.00    +0.017 A 
ATOM     12  C   UNL     1      42.512   4.282  15.730  0.00  0.00    +0.001 A 
ATOM     13  C   UNL     1      42.082   3.305  16.640  0.00  0.00    +0.000 A 
ATOM     14  C   UNL     1      42.944   2.262  16.948  0.00  0.00    +0.000 A 
ATOM     15  C   UNL     1      44.208   2.186  16.330  0.00  0.00    +0.000 A 
ATOM     16  C   UNL     1      44.613   3.155  15.417  0.00  0.00    +0.001 A 
ENDBRANCH  10  11
BRANCH  18  19
ATOM     19  C   UNL     1      46.442   5.288  11.246  0.00  0.00    +0.142 C 
BRANCH  19  20
ATOM     20  C   UNL     1      47.604   5.199  12.277  0.00  0.00    +0.319 C 
ATOM     26  O   UNL     1      48.583   4.529  12.038  0.00  0.00    -0.250 OA
BRANCH  20  21
ATOM     21  O   UNL     1      47.539   5.885  13.445  0.00  0.00    -0.456 OA
BRANCH  21  22
ATOM     22  C   UNL     1      48.535   5.641  14.503  0.00  0.00    +0.136 C 
ATOM     23  C   UNL     1      47.959   6.504  15.625  0.00  0.00    +0.044 C 
ATOM     24  C   UNL     1      48.658   4.147  14.857  0.00  0.00    +0.044 C 
ATOM     25  C   UNL     1      49.925   6.130  14.110  0.00  0.00    +0.044 C 
ENDBRANCH  21  22
ENDBRANCH  20  21
ENDBRANCH  19  20
ENDBRANCH  18  19
TORSDOF 5
