REMARK  Name = FQJ
REMARK  3 active torsions:
REMARK  status: ('A' for Active; 'I' for Inactive)
REMARK    1  A    between atoms: C6_3  and  C7_4
REMARK    2  A    between atoms: C1_10  and  N5_12
REMARK    3  A    between atoms: N2_11  and  C12_15
REMARK                            x       y       z     vdW  Elec       q    Type
REMARK                         _______ _______ _______ _____ _____    ______ ____
ROOT
ATOM      1  N   UNL     1     -16.144 -10.294  18.404  0.00  0.00    -0.168 NA
ATOM      2  C   UNL     1     -17.048  -9.474  17.883  0.00  0.00    +0.082 A 
ATOM      3  C   UNL     1     -18.441  -9.444  18.420  0.00  0.00    +0.054 C 
ATOM      4  C   UNL     1     -16.506  -8.719  16.838  0.00  0.00    +0.053 A 
ATOM      5  C   UNL     1     -15.201  -9.086  16.707  0.00  0.00    +0.157 A 
ATOM     17  N   UNL     1     -14.986 -10.050  17.674  0.00  0.00    -0.215 N 
ENDROOT
BRANCH  17  18
ATOM     18  C   UNL     1     -13.778 -10.708  18.066  0.00  0.00    +0.084 A 
ATOM     19  C   UNL     1     -13.803 -12.044  18.454  0.00  0.00    +0.019 A 
ATOM     20  C   UNL     1     -12.624 -12.667  18.838  0.00  0.00    +0.002 A 
ATOM     21  C   UNL     1     -11.431 -11.981  18.814  0.00  0.00    +0.000 A 
ATOM     22  C   UNL     1     -11.405 -10.659  18.437  0.00  0.00    +0.002 A 
ATOM     23  C   UNL     1     -12.573 -10.010  18.078  0.00  0.00    +0.019 A 
ENDBRANCH  17  18
BRANCH   5   6
ATOM      6  N   UNL     1     -14.226  -8.588  15.867  0.00  0.00    -0.157 NA
ATOM      7  C   UNL     1     -14.067  -9.105  14.614  0.00  0.00    +0.271 C 
ATOM      8  O   UNL     1     -14.828  -9.954  14.161  0.00  0.00    -0.268 OA
BRANCH   7   9
ATOM      9  C   UNL     1     -12.861  -8.627  13.851  0.00  0.00    +0.066 A 
ATOM     10  C   UNL     1     -11.611  -8.643  14.465  0.00  0.00    +0.006 A 
ATOM     11  C   UNL     1     -10.464  -8.331  13.755  0.00  0.00    +0.012 A 
ATOM     12  C   UNL     1     -10.567  -7.987  12.425  0.00  0.00    +0.059 A 
ATOM     13  C   UNL     1     -11.787  -7.957  11.787  0.00  0.00    +0.023 A 
ATOM     14 CL   UNL     1      -9.133  -7.578  11.528  0.00  0.00    -0.082 Cl
ATOM     15  C   UNL     1     -12.923  -8.259  12.507  0.00  0.00    +0.063 A 
ATOM     16 CL   UNL     1     -14.446  -8.107  11.715  0.00  0.00    -0.082 Cl
ENDBRANCH   7   9
ENDBRANCH   5   6
TORSDOF 3
