REMARK  Name = 4QP6
REMARK  0 active torsions:
REMARK  status: ('A' for Active; 'I' for Inactive)
REMARK                            x       y       z     vdW  Elec       q    Type
REMARK                         _______ _______ _______ _____ _____    ______ ____
ROOT
ATOM      1  N   UNL     1     -17.412 -33.311 -28.442  0.00  0.00    -0.234 NA
ATOM      2  C   UNL     1     -16.828 -32.751 -27.338  0.00  0.00    +0.115 A 
ATOM      3  C   UNL     1     -16.447 -33.711 -26.479  0.00  0.00    +0.051 A 
ATOM      4  C   UNL     1     -16.821 -34.993 -27.081  0.00  0.00    +0.109 A 
ATOM      5  N   UNL     1     -16.700 -36.262 -26.702  0.00  0.00    -0.250 NA
ATOM      6  C   UNL     1     -17.149 -37.222 -27.488  0.00  0.00    +0.131 A 
ATOM      7  C   UNL     1     -17.744 -36.914 -28.705  0.00  0.00    +0.133 A 
ATOM      8  N   UNL     1     -17.869 -35.658 -29.096  0.00  0.00    -0.233 NA
ATOM      9  C   UNL     1     -17.425 -34.679 -28.319  0.00  0.00    +0.178 A 
ENDROOT
TORSDOF 0
