REMARK  Name = 3fqe_ligand
REMARK  6 active torsions:
REMARK  status: ('A' for Active; 'I' for Inactive)
REMARK    1  A    between atoms: C4_4  and  C8_6
REMARK    2  A    between atoms: C6_5  and  N11_16
REMARK    3  A    between atoms: C12_7  and  N11_16
REMARK    4  A    between atoms: C15_10  and  C18_13
REMARK    5  A    between atoms: N7_18  and  C19_19
REMARK    6  A    between atoms: C24_20  and  N25_21
REMARK                            x       y       z     vdW  Elec       q    Type
REMARK                         _______ _______ _______ _____ _____    ______ ____
ROOT
ATOM      1  C   UNL     1       3.533   2.684  13.505  0.00  0.00    +0.180 A 
ATOM      2  N   UNL     1       3.025   3.684  12.743  0.00  0.00    -0.281 N 
ATOM      3  H   UNL     1       3.655   4.437  12.432  0.00  0.00    +0.188 HD
ATOM     14  N   UNL     1       4.796   2.772  13.971  0.00  0.00    -0.265 NA
ATOM     15  C   UNL     1       5.305   1.783  14.732  0.00  0.00    +0.112 A 
ATOM     16  C   UNL     1       4.550   0.652  15.057  0.00  0.00    +0.108 A 
ATOM     22  C   UNL     1       3.254   0.564  14.573  0.00  0.00    +0.154 A 
ATOM     32  N   UNL     1       2.788   1.591  13.806  0.00  0.00    -0.232 NA
ENDROOT
BRANCH   2   4
ATOM      4  C   UNL     1       1.623   3.736  12.347  0.00  0.00    +0.147 C 
ATOM      5  C   UNL     1       1.493   4.439  10.986  0.00  0.00    +0.034 C 
ATOM      6  C   UNL     1       0.033   4.518  10.526  0.00  0.00    +0.003 C 
ATOM      7  C   UNL     1      -0.888   5.107  11.595  0.00  0.00    +0.006 C 
ATOM      8  C   UNL     1      -0.727   4.442  12.971  0.00  0.00    +0.056 C 
ATOM      9  C   UNL     1       0.733   4.398  13.423  0.00  0.00    +0.087 C 
BRANCH   9  10
ATOM     10  N   UNL     1       1.173   5.759  13.705  0.00  0.00    +0.222 N 
ATOM     11  H   UNL     1       2.124   5.742  14.039  0.00  0.00    +0.200 HD
ATOM     12  H   UNL     1       1.123   6.310  12.862  0.00  0.00    +0.200 HD
ATOM     13  H   UNL     1       0.577   6.166  14.408  0.00  0.00    +0.200 HD
ENDBRANCH   9  10
ENDBRANCH   2   4
BRANCH  16  17
ATOM     17  C   UNL     1       5.153  -0.433  15.914  0.00  0.00    +0.199 C 
ATOM     18  N   UNL     1       6.406  -0.278  16.326  0.00  0.00    -0.302 N 
ATOM     19  H   UNL     1       6.920   0.540  16.067  0.00  0.00    +0.180 HD
ATOM     20  H   UNL     1       6.835  -0.979  16.895  0.00  0.00    +0.180 HD
ATOM     21  O   UNL     1       4.509  -1.429  16.227  0.00  0.00    -0.393 OA
ENDBRANCH  16  17
BRANCH  22  23
ATOM     23  N   UNL     1       2.488  -0.528  14.871  0.00  0.00    -0.254 N 
ATOM     24  H   UNL     1       2.944  -1.266  15.426  0.00  0.00    +0.218 HD
BRANCH  23  25
ATOM     25  C   UNL     1       1.187  -0.755  14.518  0.00  0.00    +0.059 A 
ATOM     26  C   UNL     1       0.491  -1.764  15.182  0.00  0.00    +0.010 A 
ATOM     27  C   UNL     1      -0.839  -2.039  14.861  0.00  0.00    -0.056 A 
ATOM     28  C   UNL     1      -1.567  -3.150  15.579  0.00  0.00    +0.083 C 
ATOM     29  C   UNL     1      -1.496  -1.303  13.877  0.00  0.00    -0.026 A 
ATOM     30  C   UNL     1      -0.815  -0.285  13.202  0.00  0.00    -0.021 A 
ATOM     31  C   UNL     1       0.520  -0.025  13.526  0.00  0.00    +0.004 A 
ENDBRANCH  23  25
ENDBRANCH  22  23
TORSDOF 5
