REMARK  Name = 4ZLY
REMARK  2 active torsions:
REMARK  status: ('A' for Active; 'I' for Inactive)
REMARK    1  A    between atoms: C_2  and  C_7
REMARK    2  A    between atoms: C_6  and  N_14
REMARK                            x       y       z     vdW  Elec       q    Type
REMARK                         _______ _______ _______ _____ _____    ______ ____
ROOT
ATOM      6  C   UNL     1      19.402   5.490   1.247  0.00  0.00    +0.169 A 
ATOM      7  N   UNL     1      19.764   5.824   2.500  0.00  0.00    -0.142 NA
ATOM      8  N   UNL     1      20.906   6.360   2.790  0.00  0.00    -0.148 NA
ATOM      9  C   UNL     1      21.798   6.642   1.813  0.00  0.00    +0.095 A 
ATOM     10  C   UNL     1      21.521   6.325   0.451  0.00  0.00    +0.025 A 
ATOM     11  C   UNL     1      22.464   6.622  -0.554  0.00  0.00    +0.012 A 
ATOM     12  C   UNL     1      23.673   7.193  -0.232  0.00  0.00    +0.001 A 
ATOM     13  C   UNL     1      23.938   7.497   1.107  0.00  0.00    +0.002 A 
ATOM     14  C   UNL     1      23.044   7.238   2.115  0.00  0.00    +0.030 A 
ATOM     15  C   UNL     1      20.262   5.716   0.148  0.00  0.00    +0.067 A 
ENDROOT
BRANCH   6   4
ATOM      1  N   UNL     1      17.195   4.915   2.117  0.00  0.00    -0.324 N 
ATOM      2  H   UNL     1      16.232   4.457   2.025  0.00  0.00    +0.145 HD
ATOM      3  H   UNL     1      17.460   5.427   3.018  0.00  0.00    +0.145 HD
ATOM      4  C   UNL     1      18.077   4.847   1.093  0.00  0.00    +0.264 C 
ATOM      5  O   UNL     1      17.804   4.214   0.070  0.00  0.00    -0.269 OA
ENDBRANCH   6   4
BRANCH  15  16
ATOM     16  N   UNL     1      19.903   5.393  -1.153  0.00  0.00    -0.356 N 
ATOM     17  H   UNL     1      20.583   5.580  -1.958  0.00  0.00    +0.142 HD
ATOM     18  H   UNL     1      18.946   4.957  -1.351  0.00  0.00    +0.142 HD
ENDBRANCH  15  16
TORSDOF 2
