REMARK  Name = 3lzb_ligand
REMARK  7 active torsions:
REMARK  status: ('A' for Active; 'I' for Inactive)
REMARK    1  A    between atoms: C17_9  and  C33_33
REMARK    2  A    between atoms: C20_10  and  N40_40
REMARK    3  A    between atoms: C21_11  and  C23_26
REMARK    4  A    between atoms: C22_12  and  C16_23
REMARK    5  A    between atoms: C28_15  and  C33_33
REMARK    6  A    between atoms: C18_24  and  N38_38
REMARK    7  A    between atoms: C19_25  and  N39_39
REMARK                            x       y       z     vdW  Elec       q    Type
REMARK                         _______ _______ _______ _____ _____    ______ ____
ROOT
ATOM     17  C   UNL     1      16.825   7.829  -1.130  0.00  0.00    +0.032 A 
ATOM     18  N   UNL     1      18.014   8.121  -0.513  0.00  0.00    -0.303 NA
ATOM     19  C   UNL     1      17.624   8.657   0.626  0.00  0.00    +0.216 A 
ATOM     20  S   UNL     1      18.413   9.293   2.041  0.00  0.00    +0.009 S 
ATOM     21  C   UNL     1      16.838   9.633   2.715  0.00  0.00    +0.088 A 
ATOM     22  C   UNL     1      15.807   9.268   1.942  0.00  0.00    +0.155 A 
ATOM     23  N   UNL     1      16.285   8.711   0.786  0.00  0.00    -0.195 N 
ATOM     24  C   UNL     1      15.747   8.183  -0.340  0.00  0.00    +0.120 A 
ENDROOT
BRANCH  24  25
ATOM     25  C   UNL     1      14.328   8.038  -0.541  0.00  0.00    +0.066 A 
ATOM     26  N   UNL     1      13.571   8.782   0.252  0.00  0.00    -0.260 NA
ATOM     27  C   UNL     1      12.262   8.674   0.057  0.00  0.00    +0.197 A 
ATOM     28  N   UNL     1      11.380   9.457   0.813  0.00  0.00    -0.251 N 
ATOM     29  H   UNL     1      10.380   9.313   0.673  0.00  0.00    +0.214 HD
ATOM     42  N   UNL     1      11.709   7.866  -0.848  0.00  0.00    -0.263 NA
ATOM     43  C   UNL     1      12.496   7.105  -1.600  0.00  0.00    +0.091 A 
ATOM     44  C   UNL     1      13.850   7.161  -1.478  0.00  0.00    +0.038 A 
BRANCH  28  30
ATOM     30  C   UNL     1      11.772  10.421   1.744  0.00  0.00    +0.053 A 
ATOM     31  C   UNL     1      10.901  10.775   2.750  0.00  0.00    +0.002 A 
ATOM     32  C   UNL     1      11.239  11.727   3.683  0.00  0.00    -0.004 A 
ATOM     33  C   UNL     1      12.470  12.322   3.564  0.00  0.00    +0.029 A 
ATOM     40  C   UNL     1      13.333  12.043   2.522  0.00  0.00    -0.004 A 
ATOM     41  C   UNL     1      12.979  11.074   1.620  0.00  0.00    +0.002 A 
BRANCH  33  34
ATOM     34  N   UNL     1      12.775  13.252   4.527  0.00  0.00    -0.310 N 
ATOM     35  C   UNL     1      11.866  13.366   5.618  0.00  0.00    +0.155 C 
ATOM     36  C   UNL     1      12.801  13.289   6.809  0.00  0.00    +0.183 C 
ATOM     37  O   UNL     1      13.580  14.485   6.890  0.00  0.00    -0.376 OA
ATOM     38  C   UNL     1      13.981  14.986   5.598  0.00  0.00    +0.183 C 
ATOM     39  C   UNL     1      14.077  13.876   4.570  0.00  0.00    +0.155 C 
ENDBRANCH  33  34
ENDBRANCH  28  30
ENDBRANCH  24  25
BRANCH  17  16
ATOM      1  C   UNL     1      15.731   7.215  -4.619  0.00  0.00    -0.019 A 
ATOM      2  C   UNL     1      16.182   5.937  -4.807  0.00  0.00    +0.006 A 
ATOM      3  C   UNL     1      16.863   5.293  -3.804  0.00  0.00    +0.064 A 
ATOM     15  C   UNL     1      17.081   5.920  -2.607  0.00  0.00    +0.010 A 
ATOM     16  C   UNL     1      16.677   7.213  -2.426  0.00  0.00    -0.035 A 
ATOM     45  C   UNL     1      15.996   7.855  -3.434  0.00  0.00    -0.024 A 
BRANCH   3   4
ATOM      4  N   UNL     1      17.305   3.963  -3.934  0.00  0.00    -0.233 N 
ATOM      5  H   UNL     1      17.659   3.489  -3.103  0.00  0.00    +0.226 HD
ATOM      6  C   UNL     1      17.285   3.267  -5.125  0.00  0.00    +0.215 C 
ATOM      7  O   UNL     1      16.905   3.646  -6.230  0.00  0.00    -0.382 OA
BRANCH   6   8
ATOM      8  C   UNL     1      17.820   1.896  -4.884  0.00  0.00    +0.209 C 
BRANCH   8   9
ATOM      9  C   UNL     1      19.259   1.744  -5.215  0.00  0.00    -0.024 A 
ATOM     10  C   UNL     1      19.865   0.556  -4.872  0.00  0.00    -0.002 A 
ATOM     11  C   UNL     1      21.196   0.343  -5.170  0.00  0.00    -0.008 A 
ATOM     12  C   UNL     1      21.926   1.323  -5.805  0.00  0.00    -0.012 A 
ATOM     13  C   UNL     1      21.310   2.514  -6.133  0.00  0.00    -0.008 A 
ATOM     14  C   UNL     1      19.978   2.735  -5.849  0.00  0.00    -0.002 A 
ENDBRANCH   8   9
ENDBRANCH   6   8
ENDBRANCH   3   4
ENDBRANCH  17  16
TORSDOF 7
