REMARK  Name = 2yak_ligand
REMARK  5 active torsions:
REMARK  status: ('A' for Active; 'I' for Inactive)
REMARK    1  A    between atoms: N_2  and  RU_40
REMARK    2  A    between atoms: CAA_13  and  CBA_39
REMARK    3  A    between atoms: CAB_14  and  CBA_39
REMARK    4  A    between atoms: OAN_26  and  CAP_28
REMARK    5  A    between atoms: OAN_26  and  CBA_39
REMARK                            x       y       z     vdW  Elec       q    Type
REMARK                         _______ _______ _______ _____ _____    ______ ____
ROOT
ATOM      4 RU   UNL     1     -11.688  -9.871  18.293  0.00  0.00    +6.000 Ru
ATOM      5  N   UNL     1     -12.190 -11.568  16.967  0.00  0.00    -0.162 N 
ATOM      6  C   UNL     1     -11.185 -11.642  16.126  0.00  0.00    +0.085 A 
ATOM      7  C   UNL     1     -11.453 -12.641  15.155  0.00  0.00    -0.025 A 
ATOM      8  C   UNL     1     -10.518 -12.879  14.176  0.00  0.00    +0.003 A 
ATOM      9  C   UNL     1      -9.352 -12.081  14.172  0.00  0.00    +0.001 A 
ATOM     10  C   UNL     1      -9.109 -11.076  15.141  0.00  0.00    -0.051 A 
ATOM     11  C   UNL     1      -7.963 -10.272  15.124  0.00  0.00    -0.033 A 
ATOM     12  C   UNL     1      -7.739  -9.283  16.114  0.00  0.00    +0.101 A 
ATOM     13  C   UNL     1      -8.671  -9.075  17.129  0.00  0.00    +0.020 A 
ATOM     14  F   UNL     1      -6.624  -8.524  16.078  0.00  0.00    -0.196 F 
ATOM     15  C   UNL     1      -8.621 -12.506  13.033  0.00  0.00    +0.180 A 
ATOM     16  N   UNL     1      -9.271 -13.470  12.383  0.00  0.00    -0.220 N 
ATOM     17  H   UNL     1      -8.953 -13.937  11.534  0.00  0.00    +0.218 HD
ATOM     18  O   UNL     1      -7.529 -12.056  12.659  0.00  0.00    -0.409 OA
ATOM     19  C   UNL     1     -10.422 -13.723  13.039  0.00  0.00    +0.192 A 
ATOM     20  O   UNL     1     -11.235 -14.583  12.652  0.00  0.00    -0.398 OA
ATOM     21  C   UNL     1     -12.676 -13.173  15.531  0.00  0.00    -0.018 A 
ATOM     22  C   UNL     1     -13.519 -14.158  15.078  0.00  0.00    +0.005 A 
ATOM     23  C   UNL     1     -14.707 -14.449  15.807  0.00  0.00    +0.076 A 
ATOM     28  C   UNL     1     -15.077 -13.696  16.899  0.00  0.00    +0.007 A 
ATOM     29  C   UNL     1     -14.251 -12.699  17.352  0.00  0.00    +0.005 A 
ATOM     30  C   UNL     1     -10.043 -10.869  16.135  0.00  0.00    +0.013 A 
ATOM     31  C   UNL     1     -13.077 -12.465  16.680  0.00  0.00    +0.083 A 
ATOM     32  N   UNL     1      -9.876  -9.866  17.122  0.00  0.00    -0.372 N 
ATOM     33  S   UNL     1     -10.984  -8.347  19.423  0.00  0.00    -0.349 S 
ATOM     34  C   UNL     1     -11.799  -8.188  20.832  0.00  0.00    -0.462 C 
ATOM     35  C   UNL     1     -13.269  -8.537  20.543  0.00  0.00    -0.116 C 
ATOM     36  C   UNL     1     -11.228  -6.897  18.633  0.00  0.00    +0.044 C 
ATOM     37  C   UNL     1     -11.536  -7.184  17.128  0.00  0.00    +0.077 C 
ATOM     38  S   UNL     1     -12.346  -8.638  16.956  0.00  0.00    -0.159 S 
ATOM     39  C   UNL     1     -13.912  -8.113  17.215  0.00  0.00    +0.079 C 
ATOM     40  C   UNL     1     -14.607  -8.964  18.281  0.00  0.00    +0.077 C 
ATOM     41  S   UNL     1     -13.392  -9.576  19.248  0.00  0.00    -0.192 S 
ENDROOT
BRANCH   4   3
ATOM      1  C   UNL     1     -11.070 -12.033  20.367  0.00  0.00    -0.279 C 
ATOM      2  S   UNL     1     -11.461 -13.343  21.451  0.00  0.00    -0.155 S 
ATOM      3  N   UNL     1     -10.845 -11.147  19.655  0.00  0.00    -0.567 NA
ENDBRANCH   4   3
BRANCH  23  24
ATOM     24  O   UNL     1     -15.634 -15.433  15.459  0.00  0.00    -0.324 OA
BRANCH  24  25
ATOM     25  C   UNL     1     -15.427 -16.406  14.363  0.00  0.00    +0.137 C 
ATOM     26  C   UNL     1     -14.683 -15.832  13.132  0.00  0.00    +0.042 C 
ATOM     27  C   UNL     1     -14.837 -17.504  15.261  0.00  0.00    +0.042 C 
ENDBRANCH  24  25
ENDBRANCH  23  24
TORSDOF 3
