REMARK  Name = 3ZSH
REMARK  10 active torsions:
REMARK  status: ('A' for Active; 'I' for Inactive)
REMARK    1  A    between atoms: C_1  and  N_2
REMARK    2  A    between atoms: N_2  and  C_3
REMARK    3  A    between atoms: C_4  and  C_6
REMARK    4  A    between atoms: C_6  and  C_8
REMARK    5  A    between atoms: N_12  and  C_13
REMARK    6  A    between atoms: C_18  and  C_19
REMARK    7  A    between atoms: C_22  and  C_24
REMARK    8  A    between atoms: C_26  and  C_27
REMARK    9  A    between atoms: N_28  and  C_29
REMARK   10  A    between atoms: C_29  and  C_30
REMARK                            x       y       z     vdW  Elec       q    Type
REMARK                         _______ _______ _______ _____ _____    ______ ____
ROOT
ATOM      5  C   UNL     1      19.923  42.316  11.710  0.00  0.00    +0.052 A 
ATOM      6  C   UNL     1      18.994  43.206  12.245  0.00  0.00    +0.098 A 
ATOM      7  N   UNL     1      17.991  42.509  12.834  0.00  0.00    -0.349 N 
ATOM      8  C   UNL     1      18.203  41.157  12.693  0.00  0.00    +0.051 A 
ATOM      9  C   UNL     1      17.465  40.063  13.103  0.00  0.00    +0.047 A 
ATOM     10  C   UNL     1      17.906  38.796  12.836  0.00  0.00    +0.055 A 
ATOM     11  C   UNL     1      19.120  38.580  12.149  0.00  0.00    +0.056 A 
ATOM     30  C   UNL     1      19.870  39.680  11.721  0.00  0.00    +0.025 A 
ATOM     31 CL   UNL     1      16.916  37.480  13.389  0.00  0.00    -0.083 Cl
ATOM     32  C   UNL     1      16.810  43.066  13.507  0.00  0.00    +0.149 C 
ATOM     33  C   UNL     1      19.404  40.963  11.983  0.00  0.00    +0.012 A 
ENDROOT
BRANCH  11  12
ATOM     12  C   UNL     1      19.597  37.204  11.880  0.00  0.00    +0.248 C 
ATOM     13  N   UNL     1      19.969  36.429  12.924  0.00  0.00    -0.292 N 
ATOM     14  C   UNL     1      19.896  36.999  14.278  0.00  0.00    +0.127 C 
ATOM     15  C   UNL     1      20.367  36.007  15.309  0.00  0.00    +0.071 C 
ATOM     16  N   UNL     1      21.626  35.373  14.981  0.00  0.00    -0.292 NA
ATOM     25  C   UNL     1      21.631  34.673  13.704  0.00  0.00    +0.107 C 
ATOM     26  C   UNL     1      20.652  36.829  16.532  0.00  0.00    +0.026 C 
ATOM     27  C   UNL     1      20.456  35.021  12.796  0.00  0.00    +0.087 C 
ATOM     28  C   UNL     1      19.409  34.000  13.250  0.00  0.00    +0.029 C 
ATOM     29  O   UNL     1      19.659  36.798  10.736  0.00  0.00    -0.270 OA
BRANCH  16  17
ATOM     17  C   UNL     1      22.106  34.684  16.188  0.00  0.00    +0.120 C 
BRANCH  17  18
ATOM     18  C   UNL     1      22.730  33.326  16.047  0.00  0.00    -0.033 A 
ATOM     19  C   UNL     1      24.023  33.179  15.570  0.00  0.00    +0.008 A 
ATOM     20  C   UNL     1      24.574  31.917  15.497  0.00  0.00    +0.038 A 
ATOM     21  C   UNL     1      23.812  30.822  15.894  0.00  0.00    +0.123 A 
ATOM     22  F   UNL     1      24.313  29.591  15.812  0.00  0.00    -0.205 F 
ATOM     23  C   UNL     1      22.521  30.965  16.364  0.00  0.00    +0.038 A 
ATOM     24  C   UNL     1      21.985  32.232  16.449  0.00  0.00    +0.008 A 
ENDBRANCH  17  18
ENDBRANCH  16  17
ENDBRANCH  11  12
BRANCH   5   4
ATOM      4  C   UNL     1      21.162  42.605  10.987  0.00  0.00    +0.249 C 
ATOM     34  O   UNL     1      21.672  41.714  10.333  0.00  0.00    -0.282 OA
BRANCH   4   3
ATOM      1  C   UNL     1      21.339  44.081   8.588  0.00  0.00    +0.132 C 
ATOM      2  N   UNL     1      21.828  44.688   9.838  0.00  0.00    -0.301 N 
ATOM      3  C   UNL     1      21.756  43.990  10.997  0.00  0.00    +0.287 C 
ATOM     35  O   UNL     1      22.149  44.457  12.054  0.00  0.00    -0.266 OA
ATOM     36  C   UNL     1      22.387  46.053   9.772  0.00  0.00    +0.132 C 
ENDBRANCH   4   3
ENDBRANCH   5   4
TORSDOF 5
