REMARK  Name = 4kwp_ligand
REMARK  4 active torsions:
REMARK  status: ('A' for Active; 'I' for Inactive)
REMARK    1  A    between atoms: NAU_13  and  CAT_14
REMARK    2  A    between atoms: CAR_17  and  OAB_18
REMARK    3  A    between atoms: CAS_19  and  CAH_20
REMARK    4  A    between atoms: CAH_20  and  OAA_21
REMARK                            x       y       z     vdW  Elec       q    Type
REMARK                         _______ _______ _______ _____ _____    ______ ____
ROOT
ATOM      1 BR   UNL     1      22.953 -32.045  15.425  0.00  0.00    -0.050 Br
ATOM      2  C   UNL     1      22.859 -30.664  14.099  0.00  0.00    +0.028 A 
ATOM      3  C   UNL     1      22.662 -29.358  14.540  0.00  0.00    +0.051 A 
ATOM      4  N   UNL     1      22.521 -28.868  15.793  0.00  0.00    -0.301 NA
ATOM      5  C   UNL     1      22.339 -27.530  15.700  0.00  0.00    +0.249 A 
ATOM      6  N   UNL     1      22.399 -27.177  14.390  0.00  0.00    -0.205 N 
ATOM     17  C   UNL     1      22.580 -28.333  13.656  0.00  0.00    +0.106 A 
ATOM     18  C   UNL     1      22.719 -28.651  12.277  0.00  0.00    +0.050 A 
ATOM     19 BR   UNL     1      22.619 -27.302  10.900  0.00  0.00    -0.050 Br
ATOM     20  C   UNL     1      22.926 -29.968  11.871  0.00  0.00    +0.022 A 
ATOM     21 BR   UNL     1      23.163 -30.430  10.003  0.00  0.00    -0.051 Br
ATOM     22  C   UNL     1      22.995 -30.984  12.764  0.00  0.00    +0.021 A 
ATOM     23 BR   UNL     1      23.325 -32.817  12.140  0.00  0.00    -0.053 Br
ENDROOT
BRANCH   6   7
ATOM      7  C1* UNL     1      22.217 -25.973  13.970  0.00  0.00    +0.270 C 
ATOM      8  C2* UNL     1      20.755 -25.521  14.562  0.00  0.00    +0.100 C 
ATOM      9  C3* UNL     1      21.006 -24.157  14.893  0.00  0.00    +0.151 C 
ATOM     10  C4* UNL     1      22.360 -24.073  15.209  0.00  0.00    +0.176 C 
ATOM     16  O4* UNL     1      23.155 -25.000  14.503  0.00  0.00    -0.340 OA
BRANCH   9  14
ATOM     14  O3* UNL     1      20.637 -23.288  13.798  0.00  0.00    -0.389 OA
ATOM     15  H3* UNL     1      20.812 -22.386  14.039  0.00  0.00    +0.210 HD
ENDBRANCH   9  14
BRANCH  10  11
ATOM     11  C5* UNL     1      22.659 -24.054  16.798  0.00  0.00    +0.190 C 
BRANCH  11  12
ATOM     12  O5* UNL     1      22.038 -25.112  17.443  0.00  0.00    -0.392 OA
ATOM     13  H5* UNL     1      22.232 -25.073  18.372  0.00  0.00    +0.209 HD
ENDBRANCH  11  12
ENDBRANCH  10  11
ENDBRANCH   6   7
TORSDOF 4
