REMARK  Name = 6ILZ
REMARK  3 active torsions:
REMARK  status: ('A' for Active; 'I' for Inactive)
REMARK    1  A    between atoms: CAH_6  and  NAG_23
REMARK    2  A    between atoms: CAN_10  and  CAQ_12
REMARK    3  A    between atoms: CAU_16  and  NAW_26
REMARK                            x       y       z     vdW  Elec       q    Type
REMARK                         _______ _______ _______ _____ _____    ______ ____
ROOT
ATOM      7  C   UNL     1      64.559   2.869  63.607  0.00  0.00    +0.100 C 
ATOM      8  O   UNL     1      65.657   3.421  63.714  0.00  0.00    -0.400 OA
ATOM      9  C   UNL     1      63.536   3.257  64.438  0.00  0.00    +0.000 C 
ATOM     10  C   UNL     1      62.283   2.681  64.312  0.00  0.00    -0.100 C 
ATOM     11  C   UNL     1      61.294   3.115  65.183  0.00  0.00    +0.000 C 
ATOM     24  C   UNL     1      61.588   3.983  66.229  0.00  0.00    +0.000 C 
ATOM     25  N   UNL     1      62.861   4.555  66.315  0.00  0.00    -0.150 NA
ATOM     26  C   UNL     1      63.802   4.170  65.446  0.00  0.00    +0.100 C 
ATOM     27  N   UNL     1      65.041   4.653  65.484  0.00  0.00    -0.550 NA
ENDROOT
BRANCH   7   6
ATOM      1  C   UNL     1      65.245  -0.157  59.986  0.00  0.00    +0.000 A 
ATOM      2  N   UNL     1      66.632   0.060  59.969  0.00  0.00    -0.450 NA
ATOM      3  C   UNL     1      67.196   0.948  60.900  0.00  0.00    +0.000 A 
ATOM      4  C   UNL     1      66.378   1.597  61.819  0.00  0.00    -0.100 A 
ATOM      5  C   UNL     1      64.989   1.425  61.796  0.00  0.00    +0.050 A 
ATOM      6  N   UNL     1      64.166   1.947  62.705  0.00  0.00    -0.150 NA
ATOM     28  C   UNL     1      64.445   0.491  60.923  0.00  0.00    -0.100 A 
ENDBRANCH   7   6
BRANCH  11  12
ATOM     12  C   UNL     1      60.069   2.497  65.114  0.00  0.00    +0.000 A 
ATOM     13  C   UNL     1      59.744   1.771  63.988  0.00  0.00    -0.130 A 
ATOM     14  C   UNL     1      58.526   1.113  63.946  0.00  0.00    +0.050 A 
ATOM     21  C   UNL     1      57.702   1.045  65.062  0.00  0.00    -0.130 A 
ATOM     22  C   UNL     1      58.077   1.729  66.215  0.00  0.00    -0.130 A 
ATOM     23  C   UNL     1      59.279   2.431  66.254  0.00  0.00    -0.130 A 
BRANCH  14  15
ATOM     15  N   UNL     1      58.230   0.449  62.840  0.00  0.00    -0.250 N 
ATOM     16  C   UNL     1      57.422  -0.774  62.858  0.00  0.00    +0.000 C 
ATOM     17  C   UNL     1      56.626  -0.869  61.576  0.00  0.00    +0.100 C 
ATOM     18  N   UNL     1      57.490  -0.891  60.369  0.00  0.00    -0.750 NA
ATOM     19  C   UNL     1      58.242   0.388  60.409  0.00  0.00    +0.100 C 
ATOM     20  C   UNL     1      59.096   0.520  61.658  0.00  0.00    +0.000 C 
ENDBRANCH  14  15
ENDBRANCH  11  12
TORSDOF 3
