REMARK  Name = 4fk6_ligand
REMARK  5 active torsions:
REMARK  status: ('A' for Active; 'I' for Inactive)
REMARK    1  A    between atoms: C4_1  and  C5_3
REMARK    2  A    between atoms: C4_1  and  N3_8
REMARK    3  A    between atoms: C7_5  and  N6_11
REMARK    4  A    between atoms: N3_8  and  S2_10
REMARK    5  A    between atoms: C1_9  and  S2_10
REMARK                            x       y       z     vdW  Elec       q    Type
REMARK                         _______ _______ _______ _____ _____    ______ ____
ROOT
ATOM      8  C   UNL     1       8.547  56.980   0.414  0.00  0.00    +0.142 A 
ATOM      9  N   UNL     1       8.632  58.223   0.071  0.00  0.00    -0.318 NA
ATOM     10  C   UNL     1       7.475  58.865   0.318  0.00  0.00    +0.033 A 
ATOM     11  C   UNL     1       7.073  60.198   0.108  0.00  0.00    +0.061 A 
ATOM     12  N   UNL     1       5.865  60.601   0.425  0.00  0.00    -0.305 NA
ATOM     13  C   UNL     1       4.963  59.783   0.973  0.00  0.00    +0.120 A 
ATOM     14  N   UNL     1       3.678  60.011   1.414  0.00  0.00    -0.274 N 
ATOM     15  H   UNL     1       3.187  60.915   1.369  0.00  0.00    +0.228 HD
ATOM     16  C   UNL     1       3.151  58.849   1.922  0.00  0.00    +0.113 A 
ATOM     17  C   UNL     1       4.062  57.861   1.817  0.00  0.00    -0.032 A 
ATOM     18  C   UNL     1       5.277  58.416   1.212  0.00  0.00    +0.019 A 
ATOM     19  C   UNL     1       6.572  57.923   0.869  0.00  0.00    +0.089 A 
ATOM     20  N   UNL     1       7.291  56.728   0.913  0.00  0.00    -0.226 N 
ENDROOT
BRANCH  20  21
ATOM     21  C   UNL     1       6.914  55.381   1.397  0.00  0.00    +0.137 C 
ATOM     22  C   UNL     1       7.302  55.123   2.894  0.00  0.00    +0.022 C 
ATOM     23  C   UNL     1       7.370  53.563   3.058  0.00  0.00    +0.007 C 
ATOM     24  C   UNL     1       5.841  53.137   2.990  0.00  0.00    +0.004 C 
ATOM     25  C   UNL     1       5.085  54.491   2.734  0.00  0.00    -0.008 C 
ATOM     26  C   UNL     1       5.942  55.503   3.583  0.00  0.00    +0.010 C 
ATOM     27  C   UNL     1       5.437  54.930   1.269  0.00  0.00    +0.040 C 
ENDBRANCH  20  21
BRANCH   8   1
ATOM      1  C   UNL     1       9.687  55.977   0.310  0.00  0.00    +0.255 C 
BRANCH   1   2
ATOM      2  N   UNL     1      10.890  56.515  -0.352  0.00  0.00    -0.232 NA
ATOM      3  H   UNL     1      11.458  57.187   0.124  0.00  0.00    +0.171 HD
BRANCH   2   4
ATOM      4  S   UNL     1      11.313  56.013  -1.890  0.00  0.00    +0.039 S 
ATOM      5  O   UNL     1      10.140  56.193  -2.669  0.00  0.00    -0.156 OA
ATOM      6  O   UNL     1      12.477  56.778  -2.157  0.00  0.00    -0.156 OA
ATOM      7  C   UNL     1      11.714  54.248  -1.776  0.00  0.00    +0.218 C 
ENDBRANCH   2   4
ENDBRANCH   1   2
ENDBRANCH   8   1
TORSDOF 4
