REMARK  Name = 4eh8_ligand
REMARK  5 active torsions:
REMARK  status: ('A' for Active; 'I' for Inactive)
REMARK    1  A    between atoms: CAN_6  and  CAL_7
REMARK    2  A    between atoms: CAL_7  and  OAM_8
REMARK    3  A    between atoms: OAM_8  and  CAP_9
REMARK    4  A    between atoms: CAO_14  and  CAK_15
REMARK    5  A    between atoms: CAK_15  and  OAA_16
REMARK                            x       y       z     vdW  Elec       q    Type
REMARK                         _______ _______ _______ _____ _____    ______ ____
ROOT
ATOM      5  C   UNL     1       2.608  -1.858 -11.680  0.00  0.00    +0.087 A 
ATOM      6  C   UNL     1       3.226  -0.662 -12.017  0.00  0.00    +0.009 A 
ATOM      7  C   UNL     1       4.594  -0.573 -11.887  0.00  0.00    -0.020 A 
ATOM      8  C   UNL     1       5.326  -1.659 -11.428  0.00  0.00    -0.023 A 
ATOM      9  C   UNL     1       4.692  -2.852 -11.103  0.00  0.00    -0.027 A 
ATOM     13  C   UNL     1       3.332  -2.953 -11.235  0.00  0.00    +0.018 A 
ENDROOT
BRANCH   5   4
ATOM      4  O   UNL     1       1.274  -1.998 -11.782  0.00  0.00    -0.307 OA
BRANCH   4   3
ATOM      3  C   UNL     1       1.012  -3.395 -11.805  0.00  0.00    +0.260 C 
BRANCH   3   2
ATOM      1  C   UNL     1      -0.389  -4.955 -12.942  0.00  0.00    -0.002 A 
ATOM      2  C   UNL     1       0.167  -3.681 -12.854  0.00  0.00    -0.013 A 
ATOM     14  C   UNL     1      -0.115  -2.693 -13.797  0.00  0.00    -0.002 A 
ATOM     15  C   UNL     1      -0.969  -2.967 -14.849  0.00  0.00    -0.009 A 
ATOM     16  C   UNL     1      -1.525  -4.232 -14.954  0.00  0.00    -0.013 A 
ATOM     17  C   UNL     1      -1.231  -5.217 -14.010  0.00  0.00    -0.009 A 
ENDBRANCH   3   2
ENDBRANCH   4   3
ENDBRANCH   5   4
BRANCH   9  10
ATOM     10  C   UNL     1       5.368  -3.963 -10.680  0.00  0.00    +0.220 C 
BRANCH  10  11
ATOM     11  O   UNL     1       4.996  -5.064 -11.533  0.00  0.00    -0.383 OA
ATOM     12  H   UNL     1       5.461  -5.856 -11.253  0.00  0.00    +0.213 HD
ENDBRANCH  10  11
ENDBRANCH   9  10
TORSDOF 5
