REMARK  Name = 1K0
REMARK  3 active torsions:
REMARK  status: ('A' for Active; 'I' for Inactive)
REMARK    1  A    between atoms: O1_1  and  C2_3
REMARK    2  A    between atoms: C4_5  and  O2_8
REMARK    3  A    between atoms: C8_13  and  C9_15
REMARK                            x       y       z     vdW  Elec       q    Type
REMARK                         _______ _______ _______ _____ _____    ______ ____
ROOT
ATOM      2  C   UNL     1      22.454  32.755  21.197  0.00  0.00    +0.143 A 
ATOM      3  C   UNL     1      21.571  33.020  22.256  0.00  0.00    +0.074 A 
ATOM      4  C   UNL     1      21.497  34.235  22.846  0.00  0.00    +0.148 A 
ATOM      7  C   UNL     1      22.290  35.311  22.413  0.00  0.00    +0.110 A 
ATOM      8  C   UNL     1      22.246  36.624  22.988  0.00  0.00    +0.285 A 
ATOM      9  O   UNL     1      21.494  36.973  23.922  0.00  0.00    -0.265 OA
ATOM     10  N   UNL     1      23.088  37.620  22.437  0.00  0.00    -0.189 NA
ATOM     11  C   UNL     1      23.898  37.306  21.389  0.00  0.00    +0.165 A 
ATOM     21  N   UNL     1      23.962  36.070  20.836  0.00  0.00    -0.226 NA
ATOM     22  C   UNL     1      23.172  35.013  21.333  0.00  0.00    +0.094 A 
ATOM     23  C   UNL     1      23.272  33.771  20.729  0.00  0.00    +0.056 A 
ENDROOT
BRANCH  11  12
ATOM     12  C   UNL     1      24.759  38.367  20.842  0.00  0.00    +0.035 A 
ATOM     13  C   UNL     1      24.318  39.729  20.973  0.00  0.00    +0.002 A 
ATOM     14  C   UNL     1      25.108  40.788  20.586  0.00  0.00    +0.017 A 
ATOM     15  C   UNL     1      24.635  42.203  20.739  0.00  0.00    +0.034 C 
ATOM     16  C   UNL     1      26.372  40.550  20.064  0.00  0.00    +0.188 A 
ATOM     17  C   UNL     1      26.827  39.215  19.892  0.00  0.00    +0.017 A 
ATOM     18  C   UNL     1      28.180  38.878  19.352  0.00  0.00    +0.034 C 
ATOM     19  O   UNL     1      27.196  41.570  19.783  0.00  0.00    -0.287 OA
ATOM     20  C   UNL     1      26.022  38.143  20.254  0.00  0.00    +0.002 A 
ENDBRANCH  11  12
BRANCH   2   1
ATOM      1  O   UNL     1      22.469  31.507  20.627  0.00  0.00    -0.471 OA
ATOM     24  C   UNL     1      23.239  31.221  19.479  0.00  0.00    +0.253 C 
ENDBRANCH   2   1
BRANCH   4   5
ATOM      5  O   UNL     1      20.661  34.493  23.926  0.00  0.00    -0.471 OA
ATOM      6  C   UNL     1      19.864  33.404  24.447  0.00  0.00    +0.253 C 
ENDBRANCH   4   5
TORSDOF 3
