REMARK  Name = 2CMW
REMARK  10 active torsions:
REMARK  status: ('A' for Active; 'I' for Inactive)
REMARK    1  A    between atoms: C_7  and  N_8
REMARK    2  A    between atoms: N_14  and  C_15
REMARK    3  A    between atoms: C_15  and  C_16
REMARK    4  A    between atoms: C_15  and  C_17
REMARK    5  A    between atoms: N_21  and  C_22
REMARK    6  A    between atoms: N_21  and  C_25
REMARK    7  A    between atoms: C_22  and  C_23
REMARK    8  A    between atoms: C_23  and  O_24
REMARK    9  A    between atoms: C_25  and  C_26
REMARK   10  A    between atoms: C_26  and  O_27
REMARK                            x       y       z     vdW  Elec       q    Type
REMARK                         _______ _______ _______ _____ _____    ______ ____
ROOT
ATOM      3  N   UNL     1      29.005  47.179   3.983  0.00  0.00    -0.228 NA
ATOM      4  C   UNL     1      28.902  46.865   5.279  0.00  0.00    +0.163 C 
ATOM      5  C   UNL     1      27.676  47.036   5.972  0.00  0.00    +0.148 C 
ATOM      6  C   UNL     1      27.621  46.719   7.329  0.00  0.00    +0.145 C 
ATOM      7  N   UNL     1      28.703  46.241   8.003  0.00  0.00    -0.312 N 
ATOM      8  H   UNL     1      28.645  46.001   9.044  0.00  0.00    +0.170 HD
ATOM      9  C   UNL     1      29.863  46.079   7.304  0.00  0.00    +0.185 C 
ATOM     10  N   UNL     1      30.946  45.605   7.960  0.00  0.00    -0.339 N 
ATOM     19  N   UNL     1      26.391  47.006   7.741  0.00  0.00    -0.314 NA
ATOM     23  C   UNL     1      25.654  47.455   6.691  0.00  0.00    +0.201 C 
ATOM     24  N   UNL     1      26.449  47.512   5.605  0.00  0.00    -0.231 NA
ATOM     25  N   UNL     1      29.942  46.384   5.994  0.00  0.00    -0.310 N 
ATOM     26  H   UNL     1      30.877  46.238   5.494  0.00  0.00    +0.170 HD
ENDROOT
BRANCH   3   2
ATOM      1  C   UNL     1      30.696  48.031   2.442  0.00  0.00    +0.047 A 
ATOM      2  C   UNL     1      30.156  46.986   3.211  0.00  0.00    +0.068 A 
ATOM     27  C   UNL     1      30.726  45.722   3.155  0.00  0.00    +0.028 A 
ATOM     28  C   UNL     1      31.852  45.477   2.364  0.00  0.00    +0.003 A 
ATOM     29  C   UNL     1      32.376  46.520   1.629  0.00  0.00    +0.020 A 
ATOM     30  C   UNL     1      31.828  47.795   1.653  0.00  0.00    +0.043 A 
ATOM     31 CL   UNL     1      32.477  49.075   0.728  0.00  0.00    -0.084 Cl
ENDBRANCH   3   2
BRANCH  19  20
ATOM     20  C   UNL     1      25.923  46.748   9.126  0.00  0.00    +0.084 C 
ATOM     21  C   UNL     1      25.485  45.278   9.267  0.00  0.00    +0.030 C 
ATOM     22  C   UNL     1      24.817  47.744   9.588  0.00  0.00    +0.030 C 
ENDBRANCH  19  20
BRANCH  10  11
ATOM     11  C   UNL     1      32.181  45.211   7.250  0.00  0.00    +0.147 C 
BRANCH  11  12
ATOM     12  C   UNL     1      32.156  43.722   6.855  0.00  0.00    +0.177 C 
BRANCH  12  13
ATOM     13  O   UNL     1      31.973  42.847   7.992  0.00  0.00    -0.393 OA
ATOM     14  H   UNL     1      32.761  42.986   8.672  0.00  0.00    +0.209 HD
ENDBRANCH  12  13
ENDBRANCH  11  12
ENDBRANCH  10  11
BRANCH  10  15
ATOM     15  C   UNL     1      32.198  45.373   7.217  0.00  0.00    +0.147 C 
BRANCH  15  16
ATOM     16  C   UNL     1      32.169  43.991   6.586  0.00  0.00    +0.177 C 
BRANCH  16  17
ATOM     17  O   UNL     1      32.685  44.023   5.280  0.00  0.00    -0.393 OA
ATOM     18  H   UNL     1      32.108  44.674   4.691  0.00  0.00    +0.209 HD
ENDBRANCH  16  17
ENDBRANCH  15  16
ENDBRANCH  10  15
TORSDOF 8
