REMARK  Name = 4RMZ
REMARK  5 active torsions:
REMARK  status: ('A' for Active; 'I' for Inactive)
REMARK    1  A    between atoms: C_6  and  N_19
REMARK    2  A    between atoms: C_11  and  C_22
REMARK    3  A    between atoms: C_16  and  N_26
REMARK    4  A    between atoms: C_18  and  C_24
REMARK    5  A    between atoms: C_22  and  N_34
REMARK                            x       y       z     vdW  Elec       q    Type
REMARK                         _______ _______ _______ _____ _____    ______ ____
ROOT
ATOM      3  N   UNL     1      37.583 158.355  -9.250  0.00  0.00    -0.280 N 
ATOM      4  C   UNL     1      36.519 158.401  -8.361  0.00  0.00    +0.208 A 
ATOM      5  N   UNL     1      35.115 158.483  -8.814  0.00  0.00    -0.252 N 
ATOM      6  H   UNL     1      34.987 157.722  -9.555  0.00  0.00    +0.158 HD
ATOM      7  C   UNL     1      34.034 158.329  -7.871  0.00  0.00    +0.251 C 
ATOM      8  O   UNL     1      34.325 158.151  -6.638  0.00  0.00    -0.270 OA
ATOM     18  N   UNL     1      37.014 158.256  -7.119  0.00  0.00    -0.214 NA
ATOM     19  C   UNL     1      38.440 158.153  -7.189  0.00  0.00    +0.092 A 
ATOM     20  C   UNL     1      39.482 158.022  -6.204  0.00  0.00    +0.034 A 
ATOM     21  C   UNL     1      40.845 157.934  -6.579  0.00  0.00    -0.031 A 
ATOM     29  C   UNL     1      41.189 158.007  -8.010  0.00  0.00    +0.007 A 
ATOM     30  C   UNL     1      40.194 158.142  -8.951  0.00  0.00    +0.028 A 
ATOM     31  C   UNL     1      38.785 158.215  -8.565  0.00  0.00    +0.075 A 
ENDROOT
BRANCH   3   2
ATOM      1  C   UNL     1      36.541 159.390 -11.179  0.00  0.00    +0.026 A 
ATOM      2  C   UNL     1      37.379 158.439 -10.692  0.00  0.00    +0.050 A 
ATOM     32  C   UNL     1      38.026 157.483 -11.598  0.00  0.00    +0.026 A 
ATOM     33  C   UNL     1      37.801 157.572 -12.925  0.00  0.00    +0.002 A 
ATOM     34  C   UNL     1      36.951 158.574 -13.438  0.00  0.00    +0.000 A 
ATOM     35  C   UNL     1      36.319 159.481 -12.564  0.00  0.00    +0.002 A 
ENDBRANCH   3   2
BRANCH   7   9
ATOM      9  C   UNL     1      32.595 158.321  -8.354  0.00  0.00    +0.039 A 
ATOM     10  C   UNL     1      32.284 158.627  -9.653  0.00  0.00    +0.045 A 
ATOM     11  C   UNL     1      30.921 158.565 -10.054  0.00  0.00    +0.127 A 
ATOM     15  C   UNL     1      29.931 158.198  -9.192  0.00  0.00    +0.033 A 
ATOM     16  C   UNL     1      30.258 157.854  -7.884  0.00  0.00    +0.003 A 
ATOM     17  C   UNL     1      31.594 157.907  -7.481  0.00  0.00    +0.013 A 
BRANCH  11  12
ATOM     12  N   UNL     1      30.561 158.901 -11.412  0.00  0.00    +0.056 N 
ATOM     13  O   UNL     1      29.333 159.352 -11.688  0.00  0.00    -0.126 OA
ATOM     14  O   UNL     1      31.447 158.740 -12.369  0.00  0.00    -0.126 OA
ENDBRANCH  11  12
ENDBRANCH   7   9
BRANCH  21  22
ATOM     22  C   UNL     1      41.963 157.814  -5.516  0.00  0.00    +0.119 C 
BRANCH  22  23
ATOM     23  N   UNL     1      42.462 156.466  -5.282  0.00  0.00    -0.298 NA
ATOM     24  C   UNL     1      43.170 155.559  -6.197  0.00  0.00    +0.085 C 
ATOM     25  C   UNL     1      43.431 154.229  -5.573  0.00  0.00    +0.015 C 
ATOM     26  C   UNL     1      44.062 154.299  -4.270  0.00  0.00    +0.002 C 
ATOM     27  C   UNL     1      43.424 155.288  -3.386  0.00  0.00    +0.015 C 
ATOM     28  C   UNL     1      43.226 156.592  -4.055  0.00  0.00    +0.085 C 
ENDBRANCH  22  23
ENDBRANCH  21  22
TORSDOF 5
