REMARK  Name = 6HHO
REMARK  3 active torsions:
REMARK  status: ('A' for Active; 'I' for Inactive)
REMARK    1  A    between atoms: C24_7  and  C28_9
REMARK    2  A    between atoms: C16_14  and  C14_23
REMARK    3  A    between atoms: C09_18  and  C07_25
REMARK                            x       y       z     vdW  Elec       q    Type
REMARK                         _______ _______ _______ _____ _____    ______ ____
ROOT
ATOM      1  C   UNL     1       3.693 -15.761   6.445  0.00  0.00    -0.100 C 
ATOM      2  C   UNL     1       3.300 -15.096   5.109  0.00  0.00    +0.050 C 
ATOM     11  N   UNL     1       4.462 -14.199   4.902  0.00  0.00    -0.150 N 
ATOM     12  C   UNL     1       4.642 -13.373   3.817  0.00  0.00    +0.600 C 
ATOM     13  O   UNL     1       3.785 -13.303   2.959  0.00  0.00    -0.550 OA
ATOM     28  N   UNL     1       5.425 -14.340   5.871  0.00  0.00    -0.050 NA
ATOM     29  C   UNL     1       5.088 -15.334   6.589  0.00  0.00    -0.150 C 
ENDROOT
BRANCH  12  14
ATOM     14  C   UNL     1       5.901 -12.539   3.743  0.00  0.00    -0.050 C 
ATOM     15  C   UNL     1       7.064 -13.376   3.214  0.00  0.00    -0.100 C 
ATOM     16  C   UNL     1       8.319 -12.512   3.190  0.00  0.00    +0.000 C 
ATOM     17  N   UNL     1       8.126 -11.294   2.396  0.00  0.00    -0.250 N 
ATOM     18  C   UNL     1       6.971 -10.485   2.801  0.00  0.00    +0.000 C 
ATOM     19  C   UNL     1       8.779 -11.105   1.211  0.00  0.00    +0.430 A 
ATOM     20  C   UNL     1       8.223 -10.324   0.186  0.00  0.00    -0.130 A 
ATOM     21  C   UNL     1       8.981 -10.236  -0.978  0.00  0.00    +0.250 A 
ATOM     22  N   UNL     1      10.173 -10.841  -1.143  0.00  0.00    -0.760 NA
ATOM     23  C   UNL     1      10.614 -11.486  -0.057  0.00  0.00    +0.630 A 
ATOM     26  N   UNL     1       9.971 -11.710   1.094  0.00  0.00    -0.760 NA
ATOM     27  C   UNL     1       5.695 -11.320   2.840  0.00  0.00    -0.100 C 
BRANCH  21  24
ATOM     24  C   UNL     1       8.506  -9.438  -2.096  0.00  0.00    +0.480 C 
ATOM     25  N   UNL     1       8.104  -8.809  -2.962  0.00  0.00    -0.350 NA
ENDBRANCH  21  24
ENDBRANCH  12  14
BRANCH   2   3
ATOM      3  C   UNL     1       1.988 -14.353   5.163  0.00  0.00    +0.000 A 
ATOM      4  C   UNL     1       1.008 -14.634   4.219  0.00  0.00    -0.130 A 
ATOM      5  C   UNL     1      -0.182 -13.946   4.266  0.00  0.00    +0.300 A 
ATOM      6  C   UNL     1      -0.483 -13.006   5.218  0.00  0.00    -0.130 A 
ATOM      7  C   UNL     1       0.507 -12.751   6.134  0.00  0.00    +0.300 A 
ATOM      8  F   UNL     1       0.276 -11.804   7.076  0.00  0.00    -0.300 F 
ATOM      9  F   UNL     1      -1.119 -14.239   3.345  0.00  0.00    -0.300 F 
ATOM     10  C   UNL     1       1.736 -13.378   6.124  0.00  0.00    -0.130 A 
ENDBRANCH   2   3
TORSDOF 3
