REMARK  Name = 5Z1D
REMARK  3 active torsions:
REMARK  status: ('A' for Active; 'I' for Inactive)
REMARK    1  A    between atoms: C18_2  and  C19_3
REMARK    2  A    between atoms: N17_5  and  C15_6
REMARK    3  A    between atoms: C11_8  and  C7_12
REMARK                            x       y       z     vdW  Elec       q    Type
REMARK                         _______ _______ _______ _____ _____    ______ ____
ROOT
ATOM      4  C   UNL     1      11.089  -2.565 -12.665  0.00  0.00    +0.050 A 
ATOM      5  C   UNL     1       9.850  -2.552 -12.030  0.00  0.00    -0.130 A 
ATOM      6  C   UNL     1       9.090  -3.721 -11.902  0.00  0.00    -0.130 A 
ATOM      7  C   UNL     1       9.557  -4.926 -12.400  0.00  0.00    -0.130 A 
ATOM      8  C   UNL     1      10.769  -4.969 -13.079  0.00  0.00    +0.000 A 
ATOM     19  C   UNL     1      11.539  -3.793 -13.187  0.00  0.00    -0.130 A 
ENDROOT
BRANCH   8   9
ATOM      9  C   UNL     1      11.236  -6.305 -13.604  0.00  0.00    +0.100 A 
ATOM     10  C   UNL     1      12.194  -6.638 -14.591  0.00  0.00    +0.000 A 
ATOM     11  C   UNL     1      13.014  -5.869 -15.422  0.00  0.00    -0.130 A 
ATOM     12  C   UNL     1      13.889  -6.508 -16.310  0.00  0.00    -0.130 A 
ATOM     13  C   UNL     1      13.967  -7.901 -16.383  0.00  0.00    +0.000 A 
ATOM     14  C   UNL     1      14.933  -8.514 -17.362  0.00  0.00    -0.150 C 
ATOM     15  C   UNL     1      13.175  -8.719 -15.570  0.00  0.00    -0.130 A 
ATOM     16  C   UNL     1      12.293  -8.117 -14.690  0.00  0.00    +0.200 A 
ATOM     17  N   UNL     1      11.420  -8.544 -13.789  0.00  0.00    -0.500 NA
ATOM     18  N   UNL     1      10.770  -7.474 -13.128  0.00  0.00    -0.100 NA
ENDBRANCH   8   9
BRANCH   4   3
ATOM      1  O   UNL     1      13.562  -1.976 -13.959  0.00  0.00    -0.550 OA
ATOM      2  C   UNL     1      12.951  -1.120 -13.323  0.00  0.00    +0.600 C 
ATOM      3  N   UNL     1      11.747  -1.358 -12.739  0.00  0.00    -0.350 NA
BRANCH   2  20
ATOM     20  C   UNL     1      13.654   0.222 -13.186  0.00  0.00    -0.100 C 
ATOM     21  C   UNL     1      13.832   0.530 -11.727  0.00  0.00    -0.150 C 
ENDBRANCH   2  20
ENDBRANCH   4   3
TORSDOF 3
