REMARK  Name = 1pxi_ligand
REMARK  1 active torsions:
REMARK  status: ('A' for Active; 'I' for Inactive)
REMARK    1  A    between atoms: C5A_7  and  C4_8
REMARK                            x       y       z     vdW  Elec       q    Type
REMARK                         _______ _______ _______ _____ _____    ______ ____
ROOT
ATOM      6  C   UNL     1      13.044  45.063  24.737  0.00  0.00    +0.039 A 
ATOM      7  C   UNL     1      12.036  46.084  24.851  0.00  0.00    +0.039 A 
ATOM      8  C   UNL     1      11.718  46.885  23.725  0.00  0.00    +0.095 A 
ATOM      9  N   UNL     1      12.389  46.595  22.535  0.00  0.00    -0.262 NA
ATOM     10  C   UNL     1      13.300  45.693  22.506  0.00  0.00    +0.180 A 
ATOM     11  N   UNL     1      13.856  45.457  21.310  0.00  0.00    -0.304 N 
ATOM     12  H   UNL     1      13.545  45.988  20.484  0.00  0.00    +0.182 HD
ATOM     13  H   UNL     1      14.594  44.745  21.217  0.00  0.00    +0.182 HD
ATOM     14  N   UNL     1      13.621  44.916  23.501  0.00  0.00    -0.260 NA
ENDROOT
BRANCH   6   5
ATOM      1 CL   UNL     1      14.171  44.275  29.729  0.00  0.00    -0.058 Cl
ATOM      2  C   UNL     1      13.921  43.833  28.152  0.00  0.00    +0.097 A 
ATOM      3  S   UNL     1      14.041  42.285  27.535  0.00  0.00    -0.008 S 
ATOM      4  C   UNL     1      13.636  42.920  26.036  0.00  0.00    +0.118 A 
ATOM      5  C   UNL     1      13.388  44.250  25.907  0.00  0.00    +0.008 A 
ATOM     15 CL   UNL     1      13.557  41.890  24.844  0.00  0.00    -0.042 Cl
ATOM     16  C   UNL     1      13.561  44.864  27.193  0.00  0.00    -0.006 A 
ENDBRANCH   6   5
TORSDOF 1
