REMARK  Name = E5W
REMARK  3 active torsions:
REMARK  status: ('A' for Active; 'I' for Inactive)
REMARK    1  A    between atoms: C6_4  and  C2_17
REMARK    2  A    between atoms: C8_7  and  C12_10
REMARK    3  A    between atoms: C12_10  and  N2_13
REMARK                            x       y       z     vdW  Elec       q    Type
REMARK                         _______ _______ _______ _____ _____    ______ ____
ROOT
ATOM      8  C   UNL     1      34.920  28.765  10.577  0.00  0.00    +0.007 A 
ATOM      9  C   UNL     1      35.001  27.878  11.679  0.00  0.00    +0.042 A 
ATOM     10  C   UNL     1      35.568  26.623  11.491  0.00  0.00    +0.196 A 
ATOM     11  O   UNL     1      35.611  25.798  12.567  0.00  0.00    -0.287 OA
ATOM     12  C   UNL     1      36.059  26.221  10.256  0.00  0.00    +0.039 A 
ATOM     13  C   UNL     1      35.978  27.090   9.160  0.00  0.00    -0.003 A 
ATOM     23  C   UNL     1      35.407  28.361   9.339  0.00  0.00    -0.003 A 
ENDROOT
BRANCH   8   7
ATOM      1  C   UNL     1      32.212  29.568  12.078  0.00  0.00    +0.056 C 
ATOM      2  C   UNL     1      33.119  30.448  11.289  0.00  0.00    +0.101 A 
ATOM      3  N   UNL     1      32.919  31.785  11.156  0.00  0.00    -0.082 NA
ATOM      4  O   UNL     1      33.956  32.260  10.462  0.00  0.00    -0.358 OA
ATOM      5  C   UNL     1      34.787  31.325  10.165  0.00  0.00    +0.154 A 
ATOM      6  C   UNL     1      36.002  31.737   9.372  0.00  0.00    +0.075 C 
ATOM      7  C   UNL     1      34.319  30.130  10.705  0.00  0.00    +0.050 A 
ENDBRANCH   8   7
BRANCH  13  14
ATOM     14  C   UNL     1      36.456  26.656   7.738  0.00  0.00    +0.099 C 
BRANCH  14  15
ATOM     15  N   UNL     1      35.325  26.470   6.753  0.00  0.00    -0.269 NA
ATOM     16  C   UNL     1      34.255  25.543   7.283  0.00  0.00    +0.078 C 
ATOM     17  C   UNL     1      33.052  25.299   6.328  0.00  0.00    +0.084 C 
ATOM     18  C   UNL     1      33.464  25.114   4.880  0.00  0.00    +0.267 C 
ATOM     19  F   UNL     1      33.720  23.879   4.687  0.00  0.00    -0.204 F 
ATOM     20  C   UNL     1      34.630  26.018   4.506  0.00  0.00    +0.084 C 
ATOM     21  F   UNL     1      32.428  25.362   4.080  0.00  0.00    -0.204 F 
ATOM     22  C   UNL     1      35.797  25.901   5.482  0.00  0.00    +0.078 C 
ENDBRANCH  14  15
ENDBRANCH  13  14
TORSDOF 3
