REMARK  Name = 1OIY
REMARK  5 active torsions:
REMARK  status: ('A' for Active; 'I' for Inactive)
REMARK    1  A    between atoms: C_2  and  C_3
REMARK    2  A    between atoms: C_2  and  O_16
REMARK    3  A    between atoms: C_10  and  C_25
REMARK    4  A    between atoms: C_15  and  O_16
REMARK    5  A    between atoms: N_22  and  C_23
REMARK                            x       y       z     vdW  Elec       q    Type
REMARK                         _______ _______ _______ _____ _____    ______ ____
ROOT
ATOM      1  C   UNL     1       7.881  43.698  49.518  0.00  0.00    +0.225 A 
ATOM      2  N   UNL     1       7.580  42.646  48.692  0.00  0.00    -0.283 N 
ATOM      3  H   UNL     1       8.351  42.262  48.057  0.00  0.00    +0.155 HD
ATOM     15  N   UNL     1       9.197  44.006  49.722  0.00  0.00    -0.195 NA
ATOM     16  C   UNL     1       9.536  45.015  50.543  0.00  0.00    +0.167 A 
ATOM     17  N   UNL     1      10.814  45.453  50.850  0.00  0.00    -0.329 N 
ATOM     18  H   UNL     1      11.759  45.074  50.521  0.00  0.00    +0.168 HD
ATOM     19  C   UNL     1      10.538  46.519  51.702  0.00  0.00    +0.199 A 
ATOM     20  N   UNL     1       9.182  46.757  51.944  0.00  0.00    -0.229 NA
ATOM     21  C   UNL     1       8.535  45.806  51.207  0.00  0.00    +0.169 A 
ATOM     22  C   UNL     1       7.125  45.448  50.966  0.00  0.00    +0.248 A 
ATOM     31  N   UNL     1       6.878  44.404  50.133  0.00  0.00    -0.177 NA
ENDROOT
BRANCH   2   4
ATOM      4  C   UNL     1       6.348  42.064  48.639  0.00  0.00    +0.034 A 
ATOM      5  C   UNL     1       5.950  41.370  47.487  0.00  0.00    +0.024 A 
ATOM      6  C   UNL     1       4.690  40.761  47.398  0.00  0.00    +0.015 A 
ATOM      7  C   UNL     1       3.807  40.829  48.462  0.00  0.00    +0.037 A 
ATOM     13  C   UNL     1       4.210  41.520  49.613  0.00  0.00    +0.015 A 
ATOM     14  C   UNL     1       5.467  42.126  49.717  0.00  0.00    +0.024 A 
BRANCH   7   8
ATOM      8  C   UNL     1       2.422  40.208  48.382  0.00  0.00    +0.241 C 
ATOM      9  O   UNL     1       1.816  40.255  47.314  0.00  0.00    -0.270 OA
ATOM     10  N   UNL     1       1.867  39.666  49.484  0.00  0.00    -0.325 N 
ATOM     11  H   UNL     1       0.892  39.228  49.432  0.00  0.00    +0.145 HD
ATOM     12  H   UNL     1       2.401  39.674  50.411  0.00  0.00    +0.145 HD
ENDBRANCH   7   8
ENDBRANCH   2   4
BRANCH  22  23
ATOM     23  O   UNL     1       6.094  46.150  51.550  0.00  0.00    -0.474 OA
BRANCH  23  24
ATOM     24  C   UNL     1       4.820  45.489  51.616  0.00  0.00    +0.234 C 
BRANCH  24  25
ATOM     25  C   UNL     1       3.945  46.081  52.715  0.00  0.00    +0.027 C 
ATOM     26  C   UNL     1       4.439  45.591  54.096  0.00  0.00    +0.007 C 
ATOM     27  C   UNL     1       3.512  46.124  55.178  0.00  0.00    +0.000 C 
ATOM     28  C   UNL     1       2.096  45.560  54.959  0.00  0.00    +0.000 C 
ATOM     29  C   UNL     1       1.501  46.003  53.611  0.00  0.00    +0.000 C 
ATOM     30  C   UNL     1       2.461  45.788  52.418  0.00  0.00    +0.007 C 
ENDBRANCH  24  25
ENDBRANCH  23  24
ENDBRANCH  22  23
TORSDOF 5
