REMARK  Name = 4U80
REMARK  7 active torsions:
REMARK  status: ('A' for Active; 'I' for Inactive)
REMARK    1  A    between atoms: O_1  and  N_9
REMARK    2  A    between atoms: O_1  and  C_10
REMARK    3  A    between atoms: O_4  and  C_27
REMARK    4  A    between atoms: C_5  and  N_14
REMARK    5  A    between atoms: C_7  and  C_8
REMARK    6  A    between atoms: C_10  and  C_27
REMARK    7  A    between atoms: C_15  and  C_19
REMARK                            x       y       z     vdW  Elec       q    Type
REMARK                         _______ _______ _______ _____ _____    ______ ____
ROOT
ATOM     10  C   UNL     1     -32.245  30.035  13.881  0.00  0.00    +0.218 A 
ATOM     11  O   UNL     1     -32.587  30.929  12.927  0.00  0.00    -0.448 OA
ATOM     12  C   UNL     1     -33.955  31.233  13.164  0.00  0.00    +0.141 A 
ATOM     13  C   UNL     1     -34.769  32.094  12.443  0.00  0.00    +0.067 A 
ATOM     14  C   UNL     1     -36.100  32.262  12.826  0.00  0.00    +0.114 A 
ATOM     15  N   UNL     1     -36.578  31.594  13.881  0.00  0.00    -0.262 NA
ATOM     16  C   UNL     1     -35.798  30.742  14.589  0.00  0.00    +0.124 A 
ATOM     17  C   UNL     1     -34.463  30.549  14.235  0.00  0.00    +0.064 A 
ATOM     18  C   UNL     1     -33.365  29.784  14.672  0.00  0.00    +0.124 A 
ENDROOT
BRANCH  18  19
ATOM     19  N   UNL     1     -33.243  28.921  15.737  0.00  0.00    -0.244 NA
ATOM     20  C   UNL     1     -34.048  27.892  16.118  0.00  0.00    +0.081 C 
ATOM     21  C   UNL     1     -33.693  27.124  17.228  0.00  0.00    +0.145 C 
ATOM     22  F   UNL     1     -32.559  27.398  17.903  0.00  0.00    -0.204 F 
ATOM     23  C   UNL     1     -34.510  26.072  17.646  0.00  0.00    +0.043 C 
ATOM     24  C   UNL     1     -35.686  25.781  16.956  0.00  0.00    -0.045 C 
ATOM     28  C   UNL     1     -36.029  26.546  15.846  0.00  0.00    -0.017 C 
ATOM     29  C   UNL     1     -35.215  27.590  15.430  0.00  0.00    +0.085 C 
BRANCH  24  25
ATOM     25  C   UNL     1     -36.588  24.661  17.357  0.00  0.00    +0.019 C 
ATOM     26  C   UNL     1     -35.789  23.585  18.079  0.00  0.00    +0.009 C 
ATOM     27  C   UNL     1     -36.708  24.506  18.865  0.00  0.00    +0.009 C 
ENDBRANCH  24  25
ENDBRANCH  18  19
BRANCH  10   8
ATOM      6  N   UNL     1     -29.895  29.926  13.183  0.00  0.00    -0.188 N 
ATOM      7  H   UNL     1     -30.090  30.643  12.413  0.00  0.00    +0.183 HD
ATOM      8  C   UNL     1     -30.862  29.502  13.989  0.00  0.00    +0.304 C 
ATOM      9  O   UNL     1     -30.608  28.719  14.886  0.00  0.00    -0.265 OA
BRANCH   6   1
ATOM      1  O   UNL     1     -28.645  29.414  13.373  0.00  0.00    -0.277 OA
BRANCH   1   2
ATOM      2  C   UNL     1     -27.491  30.260  13.397  0.00  0.00    +0.217 C 
BRANCH   2   3
ATOM      3  C   UNL     1     -26.968  30.314  14.831  0.00  0.00    +0.186 C 
BRANCH   3   4
ATOM      4  O   UNL     1     -25.547  30.123  14.846  0.00  0.00    -0.393 OA
ATOM      5  H   UNL     1     -25.315  29.187  14.430  0.00  0.00    +0.209 HD
ENDBRANCH   3   4
ENDBRANCH   2   3
ENDBRANCH   1   2
ENDBRANCH   6   1
ENDBRANCH  10   8
TORSDOF 7
