REMARK  Name = 3lxk_ligand
REMARK  6 active torsions:
REMARK  status: ('A' for Active; 'I' for Inactive)
REMARK    1  A    between atoms: C1_1  and  N8_13
REMARK    2  A    between atoms: C6_5  and  C7_12
REMARK    3  A    between atoms: C20_8  and  C22_9
REMARK    4  A    between atoms: C22_9  and  C23_10
REMARK    5  A    between atoms: N8_13  and  C9_14
REMARK    6  A    between atoms: N8_13  and  C10_15
REMARK                            x       y       z     vdW  Elec       q    Type
REMARK                         _______ _______ _______ _____ _____    ______ ____
ROOT
ATOM      1  C   UNL     1       0.726  15.735   5.410  0.00  0.00    +0.125 C 
ATOM     14  C   UNL     1       0.423  15.179   6.808  0.00  0.00    +0.016 C 
ATOM     15  C   UNL     1      -0.205  16.206   7.750  0.00  0.00    +0.010 C 
ATOM     16  C   UNL     1       1.700  14.662   7.446  0.00  0.00    +0.030 C 
ATOM     17  C   UNL     1       2.808  15.694   7.429  0.00  0.00    +0.139 C 
ATOM     18  N   UNL     1       2.987  16.243   6.113  0.00  0.00    -0.269 N 
ATOM     19  C   UNL     1       4.144  16.152   5.379  0.00  0.00    +0.205 C 
ATOM     23  O   UNL     1       4.221  16.572   4.238  0.00  0.00    -0.395 OA
ATOM     24  C   UNL     1       1.790  16.812   5.512  0.00  0.00    +0.167 C 
ENDROOT
BRANCH   1   2
ATOM      2  N   UNL     1      -0.565  16.235   4.924  0.00  0.00    -0.286 N 
ATOM     13  C   UNL     1      -0.747  17.627   4.602  0.00  0.00    +0.170 C 
BRANCH   2   3
ATOM      3  C   UNL     1      -1.394  15.375   4.171  0.00  0.00    +0.121 A 
ATOM      4  N   UNL     1      -2.448  15.953   3.569  0.00  0.00    -0.273 NA
ATOM      5  C   UNL     1      -3.298  15.183   2.883  0.00  0.00    +0.148 A 
ATOM      6  N   UNL     1      -3.295  13.865   2.689  0.00  0.00    -0.277 NA
ATOM      7  C   UNL     1      -2.240  13.338   3.307  0.00  0.00    +0.136 A 
ATOM      8  N   UNL     1      -1.966  12.007   3.291  0.00  0.00    -0.267 N 
ATOM      9  H   UNL     1      -2.539  11.292   2.821  0.00  0.00    +0.232 HD
ATOM     10  C   UNL     1      -0.825  11.758   3.987  0.00  0.00    +0.117 A 
ATOM     11  C   UNL     1      -0.375  12.958   4.474  0.00  0.00    -0.023 A 
ATOM     12  C   UNL     1      -1.269  13.988   4.041  0.00  0.00    +0.043 A 
ENDBRANCH   2   3
ENDBRANCH   1   2
BRANCH  19  20
ATOM     20  C   UNL     1       5.322  15.524   6.077  0.00  0.00    +0.321 C 
BRANCH  20  21
ATOM     21  C   UNL     1       6.430  15.309   5.168  0.00  0.00    +0.112 C 
ATOM     22  N   UNL     1       7.299  15.078   4.438  0.00  0.00    -0.301 NA
ENDBRANCH  20  21
ENDBRANCH  19  20
TORSDOF 4
