REMARK  Name = 5ID
REMARK  2 active torsions:
REMARK  status: ('A' for Active; 'I' for Inactive)
REMARK    1  A    between atoms: C5'_2  and  C4'_3
REMARK    2  A    between atoms: C1'_5  and  N9_6
REMARK                            x       y       z     vdW  Elec       q    Type
REMARK                         _______ _______ _______ _____ _____    ______ ____
ROOT
ATOM      6  N   UNL     1      16.832  -5.623 -16.151  0.00  0.00    -0.286 N 
ATOM      7  C   UNL     1      17.704  -6.416 -15.472  0.00  0.00    +0.151 A 
ATOM      8  C   UNL     1      17.027  -7.162 -14.522  0.00  0.00    +0.076 A 
ATOM      9  C   UNL     1      17.694  -8.056 -13.702  0.00  0.00    +0.175 A 
ATOM     10  N   UNL     1      17.023  -8.778 -12.772  0.00  0.00    -0.107 NA
ATOM     11  N   UNL     1      19.028  -8.188 -13.850  0.00  0.00    -0.206 NA
ATOM     12  C   UNL     1      19.678  -7.465 -14.773  0.00  0.00    +0.202 A 
ATOM     13  C   UNL     1      15.645  -6.712 -14.705  0.00  0.00    +0.053 A 
ATOM     14  I   UNL     1      13.988  -7.438 -13.554  0.00  0.00    -0.041 I 
ATOM     15  N   UNL     1      19.044  -6.598 -15.571  0.00  0.00    -0.206 NA
ATOM     16  C   UNL     1      15.563  -5.772 -15.705  0.00  0.00    +0.085 A 
ENDROOT
BRANCH   6   5
ATOM      3  C4* UNL     1      16.022  -4.727 -19.252  0.00  0.00    +0.183 C 
ATOM      4  O4* UNL     1      16.042  -4.253 -17.878  0.00  0.00    -0.331 OA
ATOM      5  C1* UNL     1      17.218  -4.695 -17.232  0.00  0.00    +0.240 C 
ATOM     17  C2* UNL     1      18.089  -5.375 -18.285  0.00  0.00    +0.234 C 
ATOM     18  O2* UNL     1      18.922  -4.393 -18.884  0.00  0.00    -0.216 OA
ATOM     19  C3* UNL     1      17.037  -5.860 -19.269  0.00  0.00    +0.216 C 
ATOM     20  O3* UNL     1      17.551  -6.125 -20.561  0.00  0.00    -0.218 OA
BRANCH   3   2
ATOM      1  O5* UNL     1      14.535  -5.473 -21.011  0.00  0.00    -0.218 OA
ATOM      2  C5* UNL     1      14.614  -5.102 -19.642  0.00  0.00    +0.214 C 
ENDBRANCH   3   2
ENDBRANCH   6   5
TORSDOF 2
