REMARK  Name = 5DEW
REMARK  8 active torsions:
REMARK  status: ('A' for Active; 'I' for Inactive)
REMARK    1  A    between atoms: N_1  and  C_14
REMARK    2  A    between atoms: C_5  and  C_7
REMARK    3  A    between atoms: C_10  and  C_22
REMARK    4  A    between atoms: C_13  and  C_14
REMARK    5  A    between atoms: N_16  and  C_29
REMARK    6  A    between atoms: C_25  and  C_27
REMARK    7  A    between atoms: C_29  and  C_30
REMARK    8  A    between atoms: C_33  and  N_36
REMARK                            x       y       z     vdW  Elec       q    Type
REMARK                         _______ _______ _______ _____ _____    ______ ____
ROOT
ATOM      1  N   UNL     1      14.689 -15.702  17.976  0.00  0.00    -0.314 N 
ATOM      2  H   UNL     1      14.795 -15.911  19.020  0.00  0.00    +0.149 HD
ATOM      5  C   UNL     1      15.722 -15.938  17.090  0.00  0.00    +0.217 A 
ATOM      6  N   UNL     1      16.732 -16.711  17.475  0.00  0.00    -0.222 NA
ATOM      7  C   UNL     1      17.737 -16.968  16.650  0.00  0.00    +0.126 A 
ATOM      8  C   UNL     1      17.721 -16.408  15.360  0.00  0.00    +0.036 A 
ATOM      9  C   UNL     1      18.786 -16.649  14.446  0.00  0.00    +0.027 C 
ATOM     10  C   UNL     1      18.705 -16.088  13.203  0.00  0.00    +0.049 C 
ATOM     25  C   UNL     1      17.554 -15.254  12.851  0.00  0.00    +0.261 C 
ATOM     26  O   UNL     1      17.490 -14.738  11.738  0.00  0.00    -0.267 OA
ATOM     27  N   UNL     1      16.573 -15.014  13.743  0.00  0.00    -0.292 N 
ATOM     38  C   UNL     1      16.630 -15.582  14.993  0.00  0.00    +0.148 A 
ATOM     39  N   UNL     1      15.656 -15.392  15.886  0.00  0.00    -0.196 NA
ENDROOT
BRANCH  10  11
ATOM     11  C   UNL     1      19.779 -16.228  12.172  0.00  0.00    +0.006 A 
ATOM     12  C   UNL     1      19.657 -17.106  11.097  0.00  0.00    +0.050 A 
ATOM     13 CL   UNL     1      18.246 -18.104  10.970  0.00  0.00    -0.083 Cl
ATOM     14  C   UNL     1      20.656 -17.186  10.129  0.00  0.00    +0.030 A 
ATOM     15  C   UNL     1      21.784 -16.377  10.262  0.00  0.00    +0.003 A 
ATOM     16  C   UNL     1      21.904 -15.496  11.338  0.00  0.00    +0.010 A 
ATOM     24  C   UNL     1      20.899 -15.403  12.284  0.00  0.00    +0.011 A 
BRANCH  15  17
ATOM     17  C   UNL     1      22.862 -16.454   9.245  0.00  0.00    +0.089 A 
ATOM     18  N   UNL     1      22.544 -16.548   7.953  0.00  0.00    -0.249 NA
ATOM     19  C   UNL     1      23.498 -16.624   7.041  0.00  0.00    +0.057 A 
ATOM     20  C   UNL     1      23.126 -16.732   5.589  0.00  0.00    +0.067 C 
ATOM     21  C   UNL     1      24.829 -16.601   7.422  0.00  0.00    +0.133 A 
ATOM     22  N   UNL     1      25.145 -16.507   8.709  0.00  0.00    -0.259 NA
ATOM     23  C   UNL     1      24.198 -16.420   9.634  0.00  0.00    +0.139 A 
ENDBRANCH  15  17
ENDBRANCH  10  11
BRANCH   1   3
ATOM      3  C   UNL     1      13.444 -15.155  17.433  0.00  0.00    +0.101 C 
ATOM      4  C   UNL     1      13.471 -13.628  17.532  0.00  0.00    +0.024 C 
ENDBRANCH   1   3
BRANCH  27  28
ATOM     28  C   UNL     1      15.464 -14.143  13.325  0.00  0.00    +0.130 C 
BRANCH  28  29
ATOM     29  C   UNL     1      15.592 -12.745  13.958  0.00  0.00    +0.009 C 
ATOM     30  C   UNL     1      14.379 -11.879  13.576  0.00  0.00    +0.007 C 
ATOM     31  C   UNL     1      14.514 -10.471  14.176  0.00  0.00    +0.019 C 
ATOM     32  C   UNL     1      15.810  -9.845  13.645  0.00  0.00    +0.051 C 
ATOM     36  C   UNL     1      16.995 -10.679  14.147  0.00  0.00    +0.019 C 
ATOM     37  C   UNL     1      16.893 -12.069  13.517  0.00  0.00    +0.007 C 
BRANCH  32  33
ATOM     33  N   UNL     1      15.948  -8.459  14.116  0.00  0.00    -0.327 NA
ATOM     34  H   UNL     1      15.964  -8.445  15.186  0.00  0.00    +0.118 HD
ATOM     35  H   UNL     1      16.860  -8.043  13.740  0.00  0.00    +0.118 HD
ENDBRANCH  32  33
ENDBRANCH  28  29
ENDBRANCH  27  28
TORSDOF 6
