REMARK  Name = 3FLQ
REMARK  8 active torsions:
REMARK  status: ('A' for Active; 'I' for Inactive)
REMARK    1  A    between atoms: C_5  and  O_19
REMARK    2  A    between atoms: C_6  and  C_7
REMARK    3  A    between atoms: C_6  and  C_10
REMARK    4  A    between atoms: C_6  and  N_26
REMARK    5  A    between atoms: C_8  and  S_27
REMARK    6  A    between atoms: N_9  and  C_25
REMARK    7  A    between atoms: C_10  and  S_27
REMARK    8  A    between atoms: C_18  and  O_19
REMARK                            x       y       z     vdW  Elec       q    Type
REMARK                         _______ _______ _______ _____ _____    ______ ____
ROOT
ATOM      1  C   UNL     1      23.732   8.115  32.409  0.00  0.00    +0.217 A 
ATOM      2  N   UNL     1      24.876   7.414  32.624  0.00  0.00    -0.309 N 
ATOM      3  H   UNL     1      24.844   6.345  32.597  0.00  0.00    +0.149 HD
ATOM     11  N   UNL     1      23.650   9.389  32.862  0.00  0.00    -0.196 NA
ATOM     12  C   UNL     1      22.540  10.126  32.662  0.00  0.00    +0.148 A 
ATOM     13  N   UNL     1      22.466  11.456  33.139  0.00  0.00    -0.293 N 
ATOM     14  C   UNL     1      23.606  12.046  33.858  0.00  0.00    +0.154 C 
ATOM     15  C   UNL     1      21.282  12.208  32.915  0.00  0.00    +0.295 C 
ATOM     16  O   UNL     1      21.177  13.389  33.322  0.00  0.00    -0.264 OA
ATOM     17  C   UNL     1      20.217  11.629  32.239  0.00  0.00    +0.193 C 
ATOM     27  C   UNL     1      20.311  10.311  31.769  0.00  0.00    +0.065 C 
ATOM     28  C   UNL     1      21.465   9.558  31.982  0.00  0.00    +0.039 A 
ATOM     29  C   UNL     1      21.566   8.246  31.516  0.00  0.00    +0.126 A 
ATOM     30  N   UNL     1      22.692   7.550  31.740  0.00  0.00    -0.222 NA
ENDROOT
BRANCH   2   4
ATOM      4  C   UNL     1      26.152   8.081  32.891  0.00  0.00    +0.091 C 
ATOM     10  C   UNL     1      26.938   7.311  33.947  0.00  0.00    +0.029 C 
BRANCH   4   5
ATOM      5  C   UNL     1      26.922   8.109  31.568  0.00  0.00    +0.187 C 
BRANCH   5   6
ATOM      6  S   UNL     1      26.448   9.374  30.589  0.00  0.00    -0.032 S 
ATOM      7  O   UNL     1      25.112   9.164  30.098  0.00  0.00    -0.175 OA
ATOM      8  O   UNL     1      27.324   9.408  29.449  0.00  0.00    -0.175 OA
ATOM      9  C   UNL     1      26.525  10.818  31.418  0.00  0.00    +0.194 C 
ENDBRANCH   5   6
ENDBRANCH   4   5
ENDBRANCH   2   4
BRANCH  17  18
ATOM     18  O   UNL     1      19.084  12.386  32.044  0.00  0.00    -0.448 OA
BRANCH  18  19
ATOM     19  C   UNL     1      17.865  11.840  31.718  0.00  0.00    +0.164 A 
ATOM     20  C   UNL     1      17.243  10.944  32.581  0.00  0.00    +0.168 A 
ATOM     21  F   UNL     1      17.838  10.599  33.736  0.00  0.00    -0.202 F 
ATOM     22  C   UNL     1      16.008  10.398  32.251  0.00  0.00    +0.080 A 
ATOM     23  C   UNL     1      15.396  10.752  31.057  0.00  0.00    +0.126 A 
ATOM     24  C   UNL     1      16.012  11.650  30.189  0.00  0.00    +0.042 A 
ATOM     25  F   UNL     1      14.211  10.219  30.744  0.00  0.00    -0.205 F 
ATOM     26  C   UNL     1      17.251  12.197  30.523  0.00  0.00    +0.052 A 
ENDBRANCH  18  19
ENDBRANCH  17  18
TORSDOF 5
