REMARK  Name = 4CFN
REMARK  4 active torsions:
REMARK  status: ('A' for Active; 'I' for Inactive)
REMARK    1  A    between atoms: C_2  and  C_5
REMARK    2  A    between atoms: C_14  and  O_15
REMARK    3  A    between atoms: O_15  and  C_16
REMARK    4  A    between atoms: C_16  and  C_17
REMARK                            x       y       z     vdW  Elec       q    Type
REMARK                         _______ _______ _______ _____ _____    ______ ____
ROOT
ATOM      3  C   UNL     1       7.655  45.980  51.301  0.00  0.00    +0.215 A 
ATOM      4  N   UNL     1       6.423  45.697  51.675  0.00  0.00    -0.329 N 
ATOM      5  H   UNL     1       5.828  46.220  52.394  0.00  0.00    +0.168 HD
ATOM      6  C   UNL     1       6.080  44.635  50.978  0.00  0.00    +0.148 A 
ATOM      7  C   UNL     1       4.954  43.949  50.991  0.00  0.00    +0.246 A 
ATOM     16  N   UNL     1       4.783  42.881  50.194  0.00  0.00    -0.178 NA
ATOM     17  C   UNL     1       5.793  42.543  49.371  0.00  0.00    +0.218 A 
ATOM     18  N   UNL     1       5.584  41.492  48.596  0.00  0.00    -0.327 N 
ATOM     19  H   UNL     1       4.653  40.968  48.645  0.00  0.00    +0.145 HD
ATOM     20  H   UNL     1       6.346  41.166  47.919  0.00  0.00    +0.145 HD
ATOM     21  N   UNL     1       6.963  43.228  49.331  0.00  0.00    -0.193 NA
ATOM     22  C   UNL     1       7.105  44.281  50.156  0.00  0.00    +0.187 A 
ATOM     23  N   UNL     1       8.109  45.150  50.363  0.00  0.00    -0.204 NA
ENDROOT
BRANCH   3   2
ATOM      1  F   UNL     1       9.598  46.998  51.781  0.00  0.00    -0.163 F 
ATOM      2  C   UNL     1       8.402  47.154  51.910  0.00  0.00    +0.451 C 
ATOM     24  F   UNL     1       8.073  48.236  51.408  0.00  0.00    -0.163 F 
ATOM     25  F   UNL     1       8.155  47.193  53.038  0.00  0.00    -0.163 F 
ENDBRANCH   3   2
BRANCH   7   8
ATOM      8  O   UNL     1       4.008  44.401  51.849  0.00  0.00    -0.475 OA
BRANCH   8   9
ATOM      9  C   UNL     1       3.040  43.426  52.245  0.00  0.00    +0.234 C 
BRANCH   9  10
ATOM     10  C   UNL     1       1.653  44.059  52.105  0.00  0.00    +0.027 C 
ATOM     11  C   UNL     1       1.104  44.387  53.452  0.00  0.00    +0.007 C 
ATOM     12  C   UNL     1      -0.434  44.735  53.289  0.00  0.00    +0.000 C 
ATOM     13  C   UNL     1      -0.674  45.811  52.240  0.00  0.00    +0.000 C 
ATOM     14  C   UNL     1       0.165  45.598  50.960  0.00  0.00    +0.000 C 
ATOM     15  C   UNL     1       1.662  45.369  51.345  0.00  0.00    +0.007 C 
ENDBRANCH   9  10
ENDBRANCH   8   9
ENDBRANCH   7   8
TORSDOF 4
