REMARK  Name = 4pms_ligand
REMARK  5 active torsions:
REMARK  status: ('A' for Active; 'I' for Inactive)
REMARK    1  A    between atoms: C2_1  and  C3_2
REMARK    2  A    between atoms: C9_5  and  C10_6
REMARK    3  A    between atoms: C13_9  and  C14_30
REMARK    4  A    between atoms: N_18  and  C_19
REMARK    5  A    between atoms: C_19  and  C1_20
REMARK                            x       y       z     vdW  Elec       q    Type
REMARK                         _______ _______ _______ _____ _____    ______ ____
ROOT
ATOM      6  N   UNL     1      31.967 -34.949  -8.817  0.00  0.00    -0.235 N 
ATOM      7  C   UNL     1      31.901 -34.904  -7.422  0.00  0.00    +0.088 A 
ATOM      8  C   UNL     1      32.863 -35.232  -6.474  0.00  0.00    +0.047 A 
ATOM      9  C   UNL     1      32.503 -35.100  -5.142  0.00  0.00    +0.065 A 
ATOM     10  N   UNL     1      31.298 -34.673  -4.718  0.00  0.00    -0.313 NA
ATOM     11  C   UNL     1      30.368 -34.344  -5.635  0.00  0.00    +0.040 A 
ATOM     22  C   UNL     1      30.624 -34.439  -7.039  0.00  0.00    +0.012 A 
ATOM     23  C   UNL     1      29.936 -34.185  -8.281  0.00  0.00    +0.000 A 
ATOM     24  C   UNL     1      30.763 -34.468  -9.323  0.00  0.00    +0.103 A 
ENDROOT
BRANCH  11  12
ATOM     12  C   UNL     1      29.052 -33.950  -5.065  0.00  0.00    +0.002 A 
ATOM     13  C   UNL     1      28.458 -34.794  -4.150  0.00  0.00    +0.013 A 
ATOM     14  C   UNL     1      27.203 -34.535  -3.619  0.00  0.00    +0.004 A 
ATOM     15  C   UNL     1      26.501 -33.427  -3.989  0.00  0.00    +0.012 A 
ATOM     16  C   UNL     1      27.047 -32.502  -4.918  0.00  0.00    -0.016 A 
ATOM     17  C   UNL     1      26.354 -31.320  -5.300  0.00  0.00    +0.009 A 
ATOM     18  C   UNL     1      26.912 -30.432  -6.180  0.00  0.00    +0.001 A 
ATOM     19  C   UNL     1      28.172 -30.666  -6.714  0.00  0.00    +0.001 A 
ATOM     20  C   UNL     1      28.881 -31.785  -6.368  0.00  0.00    +0.009 A 
ATOM     21  C   UNL     1      28.348 -32.753  -5.465  0.00  0.00    -0.009 A 
ENDBRANCH  11  12
BRANCH  24  25
ATOM     25  C   UNL     1      30.520 -34.206 -10.777  0.00  0.00    +0.090 C 
ATOM     26  O   UNL     1      31.511 -34.173 -11.542  0.00  0.00    -0.558 OA
ATOM     27  O   UNL     1      29.333 -33.980 -11.121  0.00  0.00    -0.558 OA
ENDBRANCH  24  25
BRANCH   6   5
ATOM      5  C   UNL     1      33.071 -35.523  -9.577  0.00  0.00    +0.264 C 
BRANCH   5   4
ATOM      1  C   UNL     1      35.841 -33.344  -9.330  0.00  0.00    +0.232 A 
ATOM      2  O   UNL     1      35.505 -33.081 -10.603  0.00  0.00    -0.146 OA
ATOM      3  N   UNL     1      34.387 -33.914 -10.888  0.00  0.00    -0.129 NA
ATOM      4  C   UNL     1      34.196 -34.546  -9.771  0.00  0.00    +0.121 A 
ATOM     28  N   UNL     1      35.076 -34.229  -8.775  0.00  0.00    -0.262 NA
BRANCH   1  29
ATOM     29  C   UNL     1      37.047 -32.714  -8.772  0.00  0.00    +0.048 A 
ATOM     30  C   UNL     1      37.562 -33.130  -7.541  0.00  0.00    +0.023 A 
ATOM     31  C   UNL     1      38.727 -32.569  -7.041  0.00  0.00    +0.006 A 
ATOM     32  C   UNL     1      39.389 -31.582  -7.752  0.00  0.00    +0.006 A 
ATOM     33  C   UNL     1      38.877 -31.149  -8.965  0.00  0.00    +0.006 A 
ATOM     34  C   UNL     1      37.713 -31.705  -9.472  0.00  0.00    +0.023 A 
ENDBRANCH   1  29
ENDBRANCH   5   4
ENDBRANCH   6   5
TORSDOF 5
