REMARK  Name = 1ove_ligand
REMARK  3 active torsions:
REMARK  status: ('A' for Active; 'I' for Inactive)
REMARK    1  A    between atoms: C6_8  and  N1_9
REMARK    2  A    between atoms: C13_17  and  C22_28
REMARK    3  A    between atoms: C15_19  and  C16_20
REMARK                            x       y       z     vdW  Elec       q    Type
REMARK                         _______ _______ _______ _____ _____    ______ ____
ROOT
ATOM      4  N   UNL     1      23.054  10.421  30.955  0.00  0.00    -0.173 N 
ATOM      5  C   UNL     1      22.330  11.646  31.072  0.00  0.00    +0.088 A 
ATOM      6  C   UNL     1      22.969  12.941  31.404  0.00  0.00    +0.003 A 
ATOM      7  C   UNL     1      22.247  14.161  31.546  0.00  0.00    -0.052 A 
ATOM     15  C   UNL     1      20.803  14.082  31.360  0.00  0.00    -0.032 A 
ATOM     16  C   UNL     1      20.106  12.854  31.033  0.00  0.00    -0.035 A 
ATOM     25  C   UNL     1      20.936  11.660  30.895  0.00  0.00    -0.013 A 
ATOM     26  C   UNL     1      20.158  10.256  30.512  0.00  0.00    +0.077 C 
ATOM     27  C   UNL     1      21.157   9.463  29.599  0.00  0.00    +0.162 C 
ATOM     28  C   UNL     1      22.567   9.305  30.265  0.00  0.00    +0.231 C 
ATOM     29  O   UNL     1      23.146   8.247  30.161  0.00  0.00    -0.374 OA
ENDROOT
BRANCH   4   3
ATOM      1 CL   UNL     1      25.461  11.192  29.327  0.00  0.00    -0.081 Cl
ATOM      2  C   UNL     1      25.545  10.650  30.929  0.00  0.00    +0.066 A 
ATOM      3  C   UNL     1      24.323  10.319  31.596  0.00  0.00    +0.118 A 
ATOM     30  C   UNL     1      24.411   9.878  32.957  0.00  0.00    +0.066 A 
ATOM     31 CL   UNL     1      22.937   9.491  33.773  0.00  0.00    -0.081 Cl
ATOM     32  C   UNL     1      25.663   9.764  33.641  0.00  0.00    -0.001 A 
ATOM     33  C   UNL     1      26.867  10.104  32.929  0.00  0.00    -0.025 A 
ATOM     34  C   UNL     1      26.812  10.551  31.565  0.00  0.00    -0.001 A 
ENDBRANCH   4   3
BRANCH  16  17
ATOM     17  C   UNL     1      18.607  12.901  30.886  0.00  0.00    +0.004 A 
ATOM     18  C   UNL     1      17.797  12.218  31.896  0.00  0.00    +0.138 A 
ATOM     19  F   UNL     1      18.324  11.557  32.950  0.00  0.00    -0.183 F 
ATOM     20  C   UNL     1      16.402  12.195  31.843  0.00  0.00    +0.064 A 
ATOM     21  C   UNL     1      15.756  12.857  30.771  0.00  0.00    +0.131 A 
ATOM     22  F   UNL     1      14.426  12.828  30.719  0.00  0.00    -0.185 F 
ATOM     23  C   UNL     1      16.487  13.551  29.750  0.00  0.00    +0.025 A 
ATOM     24  C   UNL     1      17.929  13.575  29.804  0.00  0.00    +0.001 A 
ENDBRANCH  16  17
BRANCH   7   8
ATOM      8  C   UNL     1      22.991  15.502  31.905  0.00  0.00    +0.063 C 
ATOM      9  C   UNL     1      24.086  15.750  30.763  0.00  0.00    -0.034 C 
ATOM     10  C   UNL     1      24.015  17.057  29.962  0.00  0.00    +0.087 C 
ATOM     11  N   UNL     1      23.796  18.186  30.862  0.00  0.00    -0.304 N 
ATOM     12  H   UNL     1      24.496  18.914  31.065  0.00  0.00    +0.201 HD
ATOM     13  C   UNL     1      22.449  18.146  31.438  0.00  0.00    +0.087 C 
ATOM     14  C   UNL     1      22.162  16.836  32.269  0.00  0.00    -0.034 C 
ENDBRANCH   7   8
TORSDOF 3
