REMARK  Name = 4ach_ligand
REMARK  10 active torsions:
REMARK  status: ('A' for Active; 'I' for Inactive)
REMARK    1  A    between atoms: C1_1  and  N2_2
REMARK    2  A    between atoms: N6_6  and  S7_7
REMARK    3  A    between atoms: S7_7  and  C10_10
REMARK    4  A    between atoms: C13_13  and  C16_16
REMARK    5  A    between atoms: C20_20  and  C22_22
REMARK    6  A    between atoms: N24_24  and  C25_25
REMARK    7  A    between atoms: C25_25  and  C30_27
REMARK    8  A    between atoms: C27_26  and  O29_31
REMARK    9  A    between atoms: C30_27  and  C28_30
REMARK   10  A    between atoms: C28_30  and  O29_31
REMARK                            x       y       z     vdW  Elec       q    Type
REMARK                         _______ _______ _______ _____ _____    ______ ____
ROOT
ATOM     12  C   UNL     1      40.680  36.445  53.226  0.00  0.00    +0.074 A 
ATOM     13  N   UNL     1      39.830  35.638  53.883  0.00  0.00    -0.260 NA
ATOM     14  C   UNL     1      39.500  34.414  53.415  0.00  0.00    +0.169 A 
ATOM     24  C   UNL     1      40.027  34.033  52.152  0.00  0.00    +0.161 A 
ATOM     25  N   UNL     1      39.733  32.795  51.598  0.00  0.00    -0.311 N 
ATOM     26  H   UNL     1      39.104  32.155  52.084  0.00  0.00    +0.182 HD
ATOM     27  H   UNL     1      40.146  32.525  50.705  0.00  0.00    +0.182 HD
ATOM     28  N   UNL     1      40.857  34.847  51.486  0.00  0.00    -0.253 NA
ATOM     29  C   UNL     1      41.171  36.042  51.967  0.00  0.00    +0.130 A 
ENDROOT
BRANCH  12  11
ATOM      8  C   UNL     1      41.450  40.360  54.689  0.00  0.00    +0.109 A 
ATOM      9  C   UNL     1      41.467  39.284  55.596  0.00  0.00    +0.030 A 
ATOM     10  C   UNL     1      41.242  37.997  55.135  0.00  0.00    +0.013 A 
ATOM     11  C   UNL     1      41.001  37.802  53.755  0.00  0.00    -0.000 A 
ATOM     30  C   UNL     1      41.005  38.895  52.856  0.00  0.00    +0.013 A 
ATOM     31  C   UNL     1      41.258  40.167  53.317  0.00  0.00    +0.030 A 
BRANCH   8   7
ATOM      7  S   UNL     1      41.774  41.998  55.257  0.00  0.00    +0.071 S 
ATOM     32  O   UNL     1      41.198  42.863  54.275  0.00  0.00    -0.150 OA
ATOM     33  O   UNL     1      41.409  42.034  56.636  0.00  0.00    -0.150 OA
BRANCH   7   5
ATOM      1  C   UNL     1      47.688  42.347  54.682  0.00  0.00    -0.131 C 
ATOM      2  N   UNL     1      46.231  42.423  54.891  0.00  0.00    +0.403 NA
ATOM      3  C   UNL     1      45.780  41.495  55.940  0.00  0.00    -0.089 C 
ATOM      4  C   UNL     1      44.305  41.758  56.301  0.00  0.00    +0.103 C 
ATOM      5  N   UNL     1      43.442  42.144  55.138  0.00  0.00    -0.238 NA
ATOM      6  C   UNL     1      44.021  42.658  53.857  0.00  0.00    +0.103 C 
ATOM     34  C   UNL     1      45.483  42.222  53.634  0.00  0.00    -0.089 C 
ENDBRANCH   7   5
ENDBRANCH   8   7
ENDBRANCH  12  11
BRANCH  14  15
ATOM     15  C   UNL     1      38.567  33.536  54.197  0.00  0.00    +0.225 C 
ATOM     16  N   UNL     1      38.267  33.919  55.463  0.00  0.00    -0.285 N 
ATOM     17  H   UNL     1      38.718  34.769  55.801  0.00  0.00    +0.184 HD
ATOM     23  O   UNL     1      38.085  32.514  53.720  0.00  0.00    -0.383 OA
BRANCH  16  18
ATOM     18  C   UNL     1      37.362  33.240  56.399  0.00  0.00    +0.136 C 
BRANCH  18  19
ATOM     19  C   UNL     1      36.169  34.167  56.671  0.00  0.00    +0.052 C 
BRANCH  19  20
ATOM     20  C   UNL     1      36.592  35.583  57.104  0.00  0.00    +0.161 C 
BRANCH  20  21
ATOM     21  O   UNL     1      36.726  36.494  56.000  0.00  0.00    -0.383 OA
ATOM     22  C   UNL     1      37.836  37.389  56.111  0.00  0.00    +0.193 C 
ENDBRANCH  20  21
ENDBRANCH  19  20
ENDBRANCH  18  19
ENDBRANCH  16  18
ENDBRANCH  14  15
TORSDOF 8
