REMARK  Name = 6HME
REMARK  4 active torsions:
REMARK  status: ('A' for Active; 'I' for Inactive)
REMARK    1  A    between atoms: C16_4  and  N15_22
REMARK    2  A    between atoms: C02_7  and  C03_8
REMARK    3  A    between atoms: C03_8  and  O04_23
REMARK    4  A    between atoms: C05_9  and  O04_23
REMARK                            x       y       z     vdW  Elec       q    Type
REMARK                         _______ _______ _______ _____ _____    ______ ____
ROOT
ATOM      1  C   UNL     1      44.991  -3.466  35.469  0.00  0.00    +0.150 A 
ATOM      2  N   UNL     1      45.716  -2.824  34.456  0.00  0.00    -0.350 N 
ATOM      6  C   UNL     1      46.681  -1.969  35.050  0.00  0.00    +0.200 A 
ATOM      7  C   UNL     1      47.711  -1.044  34.369  0.00  0.00    -0.100 C 
ATOM      8  C   UNL     1      48.846  -0.513  35.304  0.00  0.00    -0.100 C 
ATOM      9  C   UNL     1      48.394  -0.217  36.737  0.00  0.00    -0.100 C 
ATOM     10  C   UNL     1      47.434  -1.265  37.335  0.00  0.00    +0.550 C 
ATOM     11  O   UNL     1      47.399  -1.333  38.543  0.00  0.00    -0.550 OA
ATOM     12  C   UNL     1      46.552  -2.086  36.458  0.00  0.00    +0.050 A 
ATOM     13  C   UNL     1      45.496  -3.010  36.701  0.00  0.00    -0.100 A 
ATOM     14  C   UNL     1      44.698  -3.691  37.765  0.00  0.00    +0.550 C 
ATOM     15  O   UNL     1      44.794  -3.558  38.928  0.00  0.00    -0.550 OA
ATOM     16  C   UNL     1      43.685  -4.601  37.048  0.00  0.00    +0.000 A 
ATOM     17  C   UNL     1      42.716  -5.455  37.593  0.00  0.00    -0.130 A 
ATOM     18  C   UNL     1      41.888  -6.188  36.705  0.00  0.00    -0.130 A 
ATOM     19  C   UNL     1      42.047  -6.056  35.323  0.00  0.00    -0.130 A 
ATOM     20  C   UNL     1      43.029  -5.192  34.778  0.00  0.00    +0.185 A 
ATOM     25  C   UNL     1      43.866  -4.452  35.635  0.00  0.00    +0.000 A 
ENDROOT
BRANCH   2   3
ATOM      3  C   UNL     1      45.475  -3.033  32.969  0.00  0.00    +0.000 C 
ATOM      4  C   UNL     1      46.755  -3.434  32.211  0.00  0.00    -0.150 C 
ATOM      5  C   UNL     1      44.835  -1.772  32.348  0.00  0.00    -0.150 C 
ENDBRANCH   2   3
BRANCH  20  21
ATOM     21  O   UNL     1      43.180  -5.076  33.405  0.00  0.00    -0.365 OA
BRANCH  21  22
ATOM     22  C   UNL     1      42.288  -5.675  32.439  0.00  0.00    +0.080 C 
BRANCH  22  23
ATOM     23  C   UNL     1      42.911  -5.810  31.061  0.00  0.00    -0.100 C 
ATOM     24  C   UNL     1      42.260  -5.688  29.910  0.00  0.00    -0.200 C 
ENDBRANCH  22  23
ENDBRANCH  21  22
ENDBRANCH  20  21
TORSDOF 4
