REMARK  Name = 4deg_ligand
REMARK  7 active torsions:
REMARK  status: ('A' for Active; 'I' for Inactive)
REMARK    1  A    between atoms: C7_1  and  C5_2
REMARK    2  A    between atoms: C4_6  and  C3_7
REMARK    3  A    between atoms: C9_15  and  C10_16
REMARK    4  A    between atoms: C10_16  and  N6_17
REMARK    5  A    between atoms: N6_17  and  C11_18
REMARK    6  A    between atoms: C17_27  and  O1_28
REMARK    7  A    between atoms: O1_28  and  C19_29
REMARK                            x       y       z     vdW  Elec       q    Type
REMARK                         _______ _______ _______ _____ _____    ______ ____
ROOT
ATOM      6  C   UNL     1      18.104  13.237  58.087  0.00  0.00    +0.126 A 
ATOM      7  N   UNL     1      18.998  12.878  57.140  0.00  0.00    -0.118 NA
ATOM      8  N   UNL     1      19.871  13.658  56.732  0.00  0.00    -0.091 N 
ATOM      9  C   UNL     1      20.897  13.564  55.796  0.00  0.00    +0.196 A 
ATOM     25  N   UNL     1      21.537  14.736  55.771  0.00  0.00    -0.265 NA
ATOM     26  N   UNL     1      21.015  15.523  56.578  0.00  0.00    -0.277 NA
ATOM     27  C   UNL     1      19.988  14.960  57.214  0.00  0.00    +0.181 A 
ATOM     28  C   UNL     1      19.103  15.412  58.188  0.00  0.00    +0.082 A 
ATOM     29  C   UNL     1      18.134  14.523  58.633  0.00  0.00    +0.061 A 
ENDROOT
BRANCH   6   5
ATOM      1  C   UNL     1      14.084  11.352  60.337  0.00  0.00    +0.122 C 
ATOM      2  C   UNL     1      15.331  11.379  59.452  0.00  0.00    +0.015 A 
ATOM      3  N   UNL     1      15.741  10.285  58.795  0.00  0.00    -0.282 NA
ATOM      4  S   UNL     1      17.107  10.717  57.959  0.00  0.00    +0.002 S 
ATOM      5  C   UNL     1      17.136  12.323  58.494  0.00  0.00    +0.083 A 
ATOM     30  C   UNL     1      16.079  12.493  59.300  0.00  0.00    +0.041 A 
ENDBRANCH   6   5
BRANCH   9  10
ATOM     10  C   UNL     1      21.182  12.297  54.979  0.00  0.00    +0.265 C 
BRANCH  10  11
ATOM     11  N   UNL     1      21.123  11.095  55.835  0.00  0.00    -0.290 N 
ATOM     12  H   UNL     1      20.268  10.522  55.813  0.00  0.00    +0.189 HD
BRANCH  11  13
ATOM     13  C   UNL     1      22.126  10.711  56.640  0.00  0.00    +0.085 A 
ATOM     14  C   UNL     1      21.936   9.624  57.488  0.00  0.00    +0.090 A 
ATOM     15  N   UNL     1      20.758   8.981  57.496  0.00  0.00    -0.289 NA
ATOM     16  C   UNL     1      20.542   7.944  58.295  0.00  0.00    +0.130 A 
ATOM     17  C   UNL     1      21.529   7.475  59.165  0.00  0.00    +0.123 A 
ATOM     20  C   UNL     1      22.766   8.123  59.183  0.00  0.00    +0.062 A 
ATOM     21  C   UNL     1      22.971   9.210  58.331  0.00  0.00    +0.046 A 
ATOM     22  N   UNL     1      24.148   9.863  58.326  0.00  0.00    -0.319 NA
ATOM     23  C   UNL     1      24.360  10.903  57.527  0.00  0.00    +0.072 A 
ATOM     24  C   UNL     1      23.365  11.359  56.659  0.00  0.00    +0.039 A 
BRANCH  17  18
ATOM     18  O   UNL     1      21.230   6.392  59.954  0.00  0.00    -0.312 OA
ATOM     19  C   UNL     1      22.043   6.181  61.119  0.00  0.00    +0.236 C 
ENDBRANCH  17  18
ENDBRANCH  11  13
ENDBRANCH  10  11
ENDBRANCH   9  10
TORSDOF 5
