REMARK  Name = 4h1m_ligand
REMARK  12 active torsions:
REMARK  status: ('A' for Active; 'I' for Inactive)
REMARK    1  A    between atoms: C1_1  and  C16_16
REMARK    2  A    between atoms: C2_2  and  C24_24
REMARK    3  A    between atoms: C3_3  and  C24_24
REMARK    4  A    between atoms: C4_4  and  C27_27
REMARK    5  A    between atoms: C5_5  and  C27_27
REMARK    6  A    between atoms: C6_6  and  C27_27
REMARK    7  A    between atoms: C17_17  and  N33_33
REMARK    8  A    between atoms: C19_19  and  N30_30
REMARK    9  A    between atoms: C20_20  and  C25_25
REMARK   10  A    between atoms: C21_21  and  C27_27
REMARK   11  A    between atoms: C22_22  and  N31_31
REMARK   12  A    between atoms: C24_24  and  N32_32
REMARK                            x       y       z     vdW  Elec       q    Type
REMARK                         _______ _______ _______ _____ _____    ______ ____
ROOT
ATOM     15  N   UNL     1      -5.480  -1.994  12.321  0.00  0.00    -0.180 N 
ATOM     16  H   UNL     1      -6.001  -2.243  13.137  0.00  0.00    +0.234 HD
ATOM     17  C   UNL     1      -4.709  -2.947  11.773  0.00  0.00    +0.322 C 
ATOM     18  O   UNL     1      -4.046  -2.726  10.765  0.00  0.00    -0.379 OA
ATOM     19  N   UNL     1      -4.725  -4.153  12.395  0.00  0.00    -0.215 N 
ATOM     20  H   UNL     1      -5.328  -4.256  13.186  0.00  0.00    +0.225 HD
ENDROOT
BRANCH  19  21
ATOM     21  C   UNL     1      -3.963  -5.263  12.016  0.00  0.00    +0.092 A 
ATOM     22  C   UNL     1      -3.085  -5.788  12.972  0.00  0.00    +0.093 A 
ATOM     23  N   UNL     1      -2.799  -5.420  14.262  0.00  0.00    -0.271 N 
ATOM     24  H   UNL     1      -3.233  -4.639  14.774  0.00  0.00    +0.224 HD
ATOM     25  C   UNL     1      -1.836  -6.269  14.757  0.00  0.00    +0.130 A 
ATOM     33  C   UNL     1      -1.518  -7.185  13.808  0.00  0.00    -0.006 A 
ATOM     34  C   UNL     1      -2.287  -6.903  12.655  0.00  0.00    -0.031 A 
ATOM     35  C   UNL     1      -2.384  -7.488  11.377  0.00  0.00    -0.049 A 
ATOM     36  C   UNL     1      -3.264  -6.973  10.455  0.00  0.00    -0.046 A 
ATOM     37  C   UNL     1      -4.058  -5.863  10.763  0.00  0.00    -0.015 A 
BRANCH  25  26
ATOM     26  C   UNL     1      -1.262  -6.194  16.097  0.00  0.00    +0.226 C 
ATOM     27  O   UNL     1      -1.865  -5.598  16.980  0.00  0.00    -0.384 OA
ATOM     28  N   UNL     1      -0.041  -6.747  16.299  0.00  0.00    -0.282 N 
ATOM     29  H   UNL     1       0.426  -7.151  15.512  0.00  0.00    +0.185 HD
BRANCH  28  30
ATOM     30  C   UNL     1       0.638  -6.791  17.597  0.00  0.00    +0.091 C 
ATOM     31  C   UNL     1       1.514  -8.042  17.623  0.00  0.00    +0.033 C 
ATOM     32  C   UNL     1       1.465  -5.538  17.887  0.00  0.00    +0.033 C 
ENDBRANCH  28  30
ENDBRANCH  25  26
ENDBRANCH  19  21
BRANCH  15  14
ATOM      6  N   UNL     1      -6.105   0.332  12.604  0.00  0.00    -0.107 N 
ATOM      7  N   UNL     1      -6.122   1.462  11.792  0.00  0.00    -0.167 NA
ATOM      8  C   UNL     1      -5.719   1.165  10.589  0.00  0.00    -0.004 A 
ATOM     13  C   UNL     1      -5.390  -0.193  10.599  0.00  0.00    +0.003 A 
ATOM     14  C   UNL     1      -5.620  -0.686  11.853  0.00  0.00    +0.219 A 
BRANCH   6   5
ATOM      1  C   UNL     1      -7.665   0.422  18.077  0.00  0.00    +0.083 C 
ATOM      2  C   UNL     1      -7.264   0.394  16.621  0.00  0.00    -0.049 A 
ATOM      3  C   UNL     1      -8.136   0.876  15.648  0.00  0.00    -0.006 A 
ATOM      4  C   UNL     1      -7.758   0.818  14.317  0.00  0.00    +0.033 A 
ATOM      5  C   UNL     1      -6.501   0.303  13.958  0.00  0.00    +0.123 A 
ATOM     38  C   UNL     1      -5.631  -0.166  14.941  0.00  0.00    +0.033 A 
ATOM     39  C   UNL     1      -6.017  -0.121  16.273  0.00  0.00    -0.006 A 
ENDBRANCH   6   5
BRANCH   8   9
ATOM      9  C   UNL     1      -5.618   2.161   9.443  0.00  0.00    -0.046 C 
ATOM     10  C   UNL     1      -4.872   3.405   9.931  0.00  0.00    -0.047 C 
ATOM     11  C   UNL     1      -4.914   1.607   8.201  0.00  0.00    -0.047 C 
ATOM     12  C   UNL     1      -7.013   2.606   9.015  0.00  0.00    -0.047 C 
ENDBRANCH   8   9
ENDBRANCH  15  14
TORSDOF 6
