REMARK  Name = 3r02_ligand
REMARK  4 active torsions:
REMARK  status: ('A' for Active; 'I' for Inactive)
REMARK    1  A    between atoms: C06_6  and  N21_21
REMARK    2  A    between atoms: C09_9  and  C10_10
REMARK    3  A    between atoms: C14_14  and  N21_21
REMARK    4  A    between atoms: C17_17  and  N20_20
REMARK                            x       y       z     vdW  Elec       q    Type
REMARK                         _______ _______ _______ _____ _____    ______ ____
ROOT
ATOM      1  C   UNL     1      20.718 -38.602   0.839  0.00  0.00    -0.014 A 
ATOM      2 BR   UNL     1      22.127 -39.996   0.674  0.00  0.00    -0.063 Br
ATOM      3  C   UNL     1      20.442 -37.949  -0.351  0.00  0.00    -0.001 A 
ATOM      4  C   UNL     1      19.400 -36.957  -0.328  0.00  0.00    +0.075 A 
ATOM     17  C   UNL     1      18.752 -36.770   0.903  0.00  0.00    +0.149 A 
ATOM     18  O   UNL     1      17.796 -35.854   1.086  0.00  0.00    -0.248 OA
ATOM     19  C   UNL     1      17.461 -36.025   2.381  0.00  0.00    +0.151 A 
ATOM     23  C   UNL     1      18.169 -37.007   3.072  0.00  0.00    +0.008 A 
ATOM     24  C   UNL     1      19.023 -37.534   2.042  0.00  0.00    -0.013 A 
ATOM     25  C   UNL     1      20.068 -38.475   2.056  0.00  0.00    -0.027 A 
ENDROOT
BRANCH  19  20
ATOM     20  C   UNL     1      16.379 -35.202   2.834  0.00  0.00    +0.099 C 
ATOM     21  O   UNL     1      15.882 -35.437   4.044  0.00  0.00    -0.558 OA
ATOM     22  O   UNL     1      15.886 -34.361   2.021  0.00  0.00    -0.558 OA
ENDBRANCH  19  20
BRANCH   4   5
ATOM      5  N   UNL     1      19.132 -36.235  -1.474  0.00  0.00    -0.321 N 
ATOM      6  H   UNL     1      18.485 -35.438  -1.385  0.00  0.00    +0.174 HD
BRANCH   5   7
ATOM      7  C   UNL     1      19.705 -36.509  -2.855  0.00  0.00    +0.089 C 
ATOM      8  C   UNL     1      19.185 -35.450  -3.840  0.00  0.00    +0.032 C 
ATOM      9  C   UNL     1      17.666 -35.452  -4.171  0.00  0.00    +0.056 C 
ATOM     10  C   UNL     1      17.131 -36.866  -4.652  0.00  0.00    +0.061 C 
ATOM     15  C   UNL     1      17.675 -37.943  -3.626  0.00  0.00    +0.056 C 
ATOM     16  C   UNL     1      19.225 -37.906  -3.443  0.00  0.00    +0.032 C 
BRANCH  10  11
ATOM     11  N   UNL     1      15.681 -36.929  -4.917  0.00  0.00    +0.221 N 
ATOM     12  H   UNL     1      15.175 -36.701  -4.075  0.00  0.00    +0.200 HD
ATOM     13  H   UNL     1      15.443 -36.270  -5.641  0.00  0.00    +0.200 HD
ATOM     14  H   UNL     1      15.434 -37.860  -5.216  0.00  0.00    +0.200 HD
ENDBRANCH  10  11
ENDBRANCH   5   7
ENDBRANCH   4   5
TORSDOF 4
