REMARK  Name = EJS
REMARK  8 active torsions:
REMARK  status: ('A' for Active; 'I' for Inactive)
REMARK    1  A    between atoms: C02_2  and  C03_3
REMARK    2  A    between atoms: C09_9  and  C10_10
REMARK    3  A    between atoms: C12_12  and  C13_13
REMARK    4  A    between atoms: N14_14  and  C15_15
REMARK    5  A    between atoms: C15_15  and  C16_16
REMARK    6  A    between atoms: C18_18  and  C19_19
REMARK    7  A    between atoms: C19_19  and  O20_20
REMARK    8  A    between atoms: N30_30  and  C31_31
REMARK                            x       y       z     vdW  Elec       q    Type
REMARK                         _______ _______ _______ _____ _____    ______ ____
ROOT
ATOM     13  C   UNL     1     -18.341  29.073  17.823  0.00  0.00    +0.127 C 
ATOM     14  C   UNL     1     -18.581  29.729  19.121  0.00  0.00    +0.127 C 
ATOM     15  C   UNL     1     -19.988  29.734  19.726  0.00  0.00    +0.028 C 
ATOM     16  N   UNL     1     -17.621  30.653  19.638  0.00  0.00    -0.190 NA
ATOM     17  C   UNL     1     -16.471  31.078  18.803  0.00  0.00    +0.228 C 
ATOM     18  O   UNL     1     -15.689  31.845  19.249  0.00  0.00    -0.205 OA
ATOM     19  N   UNL     1     -16.282  30.562  17.413  0.00  0.00    -0.151 NA
ATOM     20  C   UNL     1     -17.294  29.586  16.887  0.00  0.00    +0.138 C 
ENDROOT
BRANCH  20  21
ATOM     21  C   UNL     1     -16.483  28.361  16.413  0.00  0.00    -0.001 A 
ATOM     22  C   UNL     1     -15.302  28.045  17.066  0.00  0.00    +0.004 A 
ATOM     23  C   UNL     1     -14.555  26.951  16.661  0.00  0.00    +0.082 A 
ATOM     36  C   UNL     1     -14.989  26.176  15.601  0.00  0.00    +0.144 A 
ATOM     37  F   UNL     1     -14.255  25.100  15.198  0.00  0.00    -0.204 F 
ATOM     38  C   UNL     1     -16.173  26.489  14.946  0.00  0.00    +0.029 A 
ATOM     39  C   UNL     1     -16.922  27.584  15.355  0.00  0.00    -0.000 A 
BRANCH  23  24
ATOM     24  C   UNL     1     -13.248  26.619  17.390  0.00  0.00    +0.268 C 
ATOM     25  N   UNL     1     -12.994  27.172  18.715  0.00  0.00    -0.190 NA
ATOM     35  O   UNL     1     -12.444  25.918  16.876  0.00  0.00    -0.268 OA
BRANCH  25  26
ATOM     26  C   UNL     1     -11.746  26.860  19.400  0.00  0.00    +0.217 C 
BRANCH  26  27
ATOM     27  C   UNL     1     -11.723  25.401  19.875  0.00  0.00    +0.307 C 
ATOM     28  O   UNL     1     -10.933  24.908  20.816  0.00  0.00    -0.322 OA
ATOM     29  N   UNL     1     -11.190  23.607  20.960  0.00  0.00    -0.044 NA
ATOM     30  C   UNL     1     -12.149  23.285  20.101  0.00  0.00    +0.260 C 
ATOM     34  N   UNL     1     -12.484  24.403  19.415  0.00  0.00    -0.347 NA
BRANCH  30  31
ATOM     31  C   UNL     1     -12.752  21.890  19.926  0.00  0.00    +0.225 C 
BRANCH  31  32
ATOM     32  O   UNL     1     -11.709  21.014  19.600  0.00  0.00    -0.342 OA
ATOM     33  C   UNL     1     -12.105  19.918  18.829  0.00  0.00    +0.175 C 
ENDBRANCH  31  32
ENDBRANCH  30  31
ENDBRANCH  26  27
ENDBRANCH  25  26
ENDBRANCH  23  24
ENDBRANCH  20  21
BRANCH  13   2
ATOM      1  O   UNL     1     -19.998  28.595  16.208  0.00  0.00    -0.273 OA
ATOM      2  C   UNL     1     -19.557  28.334  17.276  0.00  0.00    +0.249 C 
ATOM      3  N   UNL     1     -20.136  27.333  18.155  0.00  0.00    -0.179 NA
BRANCH   3   4
ATOM      4  C   UNL     1     -21.332  26.578  17.849  0.00  0.00    +0.073 A 
ATOM      5  C   UNL     1     -21.587  25.370  18.502  0.00  0.00    +0.018 A 
ATOM      6  C   UNL     1     -22.761  24.676  18.237  0.00  0.00    +0.022 A 
ATOM      7  C   UNL     1     -23.708  25.207  17.327  0.00  0.00    +0.105 A 
ATOM      8  N   UNL     1     -24.901  24.757  16.896  0.00  0.00    -0.148 NA
ATOM      9  N   UNL     1     -25.441  25.620  16.018  0.00  0.00    -0.146 NA
ATOM     10  C   UNL     1     -24.610  26.637  15.871  0.00  0.00    +0.124 A 
ATOM     11  C   UNL     1     -23.467  26.407  16.706  0.00  0.00    +0.042 A 
ATOM     12  C   UNL     1     -22.276  27.110  16.978  0.00  0.00    +0.020 A 
ENDBRANCH   3   4
ENDBRANCH  13   2
TORSDOF 8
