REMARK  Name = E5Q
REMARK  3 active torsions:
REMARK  status: ('A' for Active; 'I' for Inactive)
REMARK    1  A    between atoms: C6_4  and  C2_17
REMARK    2  A    between atoms: C8_7  and  C12_10
REMARK    3  A    between atoms: C12_10  and  C13_11
REMARK                            x       y       z     vdW  Elec       q    Type
REMARK                         _______ _______ _______ _____ _____    ______ ____
ROOT
ATOM      7  C   UNL     1      29.614  16.187   0.377  0.00  0.00    +0.007 A 
ATOM      8  C   UNL     1      28.763  16.006   1.481  0.00  0.00    +0.042 A 
ATOM      9  C   UNL     1      27.518  15.441   1.297  0.00  0.00    +0.196 A 
ATOM     10  O   UNL     1      26.670  15.335   2.380  0.00  0.00    -0.287 OA
ATOM     11  C   UNL     1      27.136  15.003   0.013  0.00  0.00    +0.041 A 
ATOM     12  C   UNL     1      28.008  15.149  -1.096  0.00  0.00    +0.015 A 
ATOM     21  C   UNL     1      29.231  15.748  -0.896  0.00  0.00    -0.001 A 
ENDROOT
BRANCH   7   3
ATOM      1  C   UNL     1      32.500  15.144  -0.933  0.00  0.00    +0.075 C 
ATOM      2  C   UNL     1      32.149  16.320  -0.052  0.00  0.00    +0.154 A 
ATOM      3  C   UNL     1      30.960  16.790   0.512  0.00  0.00    +0.050 A 
ATOM      4  C   UNL     1      31.306  17.952   1.186  0.00  0.00    +0.101 A 
ATOM      5  C   UNL     1      30.419  18.868   1.989  0.00  0.00    +0.056 C 
ATOM      6  N   UNL     1      32.657  18.124   1.005  0.00  0.00    -0.082 NA
ATOM     22  O   UNL     1      33.105  17.121   0.226  0.00  0.00    -0.358 OA
ENDBRANCH   7   3
BRANCH  12  13
ATOM     13  C   UNL     1      27.686  14.722  -2.520  0.00  0.00    +0.198 C 
ATOM     14  O   UNL     1      26.730  13.720  -2.488  0.00  0.00    -0.213 OA
BRANCH  13  15
ATOM     15  C   UNL     1      27.146  15.901  -3.331  0.00  0.00    +0.031 A 
ATOM     16  C   UNL     1      26.225  16.807  -2.860  0.00  0.00    +0.002 A 
ATOM     17  C   UNL     1      25.783  17.883  -3.655  0.00  0.00    +0.020 A 
ATOM     18  C   UNL     1      26.278  18.005  -4.939  0.00  0.00    +0.099 A 
ATOM     19  N   UNL     1      27.215  17.160  -5.353  0.00  0.00    -0.243 NA
ATOM     20  C   UNL     1      27.626  16.108  -4.623  0.00  0.00    +0.097 A 
ENDBRANCH  13  15
ENDBRANCH  12  13
TORSDOF 3
