REMARK  Name = 88Y
REMARK  2 active torsions:
REMARK  status: ('A' for Active; 'I' for Inactive)
REMARK    1  A    between atoms: C6_3  and  C9_11
REMARK    2  A    between atoms: C7_4  and  C11_12
REMARK                            x       y       z     vdW  Elec       q    Type
REMARK                         _______ _______ _______ _____ _____    ______ ____
ROOT
ATOM      6  C   UNL     1      14.731 -11.058   0.357  0.00  0.00    +0.082 A 
ATOM      7  C   UNL     1      13.815 -12.085   0.324  0.00  0.00    +0.023 A 
ATOM      8  C   UNL     1      12.589 -11.589  -0.191  0.00  0.00    +0.050 A 
ATOM     12  C   UNL     1      12.783 -10.242  -0.433  0.00  0.00    +0.062 A 
ATOM     13  C   UNL     1      11.909  -9.178  -0.957  0.00  0.00    +0.052 C 
ATOM     14  N   UNL     1      14.080  -9.956  -0.120  0.00  0.00    -0.250 NA
ENDROOT
BRANCH   6   5
ATOM      1  C   UNL     1      18.302 -10.150   0.909  0.00  0.00    +0.018 A 
ATOM      2  C   UNL     1      18.545 -10.785   2.116  0.00  0.00    +0.001 A 
ATOM      3  C   UNL     1      17.549 -11.535   2.717  0.00  0.00    +0.000 A 
ATOM      4  C   UNL     1      16.312 -11.620   2.107  0.00  0.00    +0.003 A 
ATOM      5  C   UNL     1      16.071 -10.997   0.890  0.00  0.00    +0.034 A 
ATOM     15  C   UNL     1      17.071 -10.252   0.278  0.00  0.00    +0.090 A 
ATOM     16  N   UNL     1      16.868  -9.605  -0.959  0.00  0.00    -0.128 NA
ENDBRANCH   6   5
BRANCH   8   9
ATOM      9  C   UNL     1      11.362 -12.333  -0.353  0.00  0.00    +0.175 C 
ATOM     10  C   UNL     1      11.467 -13.831  -0.289  0.00  0.00    +0.077 C 
ATOM     11  O   UNL     1      10.286 -11.799  -0.552  0.00  0.00    -0.291 OA
ENDBRANCH   8   9
TORSDOF 2
