REMARK  Name = 4qyh_ligand
REMARK  4 active torsions:
REMARK  status: ('A' for Active; 'I' for Inactive)
REMARK    1  A    between atoms: C22_2  and  C9_3
REMARK    2  A    between atoms: C4_13  and  C11_16
REMARK    3  A    between atoms: C14_19  and  N4_22
REMARK    4  A    between atoms: N5_25  and  C21_26
REMARK                            x       y       z     vdW  Elec       q    Type
REMARK                         _______ _______ _______ _____ _____    ______ ____
ROOT
ATOM      3  C   UNL     1       7.852   7.266  16.513  0.00  0.00    +0.155 A 
ATOM      4  C   UNL     1       6.499   7.123  16.865  0.00  0.00    +0.075 A 
ATOM      5  C   UNL     1       5.978   8.035  17.793  0.00  0.00    +0.034 A 
ATOM      6  C   UNL     1       4.713   8.162  18.334  0.00  0.00    +0.035 A 
ATOM      7  C   UNL     1       3.519   7.450  18.170  0.00  0.00    +0.030 A 
ATOM      8  C   UNL     1       2.397   7.896  18.903  0.00  0.00    -0.009 A 
ATOM     23  C   UNL     1       2.525   8.998  19.759  0.00  0.00    +0.084 A 
ATOM     24  N   UNL     1       3.687   9.654  19.896  0.00  0.00    -0.279 NA
ATOM     25  C   UNL     1       4.755   9.231  19.190  0.00  0.00    +0.144 A 
ATOM     26  N   UNL     1       5.999   9.761  19.176  0.00  0.00    -0.249 N 
ATOM     27  H   UNL     1       6.308  10.579  19.720  0.00  0.00    +0.225 HD
ATOM     28  C   UNL     1       6.778   9.036  18.324  0.00  0.00    +0.107 A 
ATOM     29  C   UNL     1       8.103   9.131  17.935  0.00  0.00    +0.124 A 
ATOM     30  N   UNL     1       8.601   8.259  17.047  0.00  0.00    -0.276 NA
ENDROOT
BRANCH   8   9
ATOM      9  C   UNL     1       1.057   7.226  18.811  0.00  0.00    -0.030 A 
ATOM     10  C   UNL     1       0.128   7.307  19.859  0.00  0.00    -0.007 A 
ATOM     11  C   UNL     1      -1.117   6.687  19.763  0.00  0.00    +0.009 A 
ATOM     12  C   UNL     1      -1.482   5.979  18.619  0.00  0.00    +0.042 A 
ATOM     21  C   UNL     1      -0.554   5.902  17.569  0.00  0.00    +0.009 A 
ATOM     22  C   UNL     1       0.691   6.522  17.661  0.00  0.00    -0.007 A 
BRANCH  12  13
ATOM     13  N   UNL     1      -2.702   5.358  18.566  0.00  0.00    -0.298 N 
ATOM     14  C   UNL     1      -3.912   6.090  18.925  0.00  0.00    +0.181 C 
ATOM     15  C   UNL     1      -4.784   5.052  19.626  0.00  0.00    +0.155 C 
ATOM     16  N   UNL     1      -5.065   3.902  18.735  0.00  0.00    +0.236 N 
ATOM     17  H   UNL     1      -5.577   4.235  17.933  0.00  0.00    +0.203 HD
ATOM     18  C   UNL     1      -5.879   2.885  19.436  0.00  0.00    +0.190 C 
ATOM     19  C   UNL     1      -3.811   3.276  18.275  0.00  0.00    +0.155 C 
ATOM     20  C   UNL     1      -2.925   4.298  17.581  0.00  0.00    +0.181 C 
ENDBRANCH  12  13
ENDBRANCH   8   9
BRANCH   3   2
ATOM      1  N   UNL     1       9.001   5.819  14.913  0.00  0.00    -0.330 NA
ATOM      2  C   UNL     1       8.442   6.498  15.668  0.00  0.00    +0.109 C 
ENDBRANCH   3   2
TORSDOF 3
