REMARK  Name = 3od0_ligand
REMARK  2 active torsions:
REMARK  status: ('A' for Active; 'I' for Inactive)
REMARK    1  A    between atoms: C2'_10  and  O2'_11
REMARK    2  A    between atoms: C1'_12  and  N9_13
REMARK                            x       y       z     vdW  Elec       q    Type
REMARK                         _______ _______ _______ _____ _____    ______ ____
ROOT
ATOM      6  N   UNL     1      -0.096 -39.200  26.308  0.00  0.00    -0.095 N 
ATOM      7  C   UNL     1      -1.183 -38.475  26.527  0.00  0.00    +0.327 A 
ATOM      8  N   UNL     1      -1.383 -37.195  26.918  0.00  0.00    -0.190 N 
ATOM      9  H   UNL     1      -0.583 -36.599  27.131  0.00  0.00    +0.252 HD
ATOM     10  C   UNL     1      -2.639 -36.699  27.029  0.00  0.00    +0.204 A 
ATOM     11  N   UNL     1      -2.752 -35.404  27.431  0.00  0.00    -0.333 N 
ATOM     12  H   UNL     1      -1.914 -34.856  27.628  0.00  0.00    +0.177 HD
ATOM     13  H   UNL     1      -3.674 -34.981  27.535  0.00  0.00    +0.177 HD
ATOM     14  N   UNL     1      -3.746 -37.445  26.761  0.00  0.00    -0.248 N 
ATOM     15  H   UNL     1      -4.664 -37.013  26.869  0.00  0.00    +0.182 HD
ATOM     16  C   UNL     1      -3.682 -38.730  26.359  0.00  0.00    +0.263 A 
ATOM     17  O   UNL     1      -4.705 -39.411  26.117  0.00  0.00    -0.359 OA
ATOM     18  C   UNL     1      -2.339 -39.341  26.213  0.00  0.00    +0.256 A 
ATOM     19  N   UNL     1      -1.852 -40.543  25.851  0.00  0.00    -0.193 NA
ATOM     20  C   UNL     1      -0.495 -40.433  25.917  0.00  0.00    +0.368 A 
ENDROOT
BRANCH   6   5
ATOM      1  P   UNL     1       3.027 -34.267  27.326  0.00  0.00    +0.256 P 
ATOM      2  O   UNL     1       2.762 -35.378  26.189  0.00  0.00    -0.245 OA
ATOM      3  C   UNL     1       1.789 -36.357  26.520  0.00  0.00    +0.225 C 
ATOM      4  C   UNL     1       1.586 -37.525  25.569  0.00  0.00    +0.214 C 
ATOM      5  C   UNL     1       1.282 -38.688  26.509  0.00  0.00    +0.324 C 
ATOM     21  O   UNL     1       1.417 -38.180  27.841  0.00  0.00    -0.334 OA
ATOM     24  C   UNL     1       2.278 -37.055  27.762  0.00  0.00    +0.190 C 
ATOM     25  C   UNL     1       2.203 -36.140  28.962  0.00  0.00    +0.242 C 
ATOM     26  O   UNL     1       3.119 -35.084  28.701  0.00  0.00    -0.251 OA
ATOM     27  O   UNL     1       1.757 -33.476  27.479  0.00  0.00    -0.618 OA
ATOM     28  O   UNL     1       4.366 -33.602  27.111  0.00  0.00    -0.618 OA
BRANCH   4  22
ATOM     22  O   UNL     1       2.774 -37.788  24.825  0.00  0.00    -0.383 OA
ATOM     23  H   UNL     1       3.009 -37.010  24.314  0.00  0.00    +0.210 HD
ENDBRANCH   4  22
ENDBRANCH   6   5
TORSDOF 2
