REMARK  Name = 6BAB
REMARK  12 active torsions:
REMARK  status: ('A' for Active; 'I' for Inactive)
REMARK    1  A    between atoms: C_1  and  C_12
REMARK    2  A    between atoms: C_4  and  C_5
REMARK    3  A    between atoms: C_6  and  C_7
REMARK    4  A    between atoms: C_6  and  N_31
REMARK    5  A    between atoms: C_7  and  C_20
REMARK    6  A    between atoms: C_7  and  N_32
REMARK    7  A    between atoms: C_10  and  C_24
REMARK    8  A    between atoms: C_10  and  N_32
REMARK    9  A    between atoms: C_15  and  C_17
REMARK   10  A    between atoms: C_22  and  C_23
REMARK   11  A    between atoms: C_22  and  N_32
REMARK   12  A    between atoms: C_26  and  O_35
REMARK                            x       y       z     vdW  Elec       q    Type
REMARK                         _______ _______ _______ _____ _____    ______ ____
ROOT
ATOM     14  C   UNL     1      36.610  55.740  32.100  0.00  0.00    +0.079 A 
ATOM     15  C   UNL     1      36.779  56.953  31.445  0.00  0.00    +0.041 A 
ATOM     16  C   UNL     1      36.917  58.114  32.204  0.00  0.00    +0.042 A 
ATOM     17  C   UNL     1      36.888  58.032  33.597  0.00  0.00    +0.056 A 
ATOM     18  C   UNL     1      36.715  56.779  34.194  0.00  0.00    +0.123 A 
ATOM     19  N   UNL     1      36.649  56.696  35.583  0.00  0.00    -0.310 N 
ATOM     20  C   UNL     1      35.967  55.731  36.376  0.00  0.00    +0.139 C 
ATOM     21  C   UNL     1      35.828  56.787  37.484  0.00  0.00    +0.149 C 
ATOM     24  C   UNL     1      36.569  57.744  36.547  0.00  0.00    +0.139 C 
ATOM     37  N   UNL     1      36.577  55.644  33.455  0.00  0.00    -0.232 NA
ENDROOT
BRANCH  14  13
ATOM      5  C   UNL     1      37.298  54.360  27.894  0.00  0.00    +0.148 C 
ATOM      6  N   UNL     1      37.120  54.946  29.045  0.00  0.00    -0.246 NA
ATOM      7  C   UNL     1      36.778  54.167  30.097  0.00  0.00    +0.159 A 
ATOM      8  N   UNL     1      36.597  52.793  29.931  0.00  0.00    -0.244 N 
ATOM      9  N   UNL     1      36.230  52.202  31.089  0.00  0.00    -0.298 N 
ATOM     10  H   UNL     1      36.015  51.167  31.257  0.00  0.00    +0.187 HD
ATOM     11  C   UNL     1      36.196  53.196  31.975  0.00  0.00    +0.115 A 
ATOM     12  C   UNL     1      36.780  52.173  28.703  0.00  0.00    +0.111 C 
ATOM     13  C   UNL     1      36.507  54.454  31.425  0.00  0.00    +0.061 A 
ATOM     38  C   UNL     1      37.126  52.891  27.640  0.00  0.00    +0.031 C 
BRANCH   5   1
ATOM      1  C   UNL     1      37.651  55.231  26.799  0.00  0.00    +0.024 A 
ATOM      2  S   UNL     1      37.756  56.933  26.972  0.00  0.00    -0.099 S 
ATOM      3  C   UNL     1      38.149  57.143  25.331  0.00  0.00    +0.045 A 
ATOM      4  C   UNL     1      38.199  55.948  24.656  0.00  0.00    +0.008 A 
ATOM     39  C   UNL     1      37.900  54.842  25.497  0.00  0.00    +0.014 A 
ENDBRANCH   5   1
ENDBRANCH  14  13
BRANCH  16  25
ATOM     25  C   UNL     1      37.103  59.386  31.469  0.00  0.00    +0.244 C 
ATOM     26  O   UNL     1      36.688  59.468  30.326  0.00  0.00    -0.270 OA
ATOM     27  N   UNL     1      37.765  60.410  32.099  0.00  0.00    -0.310 N 
ATOM     28  H   UNL     1      38.121  60.276  33.099  0.00  0.00    +0.149 HD
BRANCH  27  29
ATOM     29  C   UNL     1      37.989  61.689  31.411  0.00  0.00    +0.123 C 
BRANCH  29  30
ATOM     30  C   UNL     1      39.032  61.611  30.255  0.00  0.00    +0.071 C 
ATOM     36  C   UNL     1      39.577  63.028  29.930  0.00  0.00    +0.026 C 
BRANCH  30  31
ATOM     31  N   UNL     1      38.513  61.003  28.992  0.00  0.00    -0.299 NA
BRANCH  31  32
ATOM     32  C   UNL     1      37.800  61.928  28.104  0.00  0.00    +0.081 C 
ATOM     33  C   UNL     1      37.009  61.200  27.025  0.00  0.00    +0.020 C 
ENDBRANCH  31  32
BRANCH  31  34
ATOM     34  C   UNL     1      39.550  60.236  28.263  0.00  0.00    +0.081 C 
ATOM     35  C   UNL     1      39.955  58.991  29.043  0.00  0.00    +0.020 C 
ENDBRANCH  31  34
ENDBRANCH  30  31
ENDBRANCH  29  30
ENDBRANCH  27  29
ENDBRANCH  16  25
BRANCH  21  22
ATOM     22  O   UNL     1      36.481  56.530  38.741  0.00  0.00    -0.389 OA
ATOM     23  H   UNL     1      37.425  56.104  38.565  0.00  0.00    +0.210 HD
ENDBRANCH  21  22
TORSDOF 9
