REMARK  Name = 2i0h_ligand
REMARK  6 active torsions:
REMARK  status: ('A' for Active; 'I' for Inactive)
REMARK    1  A    between atoms: C2_3  and  N11_9
REMARK    2  A    between atoms: N21_15  and  C22_16
REMARK    3  A    between atoms: N21_15  and  C23_17
REMARK    4  A    between atoms: C22_16  and  C24_25
REMARK    5  A    between atoms: C24_25  and  C27_26
REMARK    6  A    between atoms: C27_26  and  N30_27
REMARK                            x       y       z     vdW  Elec       q    Type
REMARK                         _______ _______ _______ _____ _____    ______ ____
ROOT
ATOM      1  C   UNL     1      22.156   9.674  30.759  0.00  0.00    +0.243 A 
ATOM      2  O   UNL     1      22.820   8.669  30.657  0.00  0.00    -0.404 OA
ATOM      3  N   UNL     1      22.598  10.933  31.256  0.00  0.00    -0.108 N 
ATOM      4  N   UNL     1      21.827  11.987  31.346  0.00  0.00    -0.139 NA
ATOM      5  C   UNL     1      20.467  12.016  30.959  0.00  0.00    +0.162 A 
ATOM      6  N   UNL     1      20.094  13.390  31.255  0.00  0.00    -0.251 N 
ATOM     29  C   UNL     1      19.918  10.689  30.411  0.00  0.00    +0.069 A 
ATOM     37  C   UNL     1      20.724   9.595  30.321  0.00  0.00    +0.083 A 
ENDROOT
BRANCH   6   7
ATOM      7  C   UNL     1      18.661  13.446  31.183  0.00  0.00    +0.071 A 
ATOM      8  C   UNL     1      17.738  12.955  32.244  0.00  0.00    +0.059 A 
ATOM      9 CL   UNL     1      18.310  12.247  33.711  0.00  0.00    -0.081 Cl
ATOM     10  C   UNL     1      16.313  13.058  32.103  0.00  0.00    +0.033 A 
ATOM     11  C   UNL     1      15.791  13.657  30.905  0.00  0.00    +0.119 A 
ATOM     12  F   UNL     1      14.487  13.771  30.754  0.00  0.00    -0.194 F 
ATOM     13  C   UNL     1      16.627  14.146  29.860  0.00  0.00    +0.019 A 
ATOM     14  C   UNL     1      18.049  14.045  29.990  0.00  0.00    +0.011 A 
ENDBRANCH   6   7
BRANCH   3  30
ATOM     30  C   UNL     1      23.890  11.041  31.676  0.00  0.00    +0.132 A 
ATOM     31  C   UNL     1      24.268  10.507  32.972  0.00  0.00    +0.072 A 
ATOM     32 CL   UNL     1      23.068   9.746  33.990  0.00  0.00    -0.078 Cl
ATOM     33  C   UNL     1      25.616  10.588  33.442  0.00  0.00    +0.002 A 
ATOM     34  C   UNL     1      26.621  11.216  32.610  0.00  0.00    -0.021 A 
ATOM     35  C   UNL     1      26.256  11.756  31.312  0.00  0.00    -0.012 A 
ATOM     36  C   UNL     1      24.896  11.667  30.846  0.00  0.00    +0.026 A 
ENDBRANCH   3  30
BRANCH   6  15
ATOM     15  C   UNL     1      20.769  14.636  31.596  0.00  0.00    +0.159 C 
BRANCH  15  16
ATOM     16  C   UNL     1      21.046  14.982  33.030  0.00  0.00    +0.057 C 
BRANCH  16  17
ATOM     17  C   UNL     1      21.939  16.159  33.364  0.00  0.00    +0.173 C 
BRANCH  17  18
ATOM     18  N   UNL     1      23.322  15.944  32.889  0.00  0.00    -0.184 N 
ATOM     19  C   UNL     1      24.258  15.286  33.641  0.00  0.00    +0.240 C 
ATOM     20  O   UNL     1      24.069  14.805  34.758  0.00  0.00    -0.367 OA
ATOM     21  C   UNL     1      25.486  15.298  32.862  0.00  0.00    +0.073 A 
ATOM     22  C   UNL     1      26.760  14.773  33.164  0.00  0.00    +0.031 A 
ATOM     23  C   UNL     1      27.783  14.945  32.193  0.00  0.00    +0.014 A 
ATOM     24  C   UNL     1      27.505  15.622  30.952  0.00  0.00    +0.014 A 
ATOM     25  C   UNL     1      26.207  16.136  30.677  0.00  0.00    +0.031 A 
ATOM     26  C   UNL     1      25.218  15.950  31.664  0.00  0.00    +0.073 A 
ATOM     27  C   UNL     1      23.828  16.365  31.682  0.00  0.00    +0.240 C 
ATOM     28  O   UNL     1      23.215  16.973  30.804  0.00  0.00    -0.367 OA
ENDBRANCH  17  18
ENDBRANCH  16  17
ENDBRANCH  15  16
ENDBRANCH   6  15
TORSDOF 6
