REMARK  Name = 5KKS
REMARK  6 active torsions:
REMARK  status: ('A' for Active; 'I' for Inactive)
REMARK    1  A    between atoms: C_1  and  S_12
REMARK    2  A    between atoms: C_2  and  N_15
REMARK    3  A    between atoms: C_6  and  C_17
REMARK    4  A    between atoms: C_6  and  C_18
REMARK    5  A    between atoms: C_7  and  C_8
REMARK    6  A    between atoms: S_12  and  N_15
REMARK                            x       y       z     vdW  Elec       q    Type
REMARK                         _______ _______ _______ _____ _____    ______ ____
ROOT
ATOM     11  C   UNL     1      52.000 104.825  31.770  0.00  0.00    +0.223 C 
ATOM     12  N   UNL     1      51.798 103.895  30.818  0.00  0.00    -0.264 N 
ATOM     13  H   UNL     1      51.925 102.872  31.104  0.00  0.00    +0.157 HD
ATOM     14  C   UNL     1      51.439 104.142  29.495  0.00  0.00    +0.165 A 
ATOM     15  S   UNL     1      51.292 105.661  28.735  0.00  0.00    -0.060 S 
ATOM     16  C   UNL     1      50.862 104.865  27.232  0.00  0.00    +0.077 A 
ATOM     17  C   UNL     1      50.851 103.542  27.440  0.00  0.00    +0.082 A 
ATOM     28  N   UNL     1      51.196 103.194  28.657  0.00  0.00    -0.225 NA
ATOM     29  O   UNL     1      51.855 106.005  31.526  0.00  0.00    -0.275 OA
ENDROOT
BRANCH  17  18
ATOM     18  C   UNL     1      50.659 102.560  26.361  0.00  0.00    +0.028 A 
ATOM     19  C   UNL     1      50.289 102.814  25.087  0.00  0.00    +0.095 A 
ATOM     20  N   UNL     1      50.282 101.646  24.375  0.00  0.00    -0.345 N 
ATOM     21  H   UNL     1      50.036 101.565  23.440  0.00  0.00    +0.167 HD
ATOM     22  C   UNL     1      50.683 100.610  25.168  0.00  0.00    +0.139 A 
ATOM     23  N   UNL     1      50.840  99.324  24.936  0.00  0.00    -0.237 NA
ATOM     24  C   UNL     1      51.282  98.515  25.878  0.00  0.00    +0.113 A 
ATOM     25  C   UNL     1      51.556  98.951  27.166  0.00  0.00    +0.020 A 
ATOM     26  C   UNL     1      51.377 100.286  27.459  0.00  0.00    +0.013 A 
ATOM     27  C   UNL     1      50.940 101.130  26.446  0.00  0.00    +0.028 A 
ENDBRANCH  17  18
BRANCH  11  10
ATOM     10  C   UNL     1      52.382 104.341  33.153  0.00  0.00    +0.131 C 
BRANCH  10   9
ATOM      5  C   UNL     1      50.093 106.376  35.357  0.00  0.00    +0.048 A 
ATOM      6  C   UNL     1      49.145 105.411  35.722  0.00  0.00    +0.024 A 
ATOM      7  C   UNL     1      49.255 104.098  35.264  0.00  0.00    +0.002 A 
ATOM      8  C   UNL     1      50.307 103.721  34.441  0.00  0.00    +0.004 A 
ATOM      9  C   UNL     1      51.251 104.674  34.085  0.00  0.00    -0.037 A 
ATOM     30  C   UNL     1      51.147 105.982  34.544  0.00  0.00    +0.028 A 
BRANCH   5   3
ATOM      3  N   UNL     1      50.034 107.719  35.761  0.00  0.00    -0.221 N 
ATOM      4  H   UNL     1      49.826 108.475  35.033  0.00  0.00    +0.173 HD
BRANCH   3   2
ATOM      1  C   UNL     1      51.946 107.618  37.835  0.00  0.00    +0.218 C 
ATOM      2  S   UNL     1      50.280 108.162  37.345  0.00  0.00    +0.040 S 
ATOM     31  O   UNL     1      50.224 109.589  37.333  0.00  0.00    -0.156 OA
ATOM     32  O   UNL     1      49.337 107.373  38.065  0.00  0.00    -0.156 OA
ENDBRANCH   3   2
ENDBRANCH   5   3
ENDBRANCH  10   9
ENDBRANCH  11  10
TORSDOF 5
