REMARK  Name = 5HIB
REMARK  9 active torsions:
REMARK  status: ('A' for Active; 'I' for Inactive)
REMARK    1  A    between atoms: C_1  and  C_9
REMARK    2  A    between atoms: C_2  and  N_17
REMARK    3  A    between atoms: C_3  and  C_4
REMARK    4  A    between atoms: C_7  and  C_9
REMARK    5  A    between atoms: C_8  and  C_9
REMARK    6  A    between atoms: C_9  and  N_10
REMARK    7  A    between atoms: N_17  and  S_18
REMARK    8  A    between atoms: S_18  and  C_21
REMARK    9  A    between atoms: N_25  and  C_26
REMARK                            x       y       z     vdW  Elec       q    Type
REMARK                         _______ _______ _______ _____ _____    ______ ____
ROOT
ATOM      7  C   UNL     1     -52.791   0.764 -21.771  0.00  0.00    +0.098 A 
ATOM      8  C   UNL     1     -53.345   0.606 -23.054  0.00  0.00    +0.163 A 
ATOM      9  N   UNL     1     -53.018  -0.182 -24.099  0.00  0.00    -0.232 NA
ATOM     10  C   UNL     1     -53.733  -0.127 -25.224  0.00  0.00    +0.196 C 
ATOM     22  C   UNL     1     -54.865   0.718 -25.301  0.00  0.00    +0.044 C 
ATOM     23  C   UNL     1     -55.186   1.514 -24.256  0.00  0.00    +0.112 C 
ATOM     24  N   UNL     1     -54.435   1.448 -23.112  0.00  0.00    -0.244 N 
ATOM     25  N   UNL     1     -54.544   2.118 -21.889  0.00  0.00    -0.298 N 
ATOM     26  H   UNL     1     -55.283   2.852 -21.646  0.00  0.00    +0.187 HD
ATOM     27  C   UNL     1     -53.598   1.702 -21.093  0.00  0.00    +0.118 A 
ENDROOT
BRANCH   7   5
ATOM      3  N   UNL     1     -50.937  -0.773 -22.067  0.00  0.00    -0.306 N 
ATOM      4  H   UNL     1     -51.206  -0.719 -23.101  0.00  0.00    +0.149 HD
ATOM      5  C   UNL     1     -51.682  -0.014 -21.214  0.00  0.00    +0.250 C 
ATOM      6  O   UNL     1     -51.503  -0.015 -19.998  0.00  0.00    -0.270 OA
BRANCH   3   2
ATOM      1  C   UNL     1     -48.636  -0.872 -21.133  0.00  0.00    +0.031 C 
ATOM      2  C   UNL     1     -49.801  -1.663 -21.736  0.00  0.00    +0.026 C 
ATOM     28  C   UNL     1     -49.314  -2.310 -23.032  0.00  0.00    +0.031 C 
ATOM     29  C   UNL     1     -50.222  -2.813 -20.812  0.00  0.00    +0.031 C 
ENDBRANCH   3   2
ENDBRANCH   7   5
BRANCH  10  11
ATOM     11  N   UNL     1     -53.470  -0.928 -26.320  0.00  0.00    -0.154 NA
ATOM     12  H   UNL     1     -53.673  -0.314 -27.172  0.00  0.00    +0.151 HD
BRANCH  11  13
ATOM     13  S   UNL     1     -52.029  -1.673 -26.655  0.00  0.00    +0.078 S 
ATOM     20  O   UNL     1     -50.963  -0.808 -26.276  0.00  0.00    -0.152 OA
ATOM     21  O   UNL     1     -52.213  -2.152 -27.981  0.00  0.00    -0.152 OA
BRANCH  13  14
ATOM     14  C   UNL     1     -51.863  -3.121 -25.646  0.00  0.00    +0.192 A 
ATOM     15  N   UNL     1     -50.833  -4.012 -25.662  0.00  0.00    -0.249 N 
ATOM     16  C   UNL     1     -49.621  -3.955 -26.488  0.00  0.00    +0.174 C 
ATOM     17  N   UNL     1     -51.120  -5.007 -24.722  0.00  0.00    -0.178 NA
ATOM     18  C   UNL     1     -52.282  -4.737 -24.174  0.00  0.00    +0.136 A 
ATOM     19  C   UNL     1     -52.771  -3.556 -24.737  0.00  0.00    +0.070 A 
ENDBRANCH  13  14
ENDBRANCH  11  13
ENDBRANCH  10  11
TORSDOF 5
