REMARK  Name = 4PTC
REMARK  5 active torsions:
REMARK  status: ('A' for Active; 'I' for Inactive)
REMARK    1  A    between atoms: O_1  and  C_2
REMARK    2  A    between atoms: C_3  and  C_19
REMARK    3  A    between atoms: C_5  and  C_7
REMARK    4  A    between atoms: C_11  and  N_13
REMARK    5  A    between atoms: C_14  and  C_16
REMARK                            x       y       z     vdW  Elec       q    Type
REMARK                         _______ _______ _______ _____ _____    ______ ____
ROOT
ATOM      6  C   UNL     1      -3.403  -0.585 -36.571  0.00  0.00    +0.012 A 
ATOM      7  C   UNL     1      -2.897   0.659 -36.259  0.00  0.00    +0.054 A 
ATOM      8  C   UNL     1      -2.115   1.326 -37.176  0.00  0.00    +0.126 A 
ATOM     16  N   UNL     1      -1.846   0.749 -38.368  0.00  0.00    -0.240 NA
ATOM     17  C   UNL     1      -2.331  -0.467 -38.698  0.00  0.00    +0.113 A 
ATOM     18  C   UNL     1      -3.126  -1.159 -37.798  0.00  0.00    +0.030 A 
ENDROOT
BRANCH   6   5
ATOM      3  C   UNL     1      -5.249  -1.597 -33.501  0.00  0.00    +0.233 A 
ATOM      4  N   UNL     1      -4.448  -0.871 -34.276  0.00  0.00    -0.205 NA
ATOM      5  C   UNL     1      -4.236  -1.238 -35.550  0.00  0.00    +0.113 A 
ATOM     19  S   UNL     1      -5.182  -2.660 -35.712  0.00  0.00    -0.059 S 
ATOM     20  C   UNL     1      -5.824  -2.714 -34.107  0.00  0.00    +0.137 A 
BRANCH  20  21
ATOM     21  C   UNL     1      -6.749  -3.757 -33.612  0.00  0.00    +0.253 C 
ATOM     22  N   UNL     1      -7.327  -3.633 -32.413  0.00  0.00    -0.325 N 
ATOM     23  H   UNL     1      -7.995  -4.391 -32.060  0.00  0.00    +0.145 HD
ATOM     24  H   UNL     1      -7.122  -2.776 -31.806  0.00  0.00    +0.145 HD
ATOM     25  O   UNL     1      -6.978  -4.732 -34.315  0.00  0.00    -0.270 OA
ENDBRANCH  20  21
BRANCH   3   1
ATOM      1  O   UNL     1      -5.480  -1.269 -32.241  0.00  0.00    -0.491 OA
ATOM      2  H   UNL     1      -6.507  -1.097 -32.106  0.00  0.00    +0.294 HD
ENDBRANCH   3   1
ENDBRANCH   6   5
BRANCH   8   9
ATOM      9  N   UNL     1      -1.605   2.537 -36.875  0.00  0.00    -0.270 N 
ATOM     10  H   UNL     1      -0.757   2.828 -37.459  0.00  0.00    +0.156 HD
ATOM     11  C   UNL     1      -1.997   3.439 -35.952  0.00  0.00    +0.221 C 
ATOM     15  O   UNL     1      -2.447   3.128 -34.848  0.00  0.00    -0.275 OA
BRANCH  11  12
ATOM     12  C   UNL     1      -1.839   4.900 -36.293  0.00  0.00    +0.075 C 
ATOM     13  C   UNL     1      -0.699   5.628 -35.570  0.00  0.00    +0.013 C 
ATOM     14  C   UNL     1      -2.151   5.882 -35.166  0.00  0.00    +0.013 C 
ENDBRANCH  11  12
ENDBRANCH   8   9
TORSDOF 5
