REMARK  Name = 6GRA
REMARK  9 active torsions:
REMARK  status: ('A' for Active; 'I' for Inactive)
REMARK    1  A    between atoms: OBP_2  and  CBM_3
REMARK    2  A    between atoms: CBJ_8  and  NBH_9
REMARK    3  A    between atoms: NAS_12  and  CAK_13
REMARK    4  A    between atoms: NAD_22  and  CAU_23
REMARK    5  A    between atoms: CAU_23  and  CAW_25
REMARK    6  A    between atoms: CAG_30  and  CAM_31
REMARK    7  A    between atoms: CAM_31  and  NAO_32
REMARK    8  A    between atoms: NAO_32  and  CAQ_34
REMARK    9  A    between atoms: CAQ_34  and  CAR_35
REMARK                            x       y       z     vdW  Elec       q    Type
REMARK                         _______ _______ _______ _____ _____    ______ ____
ROOT
ATOM     10  C   UNL     1     -10.026  26.304  -9.196  0.00  0.00    +0.050 A 
ATOM     11  C   UNL     1      -9.172  27.357  -9.512  0.00  0.00    -0.130 A 
ATOM     12  C   UNL     1      -8.674  28.161  -8.524  0.00  0.00    -0.130 A 
ATOM     13  C   UNL     1      -9.022  27.944  -7.203  0.00  0.00    +0.185 A 
ATOM     14  C   UNL     1      -9.898  26.885  -6.853  0.00  0.00    +0.000 A 
ATOM     15  C   UNL     1     -10.365  26.470  -5.487  0.00  0.00    +0.600 C 
ATOM     16  N   UNL     1     -11.086  27.344  -4.745  0.00  0.00    -0.250 N 
ATOM     17  C   UNL     1     -11.351  28.690  -5.285  0.00  0.00    +0.000 C 
ATOM     18  C   UNL     1     -10.264  29.704  -4.923  0.00  0.00    -0.050 C 
ATOM     19  C   UNL     1      -8.858  29.046  -4.920  0.00  0.00    +0.130 C 
ATOM     33  C   UNL     1     -10.304  30.924  -5.843  0.00  0.00    -0.150 C 
ATOM     38  O   UNL     1     -10.058  25.353  -5.085  0.00  0.00    -0.550 OA
ATOM     39  O   UNL     1      -8.465  28.802  -6.299  0.00  0.00    -0.365 OA
ATOM     40  C   UNL     1     -10.388  26.071  -7.866  0.00  0.00    -0.130 A 
ENDROOT
BRANCH  10   9
ATOM      7  N   UNL     1     -11.654  23.814 -11.266  0.00  0.00    -0.350 NA
ATOM      8  C   UNL     1     -10.912  24.205 -10.179  0.00  0.00    +0.650 C 
ATOM      9  N   UNL     1     -10.520  25.517 -10.253  0.00  0.00    -0.350 NA
ATOM     41  O   UNL     1     -10.662  23.475  -9.225  0.00  0.00    -0.550 OA
BRANCH   7   6
ATOM      3  C   UNL     1     -13.833  20.252 -11.284  0.00  0.00    +0.185 A 
ATOM      4  C   UNL     1     -12.536  20.298 -10.797  0.00  0.00    -0.130 A 
ATOM      5  C   UNL     1     -11.835  21.484 -10.809  0.00  0.00    -0.130 A 
ATOM      6  C   UNL     1     -12.417  22.640 -11.324  0.00  0.00    +0.050 A 
ATOM     42  C   UNL     1     -13.727  22.598 -11.790  0.00  0.00    -0.130 A 
ATOM     43  C   UNL     1     -14.429  21.407 -11.777  0.00  0.00    -0.130 A 
BRANCH   3   2
ATOM      1  C   UNL     1     -14.468  18.344  -9.996  0.00  0.00    +0.030 C 
ATOM      2  O   UNL     1     -14.489  19.054 -11.234  0.00  0.00    -0.365 OA
ENDBRANCH   3   2
ENDBRANCH   7   6
ENDBRANCH  10   9
BRANCH  16  34
ATOM     34  C   UNL     1     -11.565  27.044  -3.383  0.00  0.00    +0.050 C 
ATOM     37  C   UNL     1     -11.123  28.074  -2.363  0.00  0.00    -0.150 C 
BRANCH  34  35
ATOM     35  C   UNL     1     -12.977  26.631  -3.277  0.00  0.00    +0.150 C 
ATOM     36  O   UNL     1     -13.554  26.395  -4.559  0.00  0.00    -0.650 OA
ENDBRANCH  34  35
ENDBRANCH  16  34
BRANCH  19  20
ATOM     20  C   UNL     1      -7.778  29.963  -4.367  0.00  0.00    +0.000 C 
BRANCH  20  21
ATOM     21  N   UNL     1      -6.621  29.264  -3.804  0.00  0.00    -0.300 NA
ATOM     32  C   UNL     1      -6.780  27.911  -3.280  0.00  0.00    -0.050 C 
BRANCH  21  22
ATOM     22  C   UNL     1      -5.228  29.657  -4.033  0.00  0.00    +0.000 C 
BRANCH  22  23
ATOM     23  C   UNL     1      -5.001  30.425  -5.301  0.00  0.00    +0.000 C 
ATOM     24  C   UNL     1      -4.378  31.665  -5.206  0.00  0.00    -0.130 C 
ATOM     25  C   UNL     1      -4.079  32.424  -6.331  0.00  0.00    -0.130 C 
ATOM     26  C   UNL     1      -4.389  31.891  -7.545  0.00  0.00    +0.000 C 
ATOM     27  O   UNL     1      -4.186  32.430  -8.794  0.00  0.00    +0.000 OA
ATOM     28  C   UNL     1      -4.687  31.462  -9.721  0.00  0.00    -0.100 C 
ATOM     29  O   UNL     1      -5.193  30.349  -8.982  0.00  0.00    +0.000 OA
ATOM     30  C   UNL     1      -4.983  30.653  -7.655  0.00  0.00    +0.000 C 
ATOM     31  C   UNL     1      -5.289  29.890  -6.561  0.00  0.00    -0.130 C 
ENDBRANCH  22  23
ENDBRANCH  21  22
ENDBRANCH  20  21
ENDBRANCH  19  20
TORSDOF 9
