REMARK  Name = 8Q3
REMARK  4 active torsions:
REMARK  status: ('A' for Active; 'I' for Inactive)
REMARK    1  A    between atoms: CAA_11  and  NAJ_12
REMARK    2  A    between atoms: NAJ_12  and  SAK_13
REMARK    3  A    between atoms: SAK_13  and  CAN_16
REMARK    4  A    between atoms: CAO_22  and  OAT_23
REMARK                            x       y       z     vdW  Elec       q    Type
REMARK                         _______ _______ _______ _____ _____    ______ ____
ROOT
ATOM     11  N   UNL     1      -6.342  11.693   1.655  0.00  0.00    -0.097 NA
ENDROOT
BRANCH  11   3
ATOM      1  C   UNL     1      -8.235  11.940  -0.500  0.00  0.00    +0.033 C 
ATOM      2  C   UNL     1      -8.365  11.005   0.561  0.00  0.00    -0.002 A 
ATOM      3  C   UNL     1      -7.430  10.861   1.610  0.00  0.00    +0.087 A 
ATOM      4  C   UNL     1      -7.699   9.913   2.611  0.00  0.00    +0.022 A 
ATOM      5  C   UNL     1      -8.799   9.127   2.572  0.00  0.00    +0.055 A 
ATOM      6  C   UNL     1      -9.209   8.149   3.399  0.00  0.00    +0.101 A 
ATOM      7  C   UNL     1      -8.473   7.678   4.645  0.00  0.00    +0.056 C 
ATOM      8  N   UNL     1     -10.368   7.604   3.007  0.00  0.00    -0.081 NA
ATOM      9  O   UNL     1     -10.749   8.353   1.719  0.00  0.00    -0.354 OA
ATOM     10  C   UNL     1      -9.688   9.271   1.546  0.00  0.00    +0.176 A 
ATOM     23  C   UNL     1      -9.491  10.176   0.570  0.00  0.00    +0.037 A 
ENDBRANCH  11   3
BRANCH  11  12
ATOM     12  S   UNL     1      -4.822  11.071   1.544  0.00  0.00    +0.096 S 
ATOM     13  O   UNL     1      -4.672   9.892   2.461  0.00  0.00    -0.148 OA
ATOM     14  O   UNL     1      -3.833  12.196   1.766  0.00  0.00    -0.148 OA
BRANCH  12  15
ATOM     15  C   UNL     1      -4.621  10.524  -0.128  0.00  0.00    +0.161 A 
ATOM     16  C   UNL     1      -4.331   9.181  -0.334  0.00  0.00    +0.023 A 
ATOM     17  C   UNL     1      -4.170   8.668  -1.620  0.00  0.00    +0.002 A 
ATOM     18  C   UNL     1      -4.259   9.518  -2.712  0.00  0.00    +0.003 A 
ATOM     19  C   UNL     1      -4.514  10.871  -2.528  0.00  0.00    +0.038 A 
ATOM     20  C   UNL     1      -4.699  11.389  -1.229  0.00  0.00    +0.158 A 
BRANCH  20  21
ATOM     21  O   UNL     1      -4.907  12.719  -0.990  0.00  0.00    -0.470 OA
ATOM     22  C   UNL     1      -5.252  13.618  -2.117  0.00  0.00    +0.253 C 
ENDBRANCH  20  21
ENDBRANCH  12  15
ENDBRANCH  11  12
TORSDOF 4
