REMARK  Name = 2ITQ
REMARK  5 active torsions:
REMARK  status: ('A' for Active; 'I' for Inactive)
REMARK    1  A    between atoms: C_4  and  N_34
REMARK    2  A    between atoms: C_5  and  O_32
REMARK    3  A    between atoms: C_6  and  C_7
REMARK    4  A    between atoms: O_32  and  C_33
REMARK    5  A    between atoms: N_34  and  C_35
REMARK                            x       y       z     vdW  Elec       q    Type
REMARK                         _______ _______ _______ _____ _____    ______ ____
ROOT
ATOM      1  O   UNL     1     -48.533  -2.282 -22.936  0.00  0.00    -0.328 OA
ATOM      2  C   UNL     1     -49.352  -2.960 -23.945  0.00  0.00    +0.174 C 
ATOM      3  N   UNL     1     -50.466  -1.985 -24.339  0.00  0.00    -0.307 N 
ATOM      4  C   UNL     1     -50.976  -1.897 -25.600  0.00  0.00    +0.053 A 
ATOM      5  C   UNL     1     -50.700  -2.593 -26.815  0.00  0.00    +0.026 A 
ATOM      6  C   UNL     1     -51.418  -2.299 -27.989  0.00  0.00    +0.002 A 
ATOM      7  C   UNL     1     -52.409  -1.309 -27.967  0.00  0.00    +0.001 A 
ATOM      8  C   UNL     1     -52.701  -0.621 -26.777  0.00  0.00    +0.010 A 
ATOM      9  C   UNL     1     -51.990  -0.904 -25.589  0.00  0.00    +0.008 A 
ATOM     10  C   UNL     1     -52.055  -0.398 -24.270  0.00  0.00    +0.015 A 
ATOM     11  C   UNL     1     -52.835   0.578 -23.593  0.00  0.00    -0.008 A 
ATOM     12  C   UNL     1     -53.953   1.439 -24.163  0.00  0.00    +0.141 C 
ATOM     13  N   UNL     1     -54.396   2.181 -22.981  0.00  0.00    -0.307 N 
ATOM     14  H   UNL     1     -55.212   2.873 -22.969  0.00  0.00    +0.149 HD
ATOM     15  C   UNL     1     -53.640   1.875 -21.913  0.00  0.00    +0.245 C 
ATOM     16  O   UNL     1     -53.846   2.391 -20.807  0.00  0.00    -0.270 OA
ATOM     17  C   UNL     1     -52.680   0.885 -22.218  0.00  0.00    +0.051 A 
ATOM     18  C   UNL     1     -51.704   0.165 -21.478  0.00  0.00    +0.018 A 
ATOM     19  C   UNL     1     -51.237   0.130 -20.149  0.00  0.00    -0.018 A 
ATOM     20  C   UNL     1     -51.697   0.974 -18.941  0.00  0.00    +0.037 C 
ATOM     21  C   UNL     1     -50.788   0.768 -17.691  0.00  0.00    +0.005 C 
ATOM     22  C   UNL     1     -50.259  -0.683 -17.542  0.00  0.00    +0.006 C 
ATOM     23  C   UNL     1     -49.455  -1.156 -18.770  0.00  0.00    +0.054 C 
ATOM     24  C   UNL     1     -50.215  -0.837 -20.078  0.00  0.00    +0.026 A 
ATOM     25  N   UNL     1     -50.059  -1.381 -21.317  0.00  0.00    -0.316 N 
ATOM     26  C   UNL     1     -50.933  -0.804 -22.159  0.00  0.00    +0.077 A 
ATOM     27  C   UNL     1     -51.099  -1.098 -23.537  0.00  0.00    +0.077 A 
ATOM     28  C   UNL     1     -48.479  -3.348 -25.157  0.00  0.00    +0.069 C 
ATOM     29  C   UNL     1     -49.990  -4.313 -23.399  0.00  0.00    +0.187 C 
ATOM     32  C   UNL     1     -49.336  -4.846 -22.101  0.00  0.00    +0.091 C 
ATOM     36  C   UNL     1     -49.280  -3.720 -21.014  0.00  0.00    +0.076 C 
ATOM     37  C   UNL     1     -49.237  -2.358 -21.766  0.00  0.00    +0.224 C 
ENDROOT
BRANCH  32  33
ATOM     33  N   UNL     1     -50.033  -6.094 -21.679  0.00  0.00    -0.314 NA
ATOM     34  H   UNL     1     -50.333  -6.630 -22.555  0.00  0.00    +0.122 HD
ATOM     35  C   UNL     1     -49.176  -6.986 -20.846  0.00  0.00    +0.101 C 
ENDBRANCH  32  33
BRANCH  29  30
ATOM     30  O   UNL     1     -51.419  -4.291 -23.165  0.00  0.00    -0.374 OA
ATOM     31  C   UNL     1     -52.049  -4.817 -24.329  0.00  0.00    +0.194 C 
ENDBRANCH  29  30
TORSDOF 2
