REMARK  Name = A7H
REMARK  2 active torsions:
REMARK  status: ('A' for Active; 'I' for Inactive)
REMARK    1  A    between atoms: C3_8  and  O1_11
REMARK    2  A    between atoms: C2_9  and  O1_11
REMARK                            x       y       z     vdW  Elec       q    Type
REMARK                         _______ _______ _______ _____ _____    ______ ____
ROOT
ATOM      1  C   UNL     1     -11.219  10.050 -13.190  0.00  0.00    +0.059 C 
ATOM      2  C   UNL     1     -11.332  11.115 -14.215  0.00  0.00    +0.089 A 
ATOM      3  S   UNL     1     -12.543  12.335 -14.197  0.00  0.00    -0.071 S 
ATOM      4  C   UNL     1     -11.975  13.087 -15.633  0.00  0.00    +0.051 A 
ATOM      5  C   UNL     1     -10.855  12.384 -16.107  0.00  0.00    +0.088 A 
ATOM      6  C   UNL     1     -10.216  12.817 -17.275  0.00  0.00    +0.023 A 
ATOM      7  C   UNL     1     -10.708  13.928 -17.927  0.00  0.00    +0.039 A 
ATOM      8  C   UNL     1     -11.826  14.626 -17.442  0.00  0.00    +0.139 A 
ATOM     12  C   UNL     1     -12.466  14.203 -16.289  0.00  0.00    +0.045 A 
ATOM     13  N   UNL     1     -10.545  11.299 -15.280  0.00  0.00    -0.243 NA
ENDROOT
BRANCH   8   9
ATOM      9  O   UNL     1     -12.285  15.722 -18.114  0.00  0.00    -0.475 OA
BRANCH   9  10
ATOM     10  C   UNL     1     -11.619  16.104 -19.322  0.00  0.00    +0.205 C 
ATOM     11  C   UNL     1     -12.222  17.409 -19.781  0.00  0.00    +0.051 C 
ENDBRANCH   9  10
ENDBRANCH   8   9
TORSDOF 2
