REMARK  Name = 5KZI
REMARK  4 active torsions:
REMARK  status: ('A' for Active; 'I' for Inactive)
REMARK    1  A    between atoms: C_8  and  C_9
REMARK    2  A    between atoms: N_18  and  C_19
REMARK    3  A    between atoms: C_24  and  N_25
REMARK    4  A    between atoms: C_30  and  N_31
REMARK                            x       y       z     vdW  Elec       q    Type
REMARK                         _______ _______ _______ _____ _____    ______ ____
ROOT
ATOM      4  C   UNL     1     -43.991  -1.298   0.942  0.00  0.00    +0.056 C 
ATOM      5  N   UNL     1     -42.674  -1.451   0.804  0.00  0.00    -0.250 N 
ATOM      6  H   UNL     1     -42.071  -1.503   1.687  0.00  0.00    +0.173 HD
ATOM      7  N   UNL     1     -42.114  -1.536  -0.301  0.00  0.00    -0.234 N 
ATOM      8  C   UNL     1     -40.792  -1.715  -0.599  0.00  0.00    +0.218 A 
ATOM      9  N   UNL     1     -39.943  -1.786   0.427  0.00  0.00    -0.281 N 
ATOM     10  H   UNL     1     -40.346  -1.503   1.377  0.00  0.00    +0.155 HD
ATOM     26  N   UNL     1     -40.619  -1.750  -1.920  0.00  0.00    -0.221 NA
ATOM     27  C   UNL     1     -41.835  -1.615  -2.477  0.00  0.00    +0.138 A 
ATOM     28  C   UNL     1     -42.763  -1.482  -1.512  0.00  0.00    +0.064 A 
ATOM     29  C   UNL     1     -44.141  -1.314  -1.484  0.00  0.00    +0.086 C 
ATOM     30  C   UNL     1     -44.754  -1.229  -0.231  0.00  0.00    +0.005 C 
ENDROOT
BRANCH   4   3
ATOM      1  F   UNL     1     -43.066  -2.910   3.019  0.00  0.00    -0.205 F 
ATOM      2  C   UNL     1     -44.074  -2.054   3.262  0.00  0.00    +0.135 A 
ATOM      3  C   UNL     1     -44.553  -1.227   2.238  0.00  0.00    +0.068 A 
ATOM     31  C   UNL     1     -45.605  -0.364   2.540  0.00  0.00    +0.135 A 
ATOM     32  F   UNL     1     -46.097   0.439   1.587  0.00  0.00    -0.205 F 
ATOM     33  C   UNL     1     -46.162  -0.321   3.817  0.00  0.00    +0.039 A 
ATOM     34  C   UNL     1     -45.669  -1.142   4.829  0.00  0.00    +0.006 A 
ATOM     35  C   UNL     1     -44.618  -2.013   4.544  0.00  0.00    +0.039 A 
ENDBRANCH   4   3
BRANCH   9  11
ATOM     11  C   UNL     1     -38.668  -2.158   0.438  0.00  0.00    +0.073 A 
ATOM     12  C   UNL     1     -38.083  -2.514   1.655  0.00  0.00    +0.054 A 
ATOM     22  C   UNL     1     -36.744  -2.885   1.683  0.00  0.00    +0.044 A 
ATOM     23  C   UNL     1     -36.041  -2.901   0.484  0.00  0.00    +0.112 A 
ATOM     24  N   UNL     1     -36.622  -2.562  -0.659  0.00  0.00    -0.261 NA
ATOM     25  C   UNL     1     -37.894  -2.193  -0.715  0.00  0.00    +0.136 A 
BRANCH  12  13
ATOM     13  N   UNL     1     -38.786  -2.459   2.876  0.00  0.00    -0.327 N 
ATOM     14  C   UNL     1     -39.265  -1.118   3.334  0.00  0.00    +0.105 C 
ATOM     15  C   UNL     1     -40.469  -1.205   4.272  0.00  0.00    +0.020 C 
ATOM     16  C   UNL     1     -40.248  -2.270   5.341  0.00  0.00    +0.021 C 
ATOM     17  C   UNL     1     -40.086  -3.649   4.656  0.00  0.00    +0.068 C 
ATOM     21  C   UNL     1     -38.835  -3.631   3.777  0.00  0.00    +0.123 C 
BRANCH  17  18
ATOM     18  N   UNL     1     -39.973  -4.711   5.667  0.00  0.00    -0.326 NA
ATOM     19  H   UNL     1     -39.871  -5.658   5.180  0.00  0.00    +0.118 HD
ATOM     20  H   UNL     1     -39.114  -4.531   6.280  0.00  0.00    +0.118 HD
ENDBRANCH  17  18
ENDBRANCH  12  13
ENDBRANCH   9  11
TORSDOF 4
