REMARK  Name = 5UVC
REMARK  7 active torsions:
REMARK  status: ('A' for Active; 'I' for Inactive)
REMARK    1  A    between atoms: N_1  and  C_2
REMARK    2  A    between atoms: C_2  and  C_3
REMARK    3  A    between atoms: C_9  and  N_21
REMARK    4  A    between atoms: C_10  and  N_21
REMARK    5  A    between atoms: C_10  and  C_22
REMARK    6  A    between atoms: C_11  and  C_12
REMARK    7  A    between atoms: C_16  and  C_18
REMARK                            x       y       z     vdW  Elec       q    Type
REMARK                         _______ _______ _______ _____ _____    ______ ____
ROOT
ATOM      4  C   UNL     1      10.499  42.984   1.297  0.00  0.00    +0.038 A 
ATOM      5  C   UNL     1      10.120  41.797   0.636  0.00  0.00    +0.036 A 
ATOM      6  C   UNL     1      11.067  40.813   0.321  0.00  0.00    +0.028 A 
ATOM     22  C   UNL     1      12.416  41.010   0.672  0.00  0.00    +0.023 A 
ATOM     23  C   UNL     1      12.802  42.175   1.327  0.00  0.00    +0.003 A 
ATOM     24  C   UNL     1      11.861  43.157   1.638  0.00  0.00    +0.013 A 
ENDROOT
BRANCH   4   3
ATOM      1  N   UNL     1       8.271  44.015   0.963  0.00  0.00    -0.307 N 
ATOM      2  H   UNL     1       8.105  43.242   0.242  0.00  0.00    +0.149 HD
ATOM      3  C   UNL     1       9.472  44.033   1.614  0.00  0.00    +0.244 C 
ATOM     25  O   UNL     1       9.714  44.901   2.441  0.00  0.00    -0.270 OA
BRANCH   1  26
ATOM     26  C   UNL     1       7.185  44.993   1.189  0.00  0.00    +0.140 C 
BRANCH  26  27
ATOM     27  C   UNL     1       6.266  45.069  -0.020  0.00  0.00    -0.030 A 
ATOM     28  C   UNL     1       5.523  43.950  -0.425  0.00  0.00    +0.005 A 
ATOM     29  C   UNL     1       4.681  44.030  -1.539  0.00  0.00    +0.000 A 
ATOM     30  C   UNL     1       4.573  45.227  -2.249  0.00  0.00    +0.000 A 
ATOM     31  C   UNL     1       5.307  46.344  -1.849  0.00  0.00    +0.000 A 
ATOM     32  C   UNL     1       6.151  46.267  -0.738  0.00  0.00    +0.005 A 
ENDBRANCH  26  27
ENDBRANCH   1  26
ENDBRANCH   4   3
BRANCH   6   7
ATOM      7  N   UNL     1      10.614  39.656  -0.343  0.00  0.00    -0.337 N 
ATOM      8  H   UNL     1       9.562  39.559  -0.514  0.00  0.00    +0.146 HD
BRANCH   7   9
ATOM      9  C   UNL     1      11.492  38.570  -0.818  0.00  0.00    +0.179 C 
BRANCH   9  10
ATOM     10  C   UNL     1      11.746  37.595   0.302  0.00  0.00    +0.168 A 
ATOM     11  N   UNL     1      11.008  37.482   1.418  0.00  0.00    -0.156 NA
ATOM     12  N   UNL     1      11.589  36.476   2.186  0.00  0.00    -0.259 N 
ATOM     13  H   UNL     1      11.251  36.125   3.138  0.00  0.00    +0.191 HD
ATOM     14  C   UNL     1      12.628  36.043   1.519  0.00  0.00    +0.156 A 
ATOM     21  N   UNL     1      12.718  36.727   0.367  0.00  0.00    -0.210 NA
BRANCH  14  15
ATOM     15  C   UNL     1      13.514  34.949   1.979  0.00  0.00    +0.021 A 
ATOM     16  C   UNL     1      13.258  34.305   3.210  0.00  0.00    +0.031 A 
ATOM     17  C   UNL     1      14.086  33.271   3.608  0.00  0.00    +0.111 A 
ATOM     18  N   UNL     1      15.099  32.892   2.837  0.00  0.00    -0.263 NA
ATOM     19  C   UNL     1      15.372  33.463   1.663  0.00  0.00    +0.111 A 
ATOM     20  C   UNL     1      14.593  34.505   1.189  0.00  0.00    +0.031 A 
ENDBRANCH  14  15
ENDBRANCH   9  10
ENDBRANCH   7   9
ENDBRANCH   6   7
TORSDOF 7
