REMARK  Name = 5I5Z
REMARK  6 active torsions:
REMARK  status: ('A' for Active; 'I' for Inactive)
REMARK    1  A    between atoms: C_1  and  N_15
REMARK    2  A    between atoms: C_2  and  C_3
REMARK    3  A    between atoms: C_7  and  C_22
REMARK    4  A    between atoms: O_11  and  S_23
REMARK    5  A    between atoms: N_12  and  C_13
REMARK    6  A    between atoms: S_23  and  O_24
REMARK                            x       y       z     vdW  Elec       q    Type
REMARK                         _______ _______ _______ _____ _____    ______ ____
ROOT
ATOM      6  C   UNL     1      40.120  59.828  55.609  0.00  0.00    +0.126 A 
ATOM      7  C   UNL     1      40.763  60.682  56.528  0.00  0.00    +0.034 A 
ATOM      8  C   UNL     1      41.910  61.326  56.150  0.00  0.00    +0.014 A 
ATOM      9  C   UNL     1      42.418  61.112  54.850  0.00  0.00    +0.019 A 
ATOM     10  C   UNL     1      43.590  61.740  54.401  0.00  0.00    +0.120 A 
ATOM     11  N   UNL     1      44.051  61.523  53.185  0.00  0.00    -0.262 NA
ATOM     12  C   UNL     1      43.440  60.712  52.328  0.00  0.00    +0.121 A 
ATOM     13  C   UNL     1      42.274  60.046  52.663  0.00  0.00    +0.026 A 
ATOM     28  C   UNL     1      41.728  60.236  53.966  0.00  0.00    +0.082 A 
ATOM     29  N   UNL     1      40.620  59.637  54.387  0.00  0.00    -0.241 NA
ENDROOT
BRANCH  13  14
ATOM     14  C   UNL     1      41.635  59.141  51.696  0.00  0.00    -0.014 A 
ATOM     15  C   UNL     1      41.135  59.588  50.473  0.00  0.00    +0.010 A 
ATOM     16  C   UNL     1      40.545  58.690  49.606  0.00  0.00    +0.025 A 
ATOM     17  C   UNL     1      40.431  57.306  49.928  0.00  0.00    +0.053 A 
ATOM     18  N   UNL     1      39.847  56.325  49.104  0.00  0.00    -0.233 N 
ATOM     19  S   UNL     1      39.935  54.868  49.890  0.00  0.00    -0.118 S 
ATOM     24  C   UNL     1      40.781  55.410  51.400  0.00  0.00    +0.192 C 
ATOM     25  C   UNL     1      39.248  56.516  47.777  0.00  0.00    +0.155 C 
ATOM     26  C   UNL     1      40.947  56.892  51.146  0.00  0.00    -0.004 A 
ATOM     27  C   UNL     1      41.540  57.789  52.017  0.00  0.00    +0.015 A 
BRANCH  19  20
ATOM     20  O   UNL     1      40.821  54.084  49.113  0.00  0.00    -0.281 OA
ATOM     21  H   UNL     1      41.663  54.657  48.857  0.00  0.00    +0.242 HD
ENDBRANCH  19  20
BRANCH  19  22
ATOM     22  O   UNL     1      38.590  54.527  50.182  0.00  0.00    -0.281 OA
ATOM     23  H   UNL     1      38.571  53.748  50.886  0.00  0.00    +0.242 HD
ENDBRANCH  19  22
ENDBRANCH  13  14
BRANCH   6   4
ATOM      1  C   UNL     1      36.838  57.907  55.362  0.00  0.00    +0.128 C 
ATOM      2  N   UNL     1      38.053  58.645  55.033  0.00  0.00    -0.313 N 
ATOM      3  H   UNL     1      38.292  58.831  54.007  0.00  0.00    +0.149 HD
ATOM      4  C   UNL     1      38.883  59.099  55.999  0.00  0.00    +0.262 C 
ATOM      5  O   UNL     1      38.646  58.883  57.178  0.00  0.00    -0.269 OA
ENDBRANCH   6   4
TORSDOF 4
