REMARK  Name = 3FMH
REMARK  7 active torsions:
REMARK  status: ('A' for Active; 'I' for Inactive)
REMARK    1  A    between atoms: C_8  and  O_9
REMARK    2  A    between atoms: O_9  and  C_10
REMARK    3  A    between atoms: N_13  and  C_14
REMARK    4  A    between atoms: N_22  and  C_23
REMARK    5  A    between atoms: C_23  and  C_24
REMARK    6  A    between atoms: C_23  and  C_25
REMARK    7  A    between atoms: C_25  and  N_26
REMARK                            x       y       z     vdW  Elec       q    Type
REMARK                         _______ _______ _______ _____ _____    ______ ____
ROOT
ATOM      7  C   UNL     1      20.278  11.748  31.163  0.00  0.00    +0.193 C 
ATOM      8  C   UNL     1      20.380  10.456  30.980  0.00  0.00    +0.065 C 
ATOM      9  C   UNL     1      21.529   9.833  30.951  0.00  0.00    +0.039 A 
ATOM     10  C   UNL     1      21.620   8.450  30.755  0.00  0.00    +0.126 A 
ATOM     11  N   UNL     1      22.825   7.840  30.732  0.00  0.00    -0.222 NA
ATOM     12  C   UNL     1      23.972   8.563  30.901  0.00  0.00    +0.217 A 
ATOM     13  N   UNL     1      25.208   7.996  30.886  0.00  0.00    -0.309 N 
ATOM     14  H   UNL     1      25.324   6.933  30.921  0.00  0.00    +0.149 HD
ATOM     23  N   UNL     1      23.909   9.897  31.091  0.00  0.00    -0.196 NA
ATOM     24  C   UNL     1      22.723  10.539  31.119  0.00  0.00    +0.148 A 
ATOM     25  N   UNL     1      22.688  11.928  31.322  0.00  0.00    -0.293 N 
ATOM     26  C   UNL     1      23.930  12.699  31.498  0.00  0.00    +0.154 C 
ATOM     27  C   UNL     1      21.417  12.535  31.334  0.00  0.00    +0.295 C 
ATOM     28  O   UNL     1      21.311  13.767  31.506  0.00  0.00    -0.264 OA
ENDROOT
BRANCH  13  15
ATOM     15  C   UNL     1      26.378   8.879  30.821  0.00  0.00    +0.093 C 
ATOM     22  C   UNL     1      27.415   8.340  29.845  0.00  0.00    +0.030 C 
BRANCH  15  16
ATOM     16  C   UNL     1      26.948   9.045  32.237  0.00  0.00    +0.190 C 
BRANCH  16  17
ATOM     17  N   UNL     1      27.096   7.786  32.974  0.00  0.00    -0.162 N 
ATOM     18  N   UNL     1      27.987   6.778  32.626  0.00  0.00    -0.046 NA
ATOM     19  N   UNL     1      27.752   5.816  33.627  0.00  0.00    -0.116 NA
ATOM     20  C   UNL     1      26.794   6.265  34.490  0.00  0.00    +0.270 A 
ATOM     21  N   UNL     1      26.359   7.497  34.119  0.00  0.00    -0.139 NA
ENDBRANCH  16  17
ENDBRANCH  15  16
ENDBRANCH  13  15
BRANCH   7   6
ATOM      6  O   UNL     1      19.068  12.414  31.200  0.00  0.00    -0.448 OA
BRANCH   6   5
ATOM      1  F   UNL     1      14.076  10.166  30.763  0.00  0.00    -0.205 F 
ATOM      2  C   UNL     1      15.294  10.710  30.885  0.00  0.00    +0.126 A 
ATOM      3  C   UNL     1      16.064  10.447  32.014  0.00  0.00    +0.080 A 
ATOM      4  C   UNL     1      17.334  11.011  32.128  0.00  0.00    +0.168 A 
ATOM      5  C   UNL     1      17.825  11.832  31.113  0.00  0.00    +0.164 A 
ATOM     29  C   UNL     1      17.044  12.098  29.991  0.00  0.00    +0.052 A 
ATOM     30  F   UNL     1      18.076  10.751  33.219  0.00  0.00    -0.202 F 
ATOM     31  C   UNL     1      15.779  11.533  29.871  0.00  0.00    +0.042 A 
ENDBRANCH   6   5
ENDBRANCH   7   6
TORSDOF 5
