REMARK  Name = 2xiz_ligand
REMARK  2 active torsions:
REMARK  status: ('A' for Active; 'I' for Inactive)
REMARK    1  A    between atoms: C1_1  and  C2_4
REMARK    2  A    between atoms: C3_5  and  C1'_6
REMARK                            x       y       z     vdW  Elec       q    Type
REMARK                         _______ _______ _______ _____ _____    ______ ____
ROOT
ATOM      4  C   UNL     1     -22.521 -35.451   0.819  0.00  0.00    -0.001 A 
ATOM      5  C   UNL     1     -23.068 -36.570   1.438  0.00  0.00    +0.046 A 
ATOM      6  C   UNL     1     -23.170 -37.769   0.713  0.00  0.00    +0.093 A 
ATOM      7  N   UNL     1     -22.759 -37.835  -0.554  0.00  0.00    -0.298 NA
ATOM      8  C   UNL     1     -22.243 -36.778  -1.180  0.00  0.00    +0.093 A 
ATOM      9  C   UNL     1     -22.110 -35.559  -0.515  0.00  0.00    +0.046 A 
ENDROOT
BRANCH   4   3
ATOM      2  C   UNL     1     -21.835 -33.104   0.929  0.00  0.00    +0.049 C 
ATOM      3  C   UNL     1     -22.427 -34.236   1.506  0.00  0.00    +0.036 C 
BRANCH   2   1
ATOM      1  C   UNL     1     -21.796 -31.871   1.597  0.00  0.00    +0.057 C 
ATOM     10  O   UNL     1     -22.315 -31.776   2.739  0.00  0.00    -0.561 OA
ATOM     11  O   UNL     1     -21.235 -30.919   1.005  0.00  0.00    -0.561 OA
ENDBRANCH   2   1
ENDBRANCH   4   3
TORSDOF 2
