REMARK  Name = 5VUA
REMARK  5 active torsions:
REMARK  status: ('A' for Active; 'I' for Inactive)
REMARK    1  A    between atoms: C_7  and  O_8
REMARK    2  A    between atoms: O_8  and  C_9
REMARK    3  A    between atoms: C_14  and  C_15
REMARK    4  A    between atoms: C_15  and  N_16
REMARK    5  A    between atoms: C_22  and  C_23
REMARK                            x       y       z     vdW  Elec       q    Type
REMARK                         _______ _______ _______ _____ _____    ______ ____
ROOT
ATOM     10  C   UNL     1      17.773 -34.450  -3.606  0.00  0.00    +0.051 A 
ATOM     11  C   UNL     1      17.507 -34.704  -2.245  0.00  0.00    +0.147 A 
ATOM     12  O   UNL     1      18.091 -35.664  -1.440  0.00  0.00    -0.451 OA
ATOM     13  C   UNL     1      17.541 -35.591  -0.137  0.00  0.00    +0.176 C 
ATOM     14  C   UNL     1      17.873 -36.359   0.908  0.00  0.00    +0.060 C 
ATOM     24  C   UNL     1      16.517 -34.488  -0.134  0.00  0.00    +0.232 C 
ATOM     25  O   UNL     1      15.830 -34.120   0.805  0.00  0.00    -0.283 OA
ATOM     26  C   UNL     1      16.543 -33.960  -1.511  0.00  0.00    +0.068 A 
ATOM     27  C   UNL     1      15.827 -32.941  -2.110  0.00  0.00    +0.019 A 
ATOM     28  C   UNL     1      16.057 -32.652  -3.456  0.00  0.00    +0.047 A 
ATOM     29  C   UNL     1      17.009 -33.382  -4.182  0.00  0.00    +0.128 A 
ENDROOT
BRANCH  14  15
ATOM     15  C   UNL     1      18.864 -37.434   1.015  0.00  0.00    +0.006 A 
ATOM     16  C   UNL     1      19.657 -38.068  -0.019  0.00  0.00    +0.012 A 
ATOM     17  C   UNL     1      19.819 -37.970  -1.414  0.00  0.00    +0.030 A 
ATOM     18  C   UNL     1      20.723 -38.812  -2.029  0.00  0.00    +0.111 A 
ATOM     19  N   UNL     1      21.492 -39.764  -1.396  0.00  0.00    -0.261 NA
ATOM     20  C   UNL     1      21.362 -39.889  -0.073  0.00  0.00    +0.139 A 
ATOM     21  C   UNL     1      20.466 -39.067   0.629  0.00  0.00    +0.090 A 
ATOM     22  N   UNL     1      20.175 -39.031   1.995  0.00  0.00    -0.253 NA
ATOM     23  C   UNL     1      19.214 -38.051   2.207  0.00  0.00    +0.120 A 
ENDBRANCH  14  15
BRANCH  29  30
ATOM     30  O   UNL     1      17.259 -33.094  -5.530  0.00  0.00    -0.495 OA
ATOM     31  C   UNL     1      16.430 -32.173  -6.238  0.00  0.00    +0.277 C 
ENDBRANCH  29  30
BRANCH  10   9
ATOM      9  C   UNL     1      18.797 -35.191  -4.468  0.00  0.00    +0.127 C 
BRANCH   9   8
ATOM      1  C   UNL     1      17.386 -37.259  -4.347  0.00  0.00    +0.135 C 
ATOM      2  C   UNL     1      16.999 -38.578  -5.059  0.00  0.00    +0.145 C 
ATOM      3  N   UNL     1      16.194 -38.287  -6.314  0.00  0.00    +0.229 N 
ATOM      4  H   UNL     1      15.993 -39.202  -6.831  0.00  0.00    +0.201 HD
ATOM      5  H   UNL     1      15.270 -37.818  -6.047  0.00  0.00    +0.201 HD
ATOM      6  C   UNL     1      17.001 -37.353  -7.218  0.00  0.00    +0.145 C 
ATOM      7  C   UNL     1      17.380 -36.063  -6.433  0.00  0.00    +0.135 C 
ATOM      8  N   UNL     1      18.209 -36.409  -5.222  0.00  0.00    -0.288 NA
ENDBRANCH   9   8
ENDBRANCH  10   9
TORSDOF 4
