REMARK  Name = 4k1b_ligand
REMARK  5 active torsions:
REMARK  status: ('A' for Active; 'I' for Inactive)
REMARK    1  A    between atoms: C5_5  and  C7_7
REMARK    2  A    between atoms: C10_10  and  N17_16
REMARK    3  A    between atoms: C18_17  and  C20_19
REMARK    4  A    between atoms: N29_28  and  C30_29
REMARK    5  A    between atoms: C30_29  and  C31_30
REMARK                            x       y       z     vdW  Elec       q    Type
REMARK                         _______ _______ _______ _____ _____    ______ ____
ROOT
ATOM     12  N   UNL     1     -41.052  -2.115  -3.729  0.00  0.00    -0.261 N 
ATOM     13  H   UNL     1     -40.778  -1.924  -2.787  0.00  0.00    +0.211 HD
ATOM     14  C   UNL     1     -40.109  -2.585  -4.584  0.00  0.00    +0.187 C 
ATOM     36  O   UNL     1     -40.353  -2.855  -5.750  0.00  0.00    -0.404 OA
ENDROOT
BRANCH  14  15
ATOM     15  C   UNL     1     -38.743  -2.795  -4.111  0.00  0.00    +0.069 A 
ATOM     16  C   UNL     1     -38.237  -2.517  -2.828  0.00  0.00    +0.167 A 
ATOM     17  N   UNL     1     -38.798  -2.017  -1.723  0.00  0.00    -0.260 NA
ATOM     18  C   UNL     1     -38.071  -1.850  -0.629  0.00  0.00    +0.115 A 
ATOM     19  N   UNL     1     -38.640  -1.328   0.516  0.00  0.00    -0.299 N 
ATOM     20  H   UNL     1     -38.059  -0.779   1.166  0.00  0.00    +0.186 HD
ATOM     31  C   UNL     1     -36.708  -2.210  -0.616  0.00  0.00    +0.092 A 
ATOM     32  C   UNL     1     -36.140  -2.720  -1.732  0.00  0.00    +0.249 A 
ATOM     33  N   UNL     1     -36.914  -2.876  -2.850  0.00  0.00    -0.137 N 
ATOM     34  N   UNL     1     -36.616  -3.362  -4.126  0.00  0.00    -0.211 NA
ATOM     35  C   UNL     1     -37.683  -3.314  -4.873  0.00  0.00    +0.066 A 
BRANCH  19  21
ATOM     21  C   UNL     1     -40.055  -1.542   0.821  0.00  0.00    +0.142 C 
BRANCH  21  22
ATOM     22  C   UNL     1     -40.083  -2.511   2.000  0.00  0.00    +0.056 C 
ATOM     23  C   UNL     1     -40.739  -3.821   1.562  0.00  0.00    +0.216 C 
ATOM     24  F   UNL     1     -39.973  -4.388   0.576  0.00  0.00    -0.240 F 
ATOM     25  C   UNL     1     -40.777  -4.767   2.764  0.00  0.00    +0.167 C 
ATOM     26  N   UNL     1     -41.452  -4.130   3.910  0.00  0.00    +0.229 N 
ATOM     27  H   UNL     1     -41.471  -4.781   4.679  0.00  0.00    +0.201 HD
ATOM     28  H   UNL     1     -42.396  -3.897   3.643  0.00  0.00    +0.201 HD
ATOM     29  C   UNL     1     -40.768  -2.910   4.340  0.00  0.00    +0.130 C 
ATOM     30  C   UNL     1     -40.837  -1.907   3.194  0.00  0.00    +0.059 C 
ENDBRANCH  21  22
ENDBRANCH  19  21
ENDBRANCH  14  15
BRANCH  12  11
ATOM      4  C   UNL     1     -44.909  -1.320  -1.234  0.00  0.00    -0.007 A 
ATOM      5  C   UNL     1     -45.983  -1.159  -2.113  0.00  0.00    +0.076 A 
ATOM      6  N   UNL     1     -45.837  -1.222  -3.417  0.00  0.00    -0.287 NA
ATOM      7  C   UNL     1     -44.655  -1.457  -3.970  0.00  0.00    +0.130 A 
ATOM      8  N   UNL     1     -44.261  -1.575  -5.278  0.00  0.00    -0.283 N 
ATOM      9  H   UNL     1     -44.883  -1.489  -6.094  0.00  0.00    +0.220 HD
ATOM     10  C   UNL     1     -42.908  -1.826  -5.336  0.00  0.00    +0.103 A 
ATOM     11  C   UNL     1     -42.393  -1.880  -4.088  0.00  0.00    +0.068 A 
ATOM     37  C   UNL     1     -43.510  -1.640  -3.159  0.00  0.00    +0.031 A 
ATOM     38  C   UNL     1     -43.636  -1.573  -1.764  0.00  0.00    +0.022 A 
BRANCH   4   3
ATOM      1  C   UNL     1     -44.561  -1.982   2.450  0.00  0.00    -0.008 A 
ATOM      2  C   UNL     1     -44.380  -2.042   1.081  0.00  0.00    +0.003 A 
ATOM      3  C   UNL     1     -45.136  -1.232   0.235  0.00  0.00    +0.014 A 
ATOM     39  C   UNL     1     -46.083  -0.356   0.798  0.00  0.00    +0.140 A 
ATOM     40  F   UNL     1     -46.855   0.463   0.044  0.00  0.00    -0.183 F 
ATOM     41  C   UNL     1     -46.250  -0.313   2.173  0.00  0.00    +0.032 A 
ATOM     42  C   UNL     1     -45.494  -1.121   2.998  0.00  0.00    -0.004 A 
ENDBRANCH   4   3
ENDBRANCH  12  11
TORSDOF 5
