REMARK  Name = 2xey_ligand
REMARK  2 active torsions:
REMARK  status: ('A' for Active; 'I' for Inactive)
REMARK    1  A    between atoms: CAR_9  and  CAS_10
REMARK    2  A    between atoms: CAQ_18  and  CAP_19
REMARK                            x       y       z     vdW  Elec       q    Type
REMARK                         _______ _______ _______ _____ _____    ______ ____
ROOT
ATOM      3  C   UNL     1       2.956  -4.049  18.948  0.00  0.00    +0.082 A 
ATOM      4  N   UNL     1       4.271  -4.186  18.516  0.00  0.00    -0.203 N 
ATOM      5  C   UNL     1       4.963  -5.093  17.714  0.00  0.00    +0.203 A 
ATOM      6  C   UNL     1       6.332  -4.916  17.536  0.00  0.00    +0.059 A 
ATOM     13  N   UNL     1       6.963  -3.890  18.120  0.00  0.00    -0.297 NA
ATOM     14  C   UNL     1       6.328  -3.030  18.890  0.00  0.00    +0.157 A 
ATOM     15  C   UNL     1       4.968  -3.156  19.113  0.00  0.00    +0.165 A 
ATOM     16  N   UNL     1       4.107  -2.443  19.827  0.00  0.00    -0.332 NA
ATOM     17  C   UNL     1       2.893  -2.974  19.716  0.00  0.00    +0.027 A 
ENDROOT
BRANCH   3   2
ATOM      1  C   UNL     1       0.638  -4.730  19.087  0.00  0.00    -0.015 A 
ATOM      2  C   UNL     1       1.903  -4.864  18.558  0.00  0.00    +0.007 A 
ATOM     18  C   UNL     1       1.858  -5.799  17.619  0.00  0.00    +0.125 A 
ATOM     19  N   UNL     1       0.623  -6.297  17.561  0.00  0.00    -0.279 N 
ATOM     20  H   UNL     1       0.315  -7.039  16.933  0.00  0.00    +0.228 HD
ATOM     21  C   UNL     1      -0.143  -5.674  18.450  0.00  0.00    +0.066 A 
ATOM     22  C   UNL     1      -1.479  -5.809  18.791  0.00  0.00    +0.012 A 
ATOM     23  C   UNL     1      -2.020  -5.000  19.778  0.00  0.00    -0.022 A 
ATOM     24  C   UNL     1      -1.229  -4.062  20.421  0.00  0.00    -0.027 A 
ATOM     25  C   UNL     1       0.106  -3.928  20.081  0.00  0.00    -0.019 A 
ENDBRANCH   3   2
BRANCH   6   7
ATOM      7  C   UNL     1       7.066  -5.777  16.729  0.00  0.00    +0.010 A 
ATOM      8  C   UNL     1       6.637  -6.852  16.087  0.00  0.00    +0.158 A 
ATOM      9  N   UNL     1       7.669  -7.366  15.425  0.00  0.00    -0.219 N 
ATOM     10  H   UNL     1       7.641  -8.205  14.845  0.00  0.00    +0.259 HD
ATOM     11  N   UNL     1       8.663  -6.669  15.623  0.00  0.00    -0.217 NA
ATOM     12  C   UNL     1       8.346  -5.660  16.425  0.00  0.00    +0.071 A 
ENDBRANCH   6   7
TORSDOF 2
