REMARK  Name = 3wf6_ligand
REMARK  1 active torsions:
REMARK  status: ('A' for Active; 'I' for Inactive)
REMARK    1  A    between atoms: C08_8  and  C09_9
REMARK                            x       y       z     vdW  Elec       q    Type
REMARK                         _______ _______ _______ _____ _____    ______ ____
ROOT
ATOM      1  N   UNL     1       7.224 -13.308  15.094  0.00  0.00    -0.279 NA
ATOM      2  C   UNL     1       7.284 -12.995  13.774  0.00  0.00    +0.064 A 
ATOM      3  N   UNL     1       6.254 -12.807  12.884  0.00  0.00    -0.313 NA
ATOM      4  N   UNL     1       6.731 -12.507  11.645  0.00  0.00    -0.242 N 
ATOM      5  H   UNL     1       6.169 -12.320  10.802  0.00  0.00    +0.294 HD
ATOM      6  C   UNL     1       8.073 -12.500  11.728  0.00  0.00    +0.253 A 
ATOM      7  C   UNL     1       8.499 -12.793  13.059  0.00  0.00    +0.103 A 
ATOM      8  C   UNL     1       9.702 -12.948  13.806  0.00  0.00    +0.149 A 
ATOM      9  N   UNL     1      10.970 -12.778  13.223  0.00  0.00    -0.278 N 
ATOM     10  C   UNL     1      12.198 -12.887  14.033  0.00  0.00    +0.150 C 
ATOM     11  C   UNL     1      13.523 -12.677  13.310  0.00  0.00    +0.069 C 
ATOM     12  C   UNL     1      13.476 -11.707  12.181  0.00  0.00    -0.072 C 
ATOM     23  C   UNL     1      12.356 -11.596  11.469  0.00  0.00    -0.043 C 
ATOM     24  C   UNL     1      11.155 -12.382  11.772  0.00  0.00    +0.172 C 
ATOM     25  N   UNL     1       9.641 -13.262  15.104  0.00  0.00    -0.250 NA
ATOM     26  C   UNL     1       8.428 -13.424  15.652  0.00  0.00    +0.181 A 
ENDROOT
BRANCH  12  13
ATOM     13  C   UNL     1      14.663 -10.926  11.897  0.00  0.00    -0.026 A 
ATOM     14  C   UNL     1      15.881 -11.155  12.505  0.00  0.00    +0.125 A 
ATOM     15  N   UNL     1      16.829 -10.240  12.034  0.00  0.00    -0.278 N 
ATOM     16  H   UNL     1      17.816 -10.189  12.325  0.00  0.00    +0.228 HD
ATOM     17  C   UNL     1      16.206  -9.407  11.101  0.00  0.00    +0.066 A 
ATOM     18  C   UNL     1      16.743  -8.338  10.361  0.00  0.00    +0.012 A 
ATOM     19  C   UNL     1      15.897  -7.662   9.517  0.00  0.00    -0.022 A 
ATOM     20  C   UNL     1      14.550  -8.045   9.392  0.00  0.00    -0.027 A 
ATOM     21  C   UNL     1      14.030  -9.096  10.116  0.00  0.00    -0.019 A 
ATOM     22  C   UNL     1      14.849  -9.806  11.008  0.00  0.00    -0.018 A 
ENDBRANCH  12  13
TORSDOF 1
