REMARK  Name = 3LFA
REMARK  8 active torsions:
REMARK  status: ('A' for Active; 'I' for Inactive)
REMARK    1  A    between atoms: C_2  and  C_3
REMARK    2  A    between atoms: N_4  and  C_16
REMARK    3  A    between atoms: C_7  and  C_8
REMARK    4  A    between atoms: C_9  and  N_18
REMARK    5  A    between atoms: C_12  and  C_13
REMARK    6  A    between atoms: C_16  and  C_17
REMARK    7  A    between atoms: C_17  and  O_33
REMARK    8  A    between atoms: N_22  and  C_23
REMARK                            x       y       z     vdW  Elec       q    Type
REMARK                         _______ _______ _______ _____ _____    ______ ____
ROOT
ATOM      1  C   UNL     1      21.821   0.005 -24.403  0.00  0.00    +0.105 A 
ATOM      2  N   UNL     1      21.600   1.046 -25.234  0.00  0.00    -0.339 N 
ATOM      3  H   UNL     1      21.391   0.919 -26.276  0.00  0.00    +0.167 HD
ATOM      4  C   UNL     1      21.663   2.248 -24.652  0.00  0.00    +0.173 A 
ATOM      5  S   UNL     1      22.003   2.052 -22.969  0.00  0.00    -0.045 S 
ATOM      6  N   UNL     1      21.475   3.387 -25.321  0.00  0.00    -0.204 NA
ATOM     24  C   UNL     1      22.075   0.361 -23.137  0.00  0.00    +0.093 A 
ENDROOT
BRANCH   6   7
ATOM      7  C   UNL     1      21.621   4.610 -24.788  0.00  0.00    +0.161 A 
ATOM      8  N   UNL     1      21.822   4.744 -23.472  0.00  0.00    -0.213 NA
ATOM      9  C   UNL     1      21.975   5.950 -22.907  0.00  0.00    +0.130 A 
ATOM     10  N   UNL     1      21.923   7.067 -23.651  0.00  0.00    -0.218 NA
ATOM     11  C   UNL     1      21.718   7.022 -24.981  0.00  0.00    +0.127 A 
ATOM     12  N   UNL     1      21.669   8.249 -25.710  0.00  0.00    -0.313 N 
ATOM     13  C   UNL     1      21.800   9.541 -24.957  0.00  0.00    +0.122 C 
ATOM     14  C   UNL     1      21.223  10.740 -25.758  0.00  0.00    +0.103 C 
ATOM     15  N   UNL     1      21.681  10.796 -27.184  0.00  0.00    -0.297 NA
ATOM     16  C   UNL     1      22.214   9.536 -27.771  0.00  0.00    +0.103 C 
ATOM     21  C   UNL     1      21.503   8.287 -27.194  0.00  0.00    +0.122 C 
ATOM     22  C   UNL     1      22.191   6.028 -21.396  0.00  0.00    +0.088 C 
ATOM     23  C   UNL     1      21.553   5.764 -25.590  0.00  0.00    +0.091 A 
BRANCH  15  17
ATOM     17  C   UNL     1      22.563  11.961 -27.462  0.00  0.00    +0.112 C 
BRANCH  17  18
ATOM     18  C   UNL     1      21.711  13.218 -27.756  0.00  0.00    +0.171 C 
BRANCH  18  19
ATOM     19  O   UNL     1      22.438  14.180 -28.566  0.00  0.00    -0.394 OA
ATOM     20  H   UNL     1      23.307  14.480 -28.058  0.00  0.00    +0.209 HD
ENDBRANCH  18  19
ENDBRANCH  17  18
ENDBRANCH  15  17
ENDBRANCH   6   7
BRANCH  24  25
ATOM     25  C   UNL     1      22.350  -0.547 -21.954  0.00  0.00    +0.256 C 
ATOM     26  O   UNL     1      22.422  -0.028 -20.845  0.00  0.00    -0.269 OA
ATOM     27  N   UNL     1      22.497  -1.862 -22.200  0.00  0.00    -0.280 N 
ATOM     28  H   UNL     1      22.483  -2.228 -23.205  0.00  0.00    +0.155 HD
BRANCH  27  29
ATOM     29  C   UNL     1      22.662  -2.711 -21.172  0.00  0.00    +0.055 A 
ATOM     30  C   UNL     1      23.919  -3.221 -20.844  0.00  0.00    +0.062 A 
ATOM     31 CL   UNL     1      25.304  -2.786 -21.773  0.00  0.00    -0.082 Cl
ATOM     32  C   UNL     1      24.088  -4.104 -19.787  0.00  0.00    +0.022 A 
ATOM     33  C   UNL     1      22.982  -4.482 -19.027  0.00  0.00    +0.002 A 
ATOM     34  C   UNL     1      21.726  -3.967 -19.338  0.00  0.00    +0.005 A 
ATOM     35  C   UNL     1      21.548  -3.081 -20.402  0.00  0.00    -0.028 A 
ATOM     36  C   UNL     1      20.123  -2.579 -20.705  0.00  0.00    +0.045 C 
ENDBRANCH  27  29
ENDBRANCH  24  25
TORSDOF 6
