REMARK  Name = 1OPL
REMARK  5 active torsions:
REMARK  status: ('A' for Active; 'I' for Inactive)
REMARK    1  A    between atoms: O_1  and  C_2
REMARK    2  A    between atoms: C_2  and  C_3
REMARK    3  A    between atoms: C_7  and  N_8
REMARK    4  A    between atoms: C_14  and  C_21
REMARK    5  A    between atoms: N_17  and  C_20
REMARK                            x       y       z     vdW  Elec       q    Type
REMARK                         _______ _______ _______ _____ _____    ______ ____
ROOT
ATOM      7  N   UNL     1      22.635  50.929  47.553  0.00  0.00    -0.213 NA
ATOM      8  C   UNL     1      21.851  51.396  48.574  0.00  0.00    +0.230 A 
ATOM      9  N   UNL     1      21.579  50.615  49.655  0.00  0.00    -0.194 NA
ATOM     10  C   UNL     1      20.786  51.113  50.637  0.00  0.00    +0.148 A 
ATOM     11  N   UNL     1      20.486  50.325  51.750  0.00  0.00    -0.295 N 
ATOM     12  C   UNL     1      21.103  48.980  51.847  0.00  0.00    +0.154 C 
ATOM     13  C   UNL     1      19.636  50.801  52.810  0.00  0.00    +0.260 C 
ATOM     14  O   UNL     1      19.431  50.047  53.761  0.00  0.00    -0.267 OA
ATOM     15  C   UNL     1      19.042  52.179  52.640  0.00  0.00    +0.050 C 
ATOM     24  C   UNL     1      19.341  52.937  51.546  0.00  0.00    +0.027 C 
ATOM     25  C   UNL     1      20.197  52.428  50.515  0.00  0.00    +0.034 A 
ATOM     26  C   UNL     1      20.555  53.166  49.351  0.00  0.00    +0.097 A 
ATOM     27  N   UNL     1      21.355  52.675  48.389  0.00  0.00    -0.330 N 
ATOM     28  H   UNL     1      21.598  53.248  47.518  0.00  0.00    +0.168 HD
ENDROOT
BRANCH  15  16
ATOM     16  C   UNL     1      18.148  52.658  53.715  0.00  0.00    +0.024 A 
ATOM     17  C   UNL     1      16.723  52.518  53.586  0.00  0.00    +0.050 A 
ATOM     18 CL   UNL     1      16.052  51.837  52.132  0.00  0.00    -0.083 Cl
ATOM     19  C   UNL     1      15.819  52.951  54.605  0.00  0.00    +0.021 A 
ATOM     20  C   UNL     1      16.358  53.513  55.799  0.00  0.00    +0.003 A 
ATOM     21  C   UNL     1      17.766  53.667  55.954  0.00  0.00    +0.021 A 
ATOM     22  C   UNL     1      18.654  53.227  54.917  0.00  0.00    +0.050 A 
ATOM     23 CL   UNL     1      20.378  53.429  55.130  0.00  0.00    -0.083 Cl
ENDBRANCH  15  16
BRANCH   7   6
ATOM      4  C   UNL     1      24.185  47.982  45.866  0.00  0.00    -0.020 A 
ATOM      5  C   UNL     1      23.604  49.251  46.104  0.00  0.00    +0.033 A 
ATOM      6  C   UNL     1      23.236  49.650  47.432  0.00  0.00    +0.068 A 
ATOM     29  C   UNL     1      23.460  48.751  48.527  0.00  0.00    +0.028 A 
ATOM     30  C   UNL     1      24.048  47.473  48.280  0.00  0.00    +0.002 A 
ATOM     31  C   UNL     1      24.406  47.088  46.972  0.00  0.00    +0.006 A 
BRANCH   4   3
ATOM      3  C   UNL     1      24.565  47.565  44.454  0.00  0.00    +0.191 C 
BRANCH   3   1
ATOM      1  O   UNL     1      23.466  47.155  43.691  0.00  0.00    -0.390 OA
ATOM      2  H   UNL     1      23.006  46.332  44.153  0.00  0.00    +0.210 HD
ENDBRANCH   3   1
ENDBRANCH   4   3
ENDBRANCH   7   6
TORSDOF 4
