REMARK  Name = 5OP2
REMARK  7 active torsions:
REMARK  status: ('A' for Active; 'I' for Inactive)
REMARK    1  A    between atoms: C_2  and  C_11
REMARK    2  A    between atoms: C_3  and  O_7
REMARK    3  A    between atoms: C_6  and  N_10
REMARK    4  A    between atoms: O_7  and  C_8
REMARK    5  A    between atoms: C_8  and  C_9
REMARK    6  A    between atoms: N_12  and  C_14
REMARK    7  A    between atoms: N_27  and  C_30
REMARK                            x       y       z     vdW  Elec       q    Type
REMARK                         _______ _______ _______ _____ _____    ______ ____
ROOT
ATOM      1  C   UNL     1       0.980  -4.625  19.452  0.00  0.00    +0.040 A 
ATOM      2  C   UNL     1      -0.340  -5.061  19.376  0.00  0.00    +0.031 A 
ATOM     10  C   UNL     1      -0.719  -5.877  18.316  0.00  0.00    +0.027 A 
ATOM     11  C   UNL     1       0.285  -6.225  17.385  0.00  0.00    +0.048 A 
ATOM     12  C   UNL     1       1.582  -5.768  17.478  0.00  0.00    +0.133 A 
ATOM     21  C   UNL     1       1.951  -4.948  18.548  0.00  0.00    +0.080 A 
ENDROOT
BRANCH   2   3
ATOM      3  N   UNL     1      -1.266  -4.706  20.442  0.00  0.00    -0.327 N 
ATOM      4  C   UNL     1      -2.631  -5.259  20.469  0.00  0.00    +0.120 C 
ATOM      5  C   UNL     1      -3.530  -4.421  21.340  0.00  0.00    +0.103 C 
ATOM      6  N   UNL     1      -2.926  -4.240  22.673  0.00  0.00    -0.302 NA
ATOM      7  C   UNL     1      -3.844  -3.551  23.602  0.00  0.00    +0.105 C 
ATOM      8  C   UNL     1      -1.718  -3.443  22.562  0.00  0.00    +0.103 C 
ATOM      9  C   UNL     1      -0.678  -4.220  21.721  0.00  0.00    +0.120 C 
ENDBRANCH   2   3
BRANCH  21  22
ATOM     22  C   UNL     1       3.349  -4.443  18.774  0.00  0.00    +0.252 C 
ATOM     23  O   UNL     1       3.532  -3.555  19.604  0.00  0.00    -0.270 OA
ATOM     24  N   UNL     1       4.397  -4.977  18.062  0.00  0.00    -0.280 N 
ATOM     25  H   UNL     1       4.177  -5.908  17.582  0.00  0.00    +0.155 HD
BRANCH  24  26
ATOM     26  C   UNL     1       5.719  -4.507  17.854  0.00  0.00    +0.052 A 
ATOM     27  C   UNL     1       6.535  -5.142  16.903  0.00  0.00    +0.134 A 
ATOM     28  N   UNL     1       7.798  -4.736  16.688  0.00  0.00    -0.261 NA
ATOM     29  C   UNL     1       8.328  -3.661  17.283  0.00  0.00    +0.111 A 
ATOM     30  C   UNL     1       7.557  -3.013  18.240  0.00  0.00    +0.021 A 
ATOM     31  C   UNL     1       6.278  -3.449  18.487  0.00  0.00    +0.026 A 
ENDBRANCH  24  26
ENDBRANCH  21  22
BRANCH  12  13
ATOM     13  O   UNL     1       2.539  -6.103  16.572  0.00  0.00    -0.487 OA
BRANCH  13  14
ATOM     14  C   UNL     1       2.238  -7.036  15.434  0.00  0.00    +0.264 C 
BRANCH  14  15
ATOM     15  C   UNL     1       3.663  -7.344  14.866  0.00  0.00    -0.010 A 
ATOM     16  C   UNL     1       4.413  -8.456  15.271  0.00  0.00    +0.007 A 
ATOM     17  C   UNL     1       5.702  -8.661  14.758  0.00  0.00    +0.000 A 
ATOM     18  C   UNL     1       6.273  -7.783  13.808  0.00  0.00    +0.000 A 
ATOM     19  C   UNL     1       5.505  -6.670  13.417  0.00  0.00    +0.000 A 
ATOM     20  C   UNL     1       4.211  -6.464  13.929  0.00  0.00    +0.007 A 
ENDBRANCH  14  15
ENDBRANCH  13  14
ENDBRANCH  12  13
TORSDOF 6
