REMARK  Name = 3AC3
REMARK  11 active torsions:
REMARK  status: ('A' for Active; 'I' for Inactive)
REMARK    1  A    between atoms: C_2  and  N_26
REMARK    2  A    between atoms: C_4  and  C_24
REMARK    3  A    between atoms: C_7  and  C_10
REMARK    4  A    between atoms: N_13  and  C_14
REMARK    5  A    between atoms: C_16  and  O_22
REMARK    6  A    between atoms: C_18  and  O_20
REMARK    7  A    between atoms: O_20  and  C_21
REMARK    8  A    between atoms: O_22  and  C_23
REMARK    9  A    between atoms: C_24  and  C_25
REMARK   10  A    between atoms: C_30  and  C_31
REMARK   11  A    between atoms: C_31  and  O_32
REMARK                            x       y       z     vdW  Elec       q    Type
REMARK                         _______ _______ _______ _____ _____    ______ ____
ROOT
ATOM      1  N   UNL     1       5.486   0.472  -9.376  0.00  0.00    -0.221 NA
ATOM      2  N   UNL     1       6.692   0.167 -10.061  0.00  0.00    -0.273 N 
ATOM      3  H   UNL     1       7.662   0.597  -9.918  0.00  0.00    +0.189 HD
ATOM      4  C   UNL     1       6.324  -0.801 -10.943  0.00  0.00    +0.162 C 
ATOM      5  N   UNL     1       7.158  -1.410 -11.820  0.00  0.00    -0.228 NA
ATOM     16  C   UNL     1       4.882  -1.114 -10.817  0.00  0.00    +0.124 C 
ATOM     22  C   UNL     1       4.400  -0.217  -9.750  0.00  0.00    +0.170 C 
ATOM     23  N   UNL     1       3.161  -0.083  -9.231  0.00  0.00    -0.232 NA
ATOM     24  C   UNL     1       3.007   0.828  -8.247  0.00  0.00    +0.047 C 
ATOM     27  C   UNL     1       4.109   1.574  -7.822  0.00  0.00    +0.067 C 
ATOM     28  C   UNL     1       5.366   1.388  -8.402  0.00  0.00    +0.125 C 
ENDROOT
BRANCH   5   6
ATOM      6  C   UNL     1       8.481  -1.127 -11.865  0.00  0.00    +0.073 A 
ATOM      7  C   UNL     1       9.242  -1.540 -12.957  0.00  0.00    +0.073 A 
ATOM      8  C   UNL     1      10.605  -1.252 -13.013  0.00  0.00    +0.126 A 
ATOM     11  C   UNL     1      11.208  -0.551 -11.974  0.00  0.00    +0.091 A 
ATOM     12  C   UNL     1      10.455  -0.139 -10.879  0.00  0.00    +0.126 A 
ATOM     15  C   UNL     1       9.092  -0.426 -10.827  0.00  0.00    +0.073 A 
BRANCH   8   9
ATOM      9  O   UNL     1      11.357  -1.654 -14.088  0.00  0.00    -0.495 OA
ATOM     10  C   UNL     1      12.495  -2.495 -13.897  0.00  0.00    +0.277 C 
ENDBRANCH   8   9
BRANCH  12  13
ATOM     13  O   UNL     1      11.056   0.550  -9.855  0.00  0.00    -0.495 OA
ATOM     14  C   UNL     1      12.177  -0.007  -9.167  0.00  0.00    +0.277 C 
ENDBRANCH  12  13
ENDBRANCH   5   6
BRANCH  16  17
ATOM     17  C   UNL     1       3.982  -2.068 -11.523  0.00  0.00    +0.249 C 
ATOM     18  N   UNL     1       2.680  -2.042 -11.250  0.00  0.00    -0.325 N 
ATOM     19  H   UNL     1       2.015  -2.719 -11.745  0.00  0.00    +0.145 HD
ATOM     20  H   UNL     1       2.297  -1.345 -10.534  0.00  0.00    +0.145 HD
ATOM     21  O   UNL     1       4.450  -2.848 -12.332  0.00  0.00    -0.270 OA
ENDBRANCH  16  17
BRANCH  28  29
ATOM     29  N   UNL     1       6.459   2.148  -7.947  0.00  0.00    -0.310 NA
ATOM     30  C   UNL     1       7.528   2.641  -8.814  0.00  0.00    +0.100 C 
ATOM     34  C   UNL     1       8.637   3.031  -7.843  0.00  0.00    +0.026 C 
ATOM     35  C   UNL     1       8.050   3.017  -6.441  0.00  0.00    +0.021 C 
ATOM     36  C   UNL     1       6.618   2.507  -6.541  0.00  0.00    +0.107 C 
BRANCH  30  31
ATOM     31  C   UNL     1       6.971   3.894  -9.482  0.00  0.00    +0.178 C 
BRANCH  31  32
ATOM     32  O   UNL     1       7.860   5.001  -9.276  0.00  0.00    -0.393 OA
ATOM     33  H   UNL     1       7.966   5.179  -8.247  0.00  0.00    +0.209 HD
ENDBRANCH  31  32
ENDBRANCH  30  31
ENDBRANCH  28  29
BRANCH  24  25
ATOM     25  C   UNL     1       1.648   1.040  -7.615  0.00  0.00    +0.052 C 
ATOM     26  C   UNL     1       0.872  -0.261  -7.577  0.00  0.00    +0.010 C 
ENDBRANCH  24  25
TORSDOF 8
