REMARK  Name = B96
REMARK  8 active torsions:
REMARK  status: ('A' for Active; 'I' for Inactive)
REMARK    1  A    between atoms: N2_3  and  C3_4
REMARK    2  A    between atoms: C6_7  and  O41_31
REMARK    3  A    between atoms: N9_14  and  C10_15
REMARK    4  A    between atoms: C13_17  and  C16_24
REMARK    5  A    between atoms: N11_19  and  C15_20
REMARK    6  A    between atoms: O41_31  and  C42_32
REMARK    7  A    between atoms: C42_32  and  C43_33
REMARK    8  A    between atoms: C43_33  and  N44_34
REMARK                            x       y       z     vdW  Elec       q    Type
REMARK                         _______ _______ _______ _____ _____    ______ ____
ROOT
ATOM      1  C   UNL     1      31.914  18.787  -3.607  0.00  0.00    +0.349 C 
ATOM      2  N   UNL     1      33.045  19.001  -2.875  0.00  0.00    -0.142 NA
ATOM     19  O   UNL     1      30.985  18.110  -3.192  0.00  0.00    -0.248 OA
ATOM     20  N   UNL     1      31.924  19.403  -4.832  0.00  0.00    -0.161 NA
ENDROOT
BRANCH  20  21
ATOM     21  C   UNL     1      30.922  19.293  -5.834  0.00  0.00    +0.075 A 
ATOM     22  C   UNL     1      29.666  19.868  -5.667  0.00  0.00    +0.020 A 
ATOM     23  C   UNL     1      28.694  19.746  -6.677  0.00  0.00    +0.038 A 
ATOM     24  C   UNL     1      28.984  19.052  -7.848  0.00  0.00    +0.139 A 
ATOM     25  C   UNL     1      30.255  18.465  -8.046  0.00  0.00    +0.035 A 
ATOM     26  C   UNL     1      30.570  17.764  -9.232  0.00  0.00    +0.003 A 
ATOM     27  C   UNL     1      31.809  17.205  -9.409  0.00  0.00    +0.000 A 
ATOM     28  C   UNL     1      32.789  17.317  -8.405  0.00  0.00    +0.000 A 
ATOM     29  C   UNL     1      32.513  17.988  -7.246  0.00  0.00    +0.001 A 
ATOM     39  C   UNL     1      31.245  18.580  -7.035  0.00  0.00    +0.018 A 
BRANCH  24  30
ATOM     30  O   UNL     1      28.110  18.876  -8.891  0.00  0.00    -0.474 OA
BRANCH  30  31
ATOM     31  C   UNL     1      26.743  19.319  -8.957  0.00  0.00    +0.223 C 
BRANCH  31  32
ATOM     32  C   UNL     1      25.837  18.173  -8.572  0.00  0.00    +0.120 C 
BRANCH  32  33
ATOM     33  N   UNL     1      25.880  17.045  -9.513  0.00  0.00    -0.265 NA
ATOM     34  C   UNL     1      26.574  15.826  -9.045  0.00  0.00    +0.105 C 
ATOM     35  C   UNL     1      25.625  14.920  -8.312  0.00  0.00    +0.160 C 
ATOM     36  O   UNL     1      24.498  14.595  -9.104  0.00  0.00    -0.351 OA
ATOM     37  C   UNL     1      23.790  15.777  -9.423  0.00  0.00    +0.160 C 
ATOM     38  C   UNL     1      24.632  16.716 -10.232  0.00  0.00    +0.105 C 
ENDBRANCH  32  33
ENDBRANCH  31  32
ENDBRANCH  30  31
ENDBRANCH  24  30
ENDBRANCH  20  21
BRANCH   2   3
ATOM      3  C   UNL     1      33.206  18.734  -1.508  0.00  0.00    +0.159 A 
ATOM      4  N   UNL     1      34.087  19.375  -0.693  0.00  0.00    -0.215 N 
ATOM      5  N   UNL     1      33.997  18.884   0.607  0.00  0.00    -0.168 NA
ATOM      6  C   UNL     1      33.059  17.940   0.550  0.00  0.00    +0.081 A 
ATOM     18  C   UNL     1      32.572  17.836  -0.741  0.00  0.00    +0.053 A 
BRANCH   4  11
ATOM     11  C   UNL     1      34.991  20.440  -0.964  0.00  0.00    +0.084 A 
ATOM     12  C   UNL     1      36.292  20.366  -0.512  0.00  0.00    +0.019 A 
ATOM     13  C   UNL     1      37.159  21.427  -0.733  0.00  0.00    -0.003 A 
ATOM     14  C   UNL     1      36.736  22.576  -1.401  0.00  0.00    -0.022 A 
ATOM     15  C   UNL     1      37.682  23.727  -1.644  0.00  0.00    +0.031 C 
ATOM     16  C   UNL     1      35.409  22.631  -1.830  0.00  0.00    -0.003 A 
ATOM     17  C   UNL     1      34.539  21.574  -1.606  0.00  0.00    +0.019 A 
ENDBRANCH   4  11
BRANCH   6   7
ATOM      7  C   UNL     1      32.664  17.160   1.787  0.00  0.00    +0.037 C 
ATOM      8  C   UNL     1      32.907  18.006   3.037  0.00  0.00    +0.006 C 
ATOM      9  C   UNL     1      33.498  15.877   1.879  0.00  0.00    +0.006 C 
ATOM     10  C   UNL     1      31.176  16.800   1.719  0.00  0.00    +0.006 C 
ENDBRANCH   6   7
ENDBRANCH   2   3
TORSDOF 8
