REMARK  Name = 91X
REMARK  1 active torsions:
REMARK  status: ('A' for Active; 'I' for Inactive)
REMARK    1  A    between atoms: C08_12  and  C09_13
REMARK                            x       y       z     vdW  Elec       q    Type
REMARK                         _______ _______ _______ _____ _____    ______ ____
ROOT
ATOM      1  C   UNL     1      -1.533  -6.709  26.095  0.00  0.00    +0.113 A 
ATOM      2  C   UNL     1      -0.287  -6.261  26.598  0.00  0.00    +0.056 A 
ATOM      3  C   UNL     1       0.631  -7.160  27.178  0.00  0.00    +0.004 A 
ATOM      4  C   UNL     1       0.342  -8.514  27.297  0.00  0.00    -0.006 A 
ATOM      5  C   UNL     1      -0.901  -8.990  26.836  0.00  0.00    -0.014 A 
ATOM     11  C   UNL     1       0.113  -4.836  26.517  0.00  0.00    +0.198 C 
ATOM     12  O   UNL     1       1.212  -4.523  26.969  0.00  0.00    -0.286 OA
ATOM     13  C   UNL     1      -0.729  -3.759  25.906  0.00  0.00    +0.057 A 
ATOM     14  C   UNL     1      -0.204  -2.440  25.888  0.00  0.00    +0.004 A 
ATOM     15  C   UNL     1      -0.947  -1.397  25.351  0.00  0.00    +0.000 A 
ATOM     16  C   UNL     1      -2.199  -1.672  24.824  0.00  0.00    +0.001 A 
ATOM     17  C   UNL     1      -2.697  -2.967  24.848  0.00  0.00    +0.019 A 
ATOM     18  C   UNL     1      -1.988  -4.049  25.379  0.00  0.00    +0.113 A 
ATOM     19  C   UNL     1      -1.801  -8.076  26.246  0.00  0.00    +0.012 A 
ATOM     20  S   UNL     1      -2.696  -5.584  25.393  0.00  0.00    +0.028 S 
ATOM     21  O   UNL     1      -3.731  -5.500  26.338  0.00  0.00    -0.164 OA
ATOM     22  O   UNL     1      -3.082  -5.942  24.075  0.00  0.00    -0.164 OA
ENDROOT
BRANCH   5   6
ATOM      6  C   UNL     1      -1.221 -10.419  26.914  0.00  0.00    +0.044 A 
ATOM      7  N   UNL     1      -2.467 -11.077  27.107  0.00  0.00    -0.289 NA
ATOM      8  N   UNL     1      -2.226 -12.429  27.047  0.00  0.00    -0.218 NA
ATOM      9  N   UNL     1      -0.962 -12.584  26.812  0.00  0.00    -0.218 NA
ATOM     10  N   UNL     1      -0.310 -11.416  26.709  0.00  0.00    -0.289 NA
ENDBRANCH   5   6
TORSDOF 1
