REMARK  Name = 5K7I
REMARK  4 active torsions:
REMARK  status: ('A' for Active; 'I' for Inactive)
REMARK    1  A    between atoms: C_5  and  N_20
REMARK    2  A    between atoms: C_8  and  N_26
REMARK    3  A    between atoms: C_15  and  C_28
REMARK    4  A    between atoms: N_24  and  C_25
REMARK                            x       y       z     vdW  Elec       q    Type
REMARK                         _______ _______ _______ _____ _____    ______ ____
ROOT
ATOM      8  C   UNL     1     -23.116 -38.979 -13.668  0.00  0.00    +0.057 C 
ATOM      9  C   UNL     1     -22.331 -40.288 -13.543  0.00  0.00    +0.021 C 
ATOM     10  C   UNL     1     -20.858 -40.042 -13.204  0.00  0.00    +0.028 C 
ATOM     11  C   UNL     1     -20.724 -39.217 -11.936  0.00  0.00    +0.108 C 
ATOM     29  C   UNL     1     -21.422 -37.868 -12.104  0.00  0.00    +0.028 C 
ATOM     30  C   UNL     1     -22.911 -38.030 -12.475  0.00  0.00    +0.021 C 
ENDROOT
BRANCH   8   7
ATOM      1  C   UNL     1     -26.258 -41.600 -16.343  0.00  0.00    +0.216 C 
ATOM      2  N   UNL     1     -27.011 -41.264 -15.285  0.00  0.00    -0.301 N 
ATOM      3  C   UNL     1     -27.699 -42.251 -14.452  0.00  0.00    +0.132 C 
ATOM      4  C   UNL     1     -27.142 -39.803 -15.046  0.00  0.00    +0.082 C 
ATOM      5  C   UNL     1     -26.947 -39.392 -13.586  0.00  0.00    +0.038 C 
ATOM      6  C   UNL     1     -25.517 -39.290 -13.040  0.00  0.00    +0.086 C 
ATOM      7  N   UNL     1     -24.491 -39.304 -14.101  0.00  0.00    -0.299 NA
ATOM     31  C   UNL     1     -24.964 -38.515 -15.247  0.00  0.00    +0.090 C 
ATOM     32  C   UNL     1     -26.093 -39.210 -16.001  0.00  0.00    +0.032 C 
ATOM     33  O   UNL     1     -26.046 -42.741 -16.725  0.00  0.00    -0.276 OA
ATOM     34  C   UNL     1     -25.739 -40.336 -16.975  0.00  0.00    +0.102 C 
ENDBRANCH   8   7
BRANCH  11  12
ATOM     12  N   UNL     1     -19.319 -39.066 -11.548  0.00  0.00    -0.263 NA
ATOM     13  C   UNL     1     -18.903 -39.012 -10.264  0.00  0.00    +0.139 A 
ATOM     14  N   UNL     1     -19.865 -38.996  -9.307  0.00  0.00    -0.331 N 
ATOM     15  H   UNL     1     -20.900 -39.117  -9.551  0.00  0.00    +0.168 HD
ATOM     16  C   UNL     1     -19.460 -38.822  -8.045  0.00  0.00    +0.200 A 
ATOM     17  N   UNL     1     -18.215 -38.666  -7.583  0.00  0.00    -0.218 NA
ATOM     18  C   UNL     1     -17.265 -38.699  -8.531  0.00  0.00    +0.165 A 
ATOM     19  N   UNL     1     -15.926 -38.561  -8.310  0.00  0.00    -0.235 NA
ATOM     20  C   UNL     1     -15.275 -38.632  -9.509  0.00  0.00    +0.117 A 
ATOM     21  C   UNL     1     -16.164 -38.847 -10.523  0.00  0.00    -0.012 A 
ATOM     28  C   UNL     1     -17.491 -38.882  -9.909  0.00  0.00    +0.066 A 
BRANCH  21  22
ATOM     22  C   UNL     1     -15.852 -38.923 -11.997  0.00  0.00    +0.026 C 
ATOM     23  C   UNL     1     -14.345 -38.652 -12.190  0.00  0.00    +0.036 C 
ATOM     24  C   UNL     1     -13.955 -38.860 -13.635  0.00  0.00    +0.160 C 
ATOM     25  O   UNL     1     -14.309 -40.173 -14.086  0.00  0.00    -0.380 OA
ATOM     26  C   UNL     1     -15.722 -40.364 -14.030  0.00  0.00    +0.160 C 
ATOM     27  C   UNL     1     -16.221 -40.282 -12.609  0.00  0.00    +0.036 C 
ENDBRANCH  21  22
ENDBRANCH  11  12
TORSDOF 3
