REMARK  Name = 2of2_ligand
REMARK  6 active torsions:
REMARK  status: ('A' for Active; 'I' for Inactive)
REMARK    1  A    between atoms: C5_5  and  N34_22
REMARK    2  A    between atoms: C10_8  and  C23_16
REMARK    3  A    between atoms: C11_9  and  C12_10
REMARK    4  A    between atoms: N34_22  and  C35_23
REMARK    5  A    between atoms: C35_23  and  C36_24
REMARK    6  A    between atoms: C36_24  and  N39_25
REMARK                            x       y       z     vdW  Elec       q    Type
REMARK                         _______ _______ _______ _____ _____    ______ ____
ROOT
ATOM      1  C   UNL     1      23.313  35.204  82.692  0.00  0.00    +0.055 A 
ATOM      2  C   UNL     1      22.954  36.298  83.521  0.00  0.00    +0.020 A 
ATOM      3  C   UNL     1      23.976  37.204  83.984  0.00  0.00    +0.057 A 
ATOM     17  C   UNL     1      25.367  36.959  83.592  0.00  0.00    +0.053 A 
ATOM     18  C   UNL     1      26.557  37.628  83.863  0.00  0.00    +0.017 A 
ATOM     25  C   UNL     1      27.572  36.784  83.118  0.00  0.00    +0.140 A 
ATOM     32  O   UNL     1      26.956  35.721  82.487  0.00  0.00    -0.236 OA
ATOM     33  C   UNL     1      25.633  35.839  82.769  0.00  0.00    +0.186 A 
ATOM     34  N   UNL     1      24.611  34.997  82.353  0.00  0.00    -0.293 NA
ENDROOT
BRANCH  18  19
ATOM     19  C   UNL     1      26.712  38.856  84.682  0.00  0.00    -0.032 A 
ATOM     20  C   UNL     1      26.562  38.759  86.120  0.00  0.00    -0.003 A 
ATOM     21  C   UNL     1      26.722  39.928  86.932  0.00  0.00    -0.006 A 
ATOM     22  C   UNL     1      27.037  41.189  86.299  0.00  0.00    -0.008 A 
ATOM     23  C   UNL     1      27.184  41.283  84.865  0.00  0.00    -0.006 A 
ATOM     24  C   UNL     1      27.022  40.112  84.056  0.00  0.00    -0.003 A 
ENDBRANCH  18  19
BRANCH  25  26
ATOM     26  C   UNL     1      29.053  36.992  83.027  0.00  0.00    +0.018 A 
ATOM     27  C   UNL     1      29.764  37.930  83.880  0.00  0.00    +0.011 A 
ATOM     28  C   UNL     1      31.168  38.121  83.763  0.00  0.00    -0.000 A 
ATOM     29  C   UNL     1      31.889  37.371  82.780  0.00  0.00    -0.001 A 
ATOM     30  C   UNL     1      31.205  36.427  81.923  0.00  0.00    -0.000 A 
ATOM     31  C   UNL     1      29.786  36.242  82.045  0.00  0.00    +0.011 A 
ENDBRANCH  25  26
BRANCH   3   4
ATOM      4  N   UNL     1      23.670  38.280  84.791  0.00  0.00    -0.310 N 
ATOM      5  H   UNL     1      24.437  38.891  85.105  0.00  0.00    +0.182 HD
BRANCH   4   6
ATOM      6  C   UNL     1      22.313  38.593  85.220  0.00  0.00    +0.182 C 
BRANCH   6   7
ATOM      7  C   UNL     1      22.246  39.834  86.115  0.00  0.00    +0.156 C 
BRANCH   7   8
ATOM      8  N   UNL     1      23.026  41.002  85.634  0.00  0.00    +0.244 N 
ATOM      9  H   UNL     1      23.913  40.700  85.262  0.00  0.00    +0.204 HD
ATOM     10  C   UNL     1      22.274  41.739  84.580  0.00  0.00    +0.183 C 
ATOM     11  C   UNL     1      23.098  42.970  84.144  0.00  0.00    +0.181 C 
ATOM     12  N   UNL     1      23.311  43.845  85.340  0.00  0.00    +0.234 N 
ATOM     13  H   UNL     1      22.414  44.147  85.687  0.00  0.00    +0.202 HD
ATOM     14  H   UNL     1      23.853  44.649  85.064  0.00  0.00    +0.202 HD
ATOM     15  C   UNL     1      24.034  43.127  86.431  0.00  0.00    +0.181 C 
ATOM     16  C   UNL     1      23.234  41.871  86.824  0.00  0.00    +0.183 C 
ENDBRANCH   7   8
ENDBRANCH   6   7
ENDBRANCH   4   6
ENDBRANCH   3   4
TORSDOF 6
