REMARK  Name = 3d14_ligand
REMARK  6 active torsions:
REMARK  status: ('A' for Active; 'I' for Inactive)
REMARK    1  A    between atoms: C27_2  and  C12_7
REMARK    2  A    between atoms: C23_3  and  C18_26
REMARK    3  A    between atoms: C15_6  and  N22_29
REMARK    4  A    between atoms: C12_7  and  C11_9
REMARK    5  A    between atoms: C11_9  and  N10_21
REMARK    6  A    between atoms: C9_10  and  N10_21
REMARK                            x       y       z     vdW  Elec       q    Type
REMARK                         _______ _______ _______ _____ _____    ______ ____
ROOT
ATOM      1  C   UNL     1      -9.059  27.557  76.628  0.00  0.00    -0.017 A 
ATOM      2  N   UNL     1      -9.725  26.536  76.238  0.00  0.00    -0.339 NA
ATOM      3  C   UNL     1      -9.961  25.687  77.236  0.00  0.00    +0.199 A 
ATOM      4  N   UNL     1     -10.687  24.572  77.043  0.00  0.00    -0.179 N 
ATOM      5  H   UNL     1     -11.045  24.412  76.123  0.00  0.00    +0.239 HD
ATOM      6  C   UNL     1     -10.970  23.659  77.979  0.00  0.00    +0.327 C 
ATOM      7  O   UNL     1     -10.541  23.765  79.123  0.00  0.00    -0.377 OA
ATOM      8  N   UNL     1     -11.735  22.624  77.593  0.00  0.00    -0.207 N 
ATOM      9  H   UNL     1     -11.937  22.544  76.617  0.00  0.00    +0.227 HD
ATOM     20  S   UNL     1      -9.302  26.184  78.584  0.00  0.00    +0.018 S 
ATOM     21  C   UNL     1      -8.738  27.502  77.938  0.00  0.00    +0.014 A 
ENDROOT
BRANCH   8  10
ATOM     10  C   UNL     1     -12.257  21.679  78.414  0.00  0.00    +0.096 A 
ATOM     11  C   UNL     1     -12.125  21.759  79.805  0.00  0.00    +0.064 A 
ATOM     12  C   UNL     1     -12.673  20.777  80.627  0.00  0.00    +0.023 A 
ATOM     13  C   UNL     1     -13.361  19.704  80.068  0.00  0.00    +0.029 A 
ATOM     14  C   UNL     1     -13.503  19.611  78.687  0.00  0.00    +0.033 A 
ATOM     19  C   UNL     1     -12.955  20.597  77.859  0.00  0.00    +0.058 A 
BRANCH  14  15
ATOM     15  C   UNL     1     -14.261  18.446  78.112  0.00  0.00    +0.373 C 
ATOM     16  F   UNL     1     -15.339  18.221  78.832  0.00  0.00    -0.221 F 
ATOM     17  F   UNL     1     -13.509  17.365  78.136  0.00  0.00    -0.221 F 
ATOM     18  F   UNL     1     -14.625  18.703  76.870  0.00  0.00    -0.221 F 
ENDBRANCH  14  15
ENDBRANCH   8  10
BRANCH  21  22
ATOM     22  C   UNL     1      -7.954  28.594  78.672  0.00  0.00    +0.092 C 
BRANCH  22  23
ATOM     23  C   UNL     1      -6.675  28.064  79.330  0.00  0.00    +0.146 C 
BRANCH  23  24
ATOM     24  N   UNL     1      -5.980  29.124  80.099  0.00  0.00    -0.300 N 
ATOM     25  H   UNL     1      -6.163  29.161  81.112  0.00  0.00    +0.184 HD
BRANCH  24  26
ATOM     26  C   UNL     1      -5.137  30.038  79.603  0.00  0.00    +0.141 A 
ATOM     27  N   UNL     1      -4.935  30.015  78.275  0.00  0.00    -0.266 NA
ATOM     28  C   UNL     1      -4.061  30.959  77.586  0.00  0.00    +0.155 A 
ATOM     29  N   UNL     1      -3.478  31.880  78.541  0.00  0.00    -0.301 NA
ATOM     30  C   UNL     1      -3.699  31.879  79.857  0.00  0.00    +0.042 A 
ATOM     31  C   UNL     1      -3.195  32.703  80.674  0.00  0.00    +0.006 A 
ATOM     32  C   UNL     1      -3.577  32.506  81.877  0.00  0.00    +0.098 A 
ATOM     33  S   UNL     1      -4.621  31.209  82.052  0.00  0.00    -0.021 S 
ATOM     34  C   UNL     1      -4.524  30.978  80.386  0.00  0.00    +0.106 A 
ENDBRANCH  24  26
ENDBRANCH  23  24
ENDBRANCH  22  23
ENDBRANCH  21  22
TORSDOF 6
