REMARK  Name = 2wpa_ligand
REMARK  8 active torsions:
REMARK  status: ('A' for Active; 'I' for Inactive)
REMARK    1  A    between atoms: C25_2  and  C14_3
REMARK    2  A    between atoms: N17_6  and  C18_7
REMARK    3  A    between atoms: C21_12  and  C22_13
REMARK    4  A    between atoms: C21_12  and  C23_14
REMARK    5  A    between atoms: C8_21  and  C9_23
REMARK    6  A    between atoms: C9_23  and  C10_24
REMARK    7  A    between atoms: C10_24  and  C12_25
REMARK    8  A    between atoms: C10_24  and  C11_26
REMARK                            x       y       z     vdW  Elec       q    Type
REMARK                         _______ _______ _______ _____ _____    ______ ____
ROOT
ATOM      1  O   UNL     1     -15.988 206.354 114.088  0.00  0.00    -0.398 OA
ATOM      2  C   UNL     1     -14.907 206.876 114.370  0.00  0.00    +0.172 C 
ATOM      3  N   UNL     1     -14.006 207.312 113.369  0.00  0.00    -0.300 N 
ATOM      4  C   UNL     1     -14.295 207.169 111.889  0.00  0.00    +0.043 C 
ATOM      5  C   UNL     1     -13.044 207.803 111.354  0.00  0.00    +0.070 A 
ATOM      6  C   UNL     1     -12.217 208.220 112.333  0.00  0.00    +0.071 A 
ATOM      7  C   UNL     1     -11.116 208.814 111.590  0.00  0.00    +0.191 A 
ATOM      8  N   UNL     1     -10.044 209.435 112.184  0.00  0.00    -0.222 N 
ATOM      9  H   UNL     1      -9.788 210.333 111.772  0.00  0.00    +0.221 HD
ATOM     10  C   UNL     1      -9.272 209.049 113.227  0.00  0.00    +0.200 C 
ATOM     15  O   UNL     1      -9.391 208.015 113.827  0.00  0.00    -0.387 OA
ATOM     16  N   UNL     1     -11.316 208.718 110.309  0.00  0.00    -0.150 NA
ATOM     17  N   UNL     1     -12.544 208.071 110.119  0.00  0.00    -0.214 N 
ATOM     18  H   UNL     1     -12.980 207.844 109.225  0.00  0.00    +0.251 HD
ATOM     19  C   UNL     1     -14.430 205.692 111.512  0.00  0.00    -0.047 C 
ATOM     20  C   UNL     1     -15.502 207.922 111.396  0.00  0.00    -0.047 C 
ATOM     21  C   UNL     1     -12.728 207.950 113.664  0.00  0.00    +0.221 C 
ENDROOT
BRANCH   2  22
ATOM     22  C   UNL     1     -14.491 207.077 115.864  0.00  0.00    +0.098 C 
ATOM     23  C   UNL     1     -15.239 206.137 116.846  0.00  0.00    +0.003 C 
ATOM     24  C   UNL     1     -14.805 206.344 118.302  0.00  0.00    -0.108 C 
ATOM     25  N   UNL     1     -15.101 207.761 118.796  0.00  0.00    +0.401 NA
ATOM     26  C   UNL     1     -14.717 208.027 120.137  0.00  0.00    -0.131 C 
ATOM     27  C   UNL     1     -14.407 208.846 117.808  0.00  0.00    -0.108 C 
ATOM     28  C   UNL     1     -14.815 208.547 116.330  0.00  0.00    +0.003 C 
ENDBRANCH   2  22
BRANCH  10  11
ATOM     11  C   UNL     1      -8.297 210.129 113.676  0.00  0.00    +0.146 C 
BRANCH  11  12
ATOM     12  C   UNL     1      -7.395 209.908 114.880  0.00  0.00    +0.003 C 
ATOM     13  C   UNL     1      -6.664 211.169 115.202  0.00  0.00    +0.010 C 
ATOM     14  C   UNL     1      -6.327 208.919 114.483  0.00  0.00    +0.010 C 
ENDBRANCH  11  12
ENDBRANCH  10  11
TORSDOF 3
