REMARK  Name = 4a9s_ligand
REMARK  5 active torsions:
REMARK  status: ('A' for Active; 'I' for Inactive)
REMARK    1  A    between atoms: C1_1  and  C2_4
REMARK    2  A    between atoms: O1_3  and  C12_16
REMARK    3  A    between atoms: O1_3  and  C15_19
REMARK    4  A    between atoms: C5_9  and  C9_13
REMARK    5  A    between atoms: C19_23  and  OAC_26
REMARK                            x       y       z     vdW  Elec       q    Type
REMARK                         _______ _______ _______ _____ _____    ______ ____
ROOT
ATOM      3  C   UNL     1      34.955 -33.593  11.229  0.00  0.00    +0.035 A 
ATOM      4  C   UNL     1      34.830 -34.916  10.487  0.00  0.00    +0.003 A 
ATOM      5  C   UNL     1      35.410 -35.065   9.319  0.00  0.00    +0.021 A 
ATOM      6  C   UNL     1      36.208 -33.914   8.706  0.00  0.00    +0.085 A 
ATOM      7  N   UNL     1      36.961 -33.798   7.419  0.00  0.00    -0.249 N 
ATOM      8  H   UNL     1      37.051 -34.526   6.711  0.00  0.00    +0.231 HD
ATOM      9  C   UNL     1      37.475 -32.622   7.360  0.00  0.00    +0.135 A 
ATOM     25  N   UNL     1      37.097 -31.920   8.546  0.00  0.00    -0.308 NA
ATOM     26  C   UNL     1      36.319 -32.773   9.342  0.00  0.00    +0.036 A 
ATOM     27  C   UNL     1      35.643 -32.600  10.703  0.00  0.00    +0.020 A 
ENDROOT
BRANCH   9  10
ATOM     10  C   UNL     1      38.314 -32.101   6.196  0.00  0.00    +0.025 A 
ATOM     11  C   UNL     1      39.160 -31.101   6.348  0.00  0.00    +0.014 A 
ATOM     12  C   UNL     1      39.989 -30.619   5.156  0.00  0.00    +0.035 A 
ATOM     13  C   UNL     1      39.860 -31.207   3.982  0.00  0.00    +0.122 A 
ATOM     14  C   UNL     1      38.881 -32.367   3.817  0.00  0.00    +0.035 A 
ATOM     24  C   UNL     1      38.169 -32.781   4.839  0.00  0.00    +0.014 A 
BRANCH  13  15
ATOM     15  O   UNL     1      40.602 -30.775   2.874  0.00  0.00    -0.257 OA
BRANCH  15  16
ATOM     16  C   UNL     1      41.219 -31.871   2.255  0.00  0.00    +0.109 A 
ATOM     17  C   UNL     1      40.619 -32.492   1.260  0.00  0.00    +0.047 A 
ATOM     18  C   UNL     1      41.291 -33.689   0.591  0.00  0.00    +0.080 A 
ATOM     21  C   UNL     1      42.471 -34.101   1.004  0.00  0.00    +0.002 A 
ATOM     22  C   UNL     1      43.169 -33.381   2.156  0.00  0.00    -0.021 A 
ATOM     23  C   UNL     1      42.589 -32.350   2.733  0.00  0.00    +0.007 A 
BRANCH  18  19
ATOM     19  O   UNL     1      40.650 -34.355  -0.459  0.00  0.00    -0.336 OA
ATOM     20  H   UNL     1      41.204 -35.078  -0.764  0.00  0.00    +0.248 HD
ENDBRANCH  18  19
ENDBRANCH  15  16
ENDBRANCH  13  15
ENDBRANCH   9  10
BRANCH   3   1
ATOM      1  C   UNL     1      34.294 -33.443  12.597  0.00  0.00    +0.194 C 
ATOM      2  O   UNL     1      33.443 -34.203  12.925  0.00  0.00    -0.389 OA
ATOM     28  N   UNL     1      34.815 -32.480  13.550  0.00  0.00    -0.301 N 
ATOM     29  H   UNL     1      35.546 -31.827  13.268  0.00  0.00    +0.181 HD
ATOM     30  H   UNL     1      34.450 -32.456  14.502  0.00  0.00    +0.181 HD
ENDBRANCH   3   1
TORSDOF 5
