REMARK  Name = 84U
REMARK  4 active torsions:
REMARK  status: ('A' for Active; 'I' for Inactive)
REMARK    1  A    between atoms: C19_11  and  C26_16
REMARK    2  A    between atoms: C31_19  and  N37_23
REMARK    3  A    between atoms: N37_23  and  C39_24
REMARK    4  A    between atoms: C39_24  and  C42_25
REMARK                            x       y       z     vdW  Elec       q    Type
REMARK                         _______ _______ _______ _____ _____    ______ ____
ROOT
ATOM     14  C   UNL     1      30.181  44.655  39.504  0.00  0.00    +0.040 A 
ATOM     15  C   UNL     1      29.143  43.714  39.689  0.00  0.00    +0.045 A 
ATOM     16  C   UNL     1      28.740  42.879  38.635  0.00  0.00    +0.197 A 
ATOM     17  O   UNL     1      27.730  41.989  38.880  0.00  0.00    -0.286 OA
ATOM     18  C   UNL     1      29.349  42.951  37.372  0.00  0.00    +0.058 A 
ATOM     19  C   UNL     1      30.390  43.865  37.142  0.00  0.00    +0.069 A 
ATOM     29  C   UNL     1      30.765  44.688  38.220  0.00  0.00    +0.019 A 
ENDROOT
BRANCH  14  13
ATOM      1  O   UNL     1      28.250  45.858  46.381  0.00  0.00    -0.350 OA
ATOM      2  C   UNL     1      29.455  46.625  46.351  0.00  0.00    +0.164 C 
ATOM      3  C   UNL     1      29.575  47.362  45.021  0.00  0.00    +0.124 C 
ATOM      4  N   UNL     1      29.586  46.375  43.939  0.00  0.00    -0.288 N 
ATOM      5  C   UNL     1      28.408  45.481  43.974  0.00  0.00    +0.124 C 
ATOM      6  C   UNL     1      30.366  46.459  42.775  0.00  0.00    +0.141 A 
ATOM      7  C   UNL     1      31.505  47.294  42.501  0.00  0.00    +0.079 A 
ATOM      8  S   UNL     1      32.353  48.489  43.430  0.00  0.00    -0.082 S 
ATOM      9  C   UNL     1      33.480  48.837  42.207  0.00  0.00    +0.037 A 
ATOM     10  C   UNL     1      33.254  48.081  41.090  0.00  0.00    +0.027 A 
ATOM     11  C   UNL     1      32.138  47.205  41.247  0.00  0.00    +0.092 A 
ATOM     12  N   UNL     1      31.728  46.360  40.269  0.00  0.00    -0.226 NA
ATOM     13  C   UNL     1      30.669  45.586  40.551  0.00  0.00    +0.164 A 
ATOM     30  N   UNL     1      30.014  45.631  41.727  0.00  0.00    -0.211 NA
ATOM     31  C   UNL     1      28.232  44.859  45.355  0.00  0.00    +0.164 C 
ENDBRANCH  14  13
BRANCH  19  20
ATOM     20  N   UNL     1      31.073  44.032  35.940  0.00  0.00    -0.233 NA
BRANCH  20  21
ATOM     21  C   UNL     1      31.032  45.255  35.162  0.00  0.00    +0.139 C 
BRANCH  21  22
ATOM     22  C   UNL     1      31.929  46.412  35.598  0.00  0.00    -0.001 A 
ATOM     23  C   UNL     1      31.509  47.372  36.556  0.00  0.00    -0.000 A 
ATOM     24  C   UNL     1      32.339  48.430  36.953  0.00  0.00    +0.029 A 
ATOM     25  C   UNL     1      33.605  48.558  36.380  0.00  0.00    +0.140 A 
ATOM     26  F   UNL     1      34.397  49.573  36.754  0.00  0.00    -0.204 F 
ATOM     27  C   UNL     1      34.046  47.637  35.422  0.00  0.00    +0.029 A 
ATOM     28  C   UNL     1      33.212  46.573  35.032  0.00  0.00    -0.000 A 
ENDBRANCH  21  22
ENDBRANCH  20  21
ENDBRANCH  19  20
TORSDOF 4
