REMARK  Name = 4QP4
REMARK  1 active torsions:
REMARK  status: ('A' for Active; 'I' for Inactive)
REMARK    1  A    between atoms: N_13  and  C_14
REMARK                            x       y       z     vdW  Elec       q    Type
REMARK                         _______ _______ _______ _____ _____    ______ ____
ROOT
ATOM      1  C   UNL     1      14.221 -10.433   2.016  0.00  0.00    +0.183 A 
ATOM      2  N   UNL     1      14.649 -11.239   2.983  0.00  0.00    -0.214 NA
ATOM      3  C   UNL     1      15.656 -12.062   2.777  0.00  0.00    +0.225 A 
ATOM      4  N   UNL     1      16.285 -12.129   1.618  0.00  0.00    -0.219 NA
ATOM      5  C   UNL     1      15.929 -11.360   0.594  0.00  0.00    +0.148 A 
ATOM      6  N   UNL     1      16.593 -11.430  -0.617  0.00  0.00    -0.325 N 
ATOM      7  H   UNL     1      16.118 -11.086  -1.512  0.00  0.00    +0.148 HD
ATOM     14  N   UNL     1      13.233  -9.488   1.906  0.00  0.00    -0.216 NA
ATOM     15  C   UNL     1      13.292  -8.989   0.641  0.00  0.00    +0.199 A 
ATOM     16  N   UNL     1      14.245  -9.563  -0.031  0.00  0.00    -0.340 N 
ATOM     17  H   UNL     1      14.501  -9.354  -1.049  0.00  0.00    +0.167 HD
ATOM     18  C   UNL     1      14.862 -10.469   0.766  0.00  0.00    +0.125 A 
ENDROOT
BRANCH   6   8
ATOM      8  C   UNL     1      17.950 -11.978  -0.669  0.00  0.00    +0.072 C 
ATOM      9  C   UNL     1      18.919 -10.974  -0.043  0.00  0.00    +0.022 C 
ATOM     10  C   UNL     1      20.335 -11.548  -0.074  0.00  0.00    +0.002 C 
ATOM     11  C   UNL     1      20.741 -11.823  -1.524  0.00  0.00    +0.000 C 
ATOM     12  C   UNL     1      19.763 -12.814  -2.154  0.00  0.00    +0.002 C 
ATOM     13  C   UNL     1      18.352 -12.224  -2.122  0.00  0.00    +0.022 C 
ENDBRANCH   6   8
TORSDOF 1
