REMARK  Name = 4kiq_ligand
REMARK  8 active torsions:
REMARK  status: ('A' for Active; 'I' for Inactive)
REMARK    1  A    between atoms: C1_1  and  C7_28
REMARK    2  A    between atoms: N10_2  and  C11_3
REMARK    3  A    between atoms: N14_6  and  C2_11
REMARK    4  A    between atoms: C16_7  and  C18_9
REMARK    5  A    between atoms: C27_19  and  O29_21
REMARK    6  A    between atoms: O29_21  and  C30_23
REMARK    7  A    between atoms: C30_23  and  C31_24
REMARK    8  A    between atoms: C4_25  and  C8_29
REMARK                            x       y       z     vdW  Elec       q    Type
REMARK                         _______ _______ _______ _____ _____    ______ ____
ROOT
ATOM     15  N   UNL     1      -0.042  -5.397  -4.388  0.00  0.00    -0.237 N 
ATOM     16  H   UNL     1      -0.085  -6.335  -4.733  0.00  0.00    +0.223 HD
ATOM     17  C   UNL     1      -0.569  -5.157  -3.163  0.00  0.00    +0.221 C 
ATOM     32  O   UNL     1      -0.748  -4.022  -2.721  0.00  0.00    -0.379 OA
ENDROOT
BRANCH  17  18
ATOM     18  C   UNL     1      -0.873  -6.367  -2.334  0.00  0.00    +0.039 A 
ATOM     19  C   UNL     1      -0.294  -7.617  -2.572  0.00  0.00    -0.008 A 
ATOM     20  C   UNL     1      -0.555  -8.685  -1.730  0.00  0.00    -0.021 A 
ATOM     21  C   UNL     1      -1.400  -8.531  -0.623  0.00  0.00    -0.024 A 
ATOM     22  C   UNL     1      -1.826  -9.397   0.439  0.00  0.00    -0.037 A 
ATOM     23  C   UNL     1      -2.621  -8.674   1.264  0.00  0.00    +0.155 A 
ATOM     24  N   UNL     1      -2.741  -7.371   0.793  0.00  0.00    -0.149 N 
ATOM     25  C   UNL     1      -3.544  -6.382   1.435  0.00  0.00    +0.399 C 
ATOM     29  O   UNL     1      -4.113  -6.578   2.478  0.00  0.00    -0.344 OA
ATOM     30  C   UNL     1      -1.983  -7.271  -0.386  0.00  0.00    +0.104 A 
ATOM     31  C   UNL     1      -1.722  -6.201  -1.240  0.00  0.00    +0.042 A 
BRANCH  25  26
ATOM     26  O   UNL     1      -3.586  -5.228   0.760  0.00  0.00    -0.250 OA
BRANCH  26  27
ATOM     27  C   UNL     1      -4.235  -4.101   1.425  0.00  0.00    +0.198 C 
ATOM     28  C   UNL     1      -3.886  -2.926   0.643  0.00  0.00    +0.039 C 
ENDBRANCH  26  27
ENDBRANCH  25  26
ENDBRANCH  17  18
BRANCH  15  14
ATOM      1  C   UNL     1       0.002  -4.113  -6.474  0.00  0.00    -0.019 A 
ATOM      2  C   UNL     1      -1.252  -4.783  -6.968  0.00  0.00    +0.079 C 
ATOM      3  C   UNL     1       0.632  -3.125  -7.236  0.00  0.00    -0.015 A 
ATOM      4  C   UNL     1       1.762  -2.466  -6.782  0.00  0.00    -0.011 A 
ATOM      5  C   UNL     1       2.313  -2.792  -5.543  0.00  0.00    +0.029 A 
ATOM     13  C   UNL     1       1.696  -3.762  -4.758  0.00  0.00    +0.025 A 
ATOM     14  C   UNL     1       0.564  -4.425  -5.216  0.00  0.00    +0.074 A 
BRANCH   5   6
ATOM      6  C   UNL     1       3.591  -2.251  -4.993  0.00  0.00    +0.197 C 
ATOM      7  O   UNL     1       4.123  -2.779  -4.020  0.00  0.00    -0.388 OA
ATOM      8  N   UNL     1       4.097  -1.162  -5.596  0.00  0.00    -0.277 N 
ATOM      9  H   UNL     1       3.625  -0.798  -6.399  0.00  0.00    +0.185 HD
BRANCH   8  10
ATOM     10  C   UNL     1       5.306  -0.485  -5.131  0.00  0.00    +0.143 C 
ATOM     11  C   UNL     1       6.603  -1.096  -5.447  0.00  0.00    +0.003 C 
ATOM     12  C   UNL     1       6.186   0.143  -6.132  0.00  0.00    +0.003 C 
ENDBRANCH   8  10
ENDBRANCH   5   6
ENDBRANCH  15  14
TORSDOF 6
