REMARK  Name = 5EHY
REMARK  2 active torsions:
REMARK  status: ('A' for Active; 'I' for Inactive)
REMARK    1  A    between atoms: C_4  and  C_5
REMARK    2  A    between atoms: C_19  and  C_20
REMARK                            x       y       z     vdW  Elec       q    Type
REMARK                         _______ _______ _______ _____ _____    ______ ____
ROOT
ATOM      1  C   UNL     1      37.908 125.771 133.800  0.00  0.00    +0.047 A 
ATOM      2  C   UNL     1      38.669 126.541 132.947  0.00  0.00    +0.113 A 
ATOM      3  N   UNL     1      38.561 126.510 131.612  0.00  0.00    -0.254 NA
ATOM      4  C   UNL     1      37.659 125.681 131.062  0.00  0.00    +0.085 A 
ATOM     10  C   UNL     1      36.805 124.864 131.832  0.00  0.00    +0.053 A 
ATOM     11  C   UNL     1      35.747 123.922 131.640  0.00  0.00    +0.102 A 
ATOM     18  N   UNL     1      35.328 123.447 132.810  0.00  0.00    -0.173 NA
ATOM     19  N   UNL     1      36.072 124.063 133.767  0.00  0.00    -0.276 N 
ATOM     20  H   UNL     1      35.964 123.887 134.817  0.00  0.00    +0.189 HD
ATOM     21  C   UNL     1      36.967 124.927 133.229  0.00  0.00    +0.070 A 
ENDROOT
BRANCH  11  12
ATOM     12  C   UNL     1      35.064 123.487 130.390  0.00  0.00    +0.003 A 
ATOM     13  C   UNL     1      34.574 122.192 130.264  0.00  0.00    +0.010 A 
ATOM     14  C   UNL     1      33.888 121.810 129.126  0.00  0.00    +0.001 A 
ATOM     15  C   UNL     1      33.685 122.709 128.102  0.00  0.00    +0.000 A 
ATOM     16  C   UNL     1      34.172 123.992 128.212  0.00  0.00    +0.001 A 
ATOM     17  C   UNL     1      34.859 124.383 129.347  0.00  0.00    +0.010 A 
ENDBRANCH  11  12
BRANCH   4   5
ATOM      5  C   UNL     1      37.697 125.643 129.614  0.00  0.00    +0.039 A 
ATOM      6  C   UNL     1      37.783 124.553 128.825  0.00  0.00    +0.204 A 
ATOM      7  O   UNL     1      37.849 124.910 127.511  0.00  0.00    -0.470 OA
ATOM      8  C   UNL     1      37.798 126.270 127.489  0.00  0.00    +0.195 A 
ATOM      9  C   UNL     1      37.703 126.753 128.729  0.00  0.00    +0.051 A 
ENDBRANCH   4   5
TORSDOF 2
