REMARK  Name = 4NZW
REMARK  12 active torsions:
REMARK  status: ('A' for Active; 'I' for Inactive)
REMARK    1  A    between atoms: C_1  and  C_2
REMARK    2  A    between atoms: C_2  and  N_3
REMARK    3  A    between atoms: N_3  and  C_4
REMARK    4  A    between atoms: N_3  and  C_6
REMARK    5  A    between atoms: C_4  and  C_5
REMARK    6  A    between atoms: C_6  and  C_7
REMARK    7  A    between atoms: C_7  and  N_8
REMARK    8  A    between atoms: C_9  and  C_11
REMARK    9  A    between atoms: C_12  and  C_13
REMARK   10  A    between atoms: C_14  and  C_15
REMARK   11  A    between atoms: C_17  and  C_18
REMARK   12  A    between atoms: C_18  and  C_19
REMARK                            x       y       z     vdW  Elec       q    Type
REMARK                         _______ _______ _______ _____ _____    ______ ____
ROOT
ATOM      9  C   UNL     1     -43.298 -50.984 -30.505  0.00  0.00    +0.062 A 
ATOM     10  C   UNL     1     -43.634 -50.466 -29.155  0.00  0.00    +0.051 A 
ATOM     11  N   UNL     1     -42.956 -49.308 -28.975  0.00  0.00    -0.255 NA
ATOM     12  C   UNL     1     -42.205 -49.049 -30.064  0.00  0.00    +0.050 A 
ATOM     25  C   UNL     1     -44.581 -51.118 -28.183  0.00  0.00    +0.066 C 
ATOM     26  C   UNL     1     -42.343 -50.058 -31.141  0.00  0.00    -0.015 A 
ATOM     27  C   UNL     1     -41.691 -50.124 -32.497  0.00  0.00    +0.046 C 
ENDROOT
BRANCH   9   8
ATOM      6  N   UNL     1     -44.407 -52.147 -32.285  0.00  0.00    -0.310 N 
ATOM      7  H   UNL     1     -43.799 -52.226 -33.162  0.00  0.00    +0.149 HD
ATOM      8  C   UNL     1     -43.833 -52.235 -31.095  0.00  0.00    +0.246 C 
ATOM     28  O   UNL     1     -43.722 -53.294 -30.499  0.00  0.00    -0.270 OA
BRANCH   6   5
ATOM      5  C   UNL     1     -45.836 -51.947 -32.435  0.00  0.00    +0.120 C 
BRANCH   5   4
ATOM      4  C   UNL     1     -46.308 -52.787 -33.614  0.00  0.00    +0.103 C 
BRANCH   4   3
ATOM      3  N   UNL     1     -46.923 -54.060 -33.205  0.00  0.00    -0.301 NA
BRANCH   3   2
ATOM      1  C   UNL     1     -47.990 -55.284 -31.393  0.00  0.00    +0.020 C 
ATOM      2  C   UNL     1     -47.001 -54.191 -31.743  0.00  0.00    +0.081 C 
ENDBRANCH   3   2
BRANCH   3  29
ATOM     29  C   UNL     1     -46.135 -55.192 -33.723  0.00  0.00    +0.081 C 
ATOM     30  C   UNL     1     -44.740 -55.229 -33.129  0.00  0.00    +0.020 C 
ENDBRANCH   3  29
ENDBRANCH   4   3
ENDBRANCH   5   4
ENDBRANCH   6   5
ENDBRANCH   9   8
BRANCH  12  13
ATOM     13  C   UNL     1     -41.372 -47.822 -30.096  0.00  0.00    +0.096 C 
BRANCH  13  14
ATOM     14  C   UNL     1     -41.177 -46.965 -28.899  0.00  0.00    +0.031 C 
ATOM     15  C   UNL     1     -41.682 -47.008 -27.515  0.00  0.00    +0.265 C 
ATOM     16  O   UNL     1     -42.459 -47.925 -27.060  0.00  0.00    -0.268 OA
ATOM     17  N   UNL     1     -41.232 -45.979 -26.775  0.00  0.00    -0.176 NA
ATOM     18  C   UNL     1     -40.432 -45.193 -27.556  0.00  0.00    +0.065 A 
ATOM     19  C   UNL     1     -39.718 -44.025 -27.314  0.00  0.00    +0.027 A 
ATOM     20  C   UNL     1     -38.975 -43.439 -28.333  0.00  0.00    +0.022 A 
ATOM     21  C   UNL     1     -38.912 -43.982 -29.616  0.00  0.00    +0.042 A 
ATOM     22 CL   UNL     1     -37.931 -43.168 -30.883  0.00  0.00    -0.084 Cl
ATOM     23  C   UNL     1     -39.597 -45.152 -29.932  0.00  0.00    +0.030 A 
ATOM     24  C   UNL     1     -40.346 -45.752 -28.936  0.00  0.00    +0.008 A 
ENDBRANCH  13  14
ENDBRANCH  12  13
TORSDOF 8
