REMARK  Name = 3OBJ
REMARK  7 active torsions:
REMARK  status: ('A' for Active; 'I' for Inactive)
REMARK    1  A    between atoms: N_3  and  C_4
REMARK    2  A    between atoms: N_11  and  C_12
REMARK    3  A    between atoms: C_14  and  C_21
REMARK    4  A    between atoms: N_16  and  C_17
REMARK    5  A    between atoms: C_18  and  C_21
REMARK    6  A    between atoms: C_19  and  C_21
REMARK    7  A    between atoms: C_20  and  C_21
REMARK                            x       y       z     vdW  Elec       q    Type
REMARK                         _______ _______ _______ _____ _____    ______ ____
ROOT
ATOM      1  C   UNL     1     -18.118   4.921 -18.710  0.00  0.00    +0.309 C 
ATOM      2  N   UNL     1     -17.941   5.923 -17.855  0.00  0.00    -0.254 N 
ATOM      3  H   UNL     1     -18.731   6.183 -17.182  0.00  0.00    +0.158 HD
ATOM     14  N   UNL     1     -19.344   4.409 -18.730  0.00  0.00    -0.269 N 
ATOM     15  H   UNL     1     -20.007   4.810 -17.992  0.00  0.00    +0.156 HD
ATOM     23  O   UNL     1     -17.213   4.534 -19.414  0.00  0.00    -0.252 OA
ENDROOT
BRANCH  14  16
ATOM     16  C   UNL     1     -19.890   3.472 -19.522  0.00  0.00    +0.035 A 
ATOM     17  C   UNL     1     -21.237   3.646 -19.834  0.00  0.00    +0.025 A 
ATOM     18  C   UNL     1     -21.900   2.722 -20.654  0.00  0.00    +0.022 A 
ATOM     19  C   UNL     1     -21.205   1.609 -21.147  0.00  0.00    +0.041 A 
ATOM     20 CL   UNL     1     -22.084   0.416 -22.157  0.00  0.00    -0.084 Cl
ATOM     21  C   UNL     1     -19.845   1.425 -20.829  0.00  0.00    +0.022 A 
ATOM     22  C   UNL     1     -19.180   2.360 -20.003  0.00  0.00    +0.025 A 
ENDBRANCH  14  16
BRANCH   2   4
ATOM      4  C   UNL     1     -16.786   6.620 -17.817  0.00  0.00    +0.124 A 
ATOM      5  N   UNL     1     -16.408   7.000 -16.603  0.00  0.00    -0.253 N 
ATOM      6  C   UNL     1     -16.934   6.865 -15.211  0.00  0.00    +0.174 C 
ATOM      7  N   UNL     1     -15.184   7.675 -16.722  0.00  0.00    -0.174 NA
ATOM      8  C   UNL     1     -14.888   7.665 -18.033  0.00  0.00    +0.070 A 
ATOM     13  C   UNL     1     -15.857   7.030 -18.780  0.00  0.00    +0.069 A 
BRANCH   8   9
ATOM      9  C   UNL     1     -13.647   8.332 -18.603  0.00  0.00    +0.006 C 
ATOM     10  C   UNL     1     -12.532   8.544 -17.559  0.00  0.00    +0.017 C 
ATOM     11  C   UNL     1     -13.076   7.498 -19.735  0.00  0.00    +0.017 C 
ATOM     12  C   UNL     1     -14.060   9.698 -19.137  0.00  0.00    +0.017 C 
ENDBRANCH   8   9
ENDBRANCH   2   4
TORSDOF 3
