REMARK  Name = 2NJ
REMARK  1 active torsions:
REMARK  status: ('A' for Active; 'I' for Inactive)
REMARK    1  A    between atoms: C7_6  and  C10_7
REMARK                            x       y       z     vdW  Elec       q    Type
REMARK                         _______ _______ _______ _____ _____    ______ ____
ROOT
ATOM      1  O   UNL     1      14.769   4.614   0.096  0.00  0.00    -0.275 OA
ATOM      2  C   UNL     1      13.769   5.322   0.201  0.00  0.00    +0.232 C 
ATOM      3  C   UNL     1      13.806   6.644   0.932  0.00  0.00    +0.112 C 
ATOM      4  C   UNL     1      13.271   6.462   2.353  0.00  0.00    +0.124 C 
ATOM     11  N   UNL     1      11.934   5.875   2.309  0.00  0.00    -0.233 NA
ATOM     12  C   UNL     1      11.083   6.059   1.255  0.00  0.00    +0.079 A 
ATOM     13  C   UNL     1       9.857   6.683   1.474  0.00  0.00    +0.017 A 
ATOM     14  C   UNL     1       8.949   6.877   0.435  0.00  0.00    +0.001 A 
ATOM     15  C   UNL     1       9.270   6.460  -0.848  0.00  0.00    +0.001 A 
ATOM     16  C   UNL     1      10.494   5.842  -1.077  0.00  0.00    +0.016 A 
ATOM     17  C   UNL     1      11.401   5.640  -0.034  0.00  0.00    +0.069 A 
ATOM     18  N   UNL     1      12.600   4.948  -0.304  0.00  0.00    -0.256 N 
ATOM     19  C   UNL     1      12.473   3.717  -1.085  0.00  0.00    +0.120 C 
ENDROOT
BRANCH   4   5
ATOM      5  C   UNL     1      13.321   7.772   3.074  0.00  0.00    -0.002 A 
ATOM      6  C   UNL     1      14.383   8.021   3.936  0.00  0.00    -0.003 A 
ATOM      7  C   UNL     1      14.468   9.227   4.625  0.00  0.00    -0.000 A 
ATOM      8  C   UNL     1      13.491  10.201   4.447  0.00  0.00    -0.000 A 
ATOM      9  C   UNL     1      12.434   9.980   3.574  0.00  0.00    -0.000 A 
ATOM     10  C   UNL     1      12.352   8.763   2.891  0.00  0.00    -0.003 A 
ENDBRANCH   4   5
TORSDOF 1
