REMARK  Name = A8H
REMARK  1 active torsions:
REMARK  status: ('A' for Active; 'I' for Inactive)
REMARK    1  A    between atoms: C8_6  and  C4_8
REMARK                            x       y       z     vdW  Elec       q    Type
REMARK                         _______ _______ _______ _____ _____    ______ ____
ROOT
ATOM      6  C   UNL     1     -11.491  13.100 -18.059  0.00  0.00    +0.023 C 
ATOM      7  C   UNL     1     -12.288  12.747 -16.790  0.00  0.00    +0.014 C 
ATOM      8  C   UNL     1     -11.315  12.543 -15.613  0.00  0.00    +0.088 C 
ATOM      9  C   UNL     1     -12.007  12.089 -14.362  0.00  0.00    +0.248 C 
ATOM     10  O   UNL     1     -12.848  12.684 -13.746  0.00  0.00    -0.273 OA
ATOM     11  N   UNL     1     -11.530  10.872 -14.021  0.00  0.00    -0.145 NA
ATOM     12  C   UNL     1     -10.582  10.403 -14.857  0.00  0.00    +0.248 C 
ATOM     13  O   UNL     1     -10.064   9.322 -14.762  0.00  0.00    -0.273 OA
ATOM     14  C   UNL     1     -10.225  11.494 -15.826  0.00  0.00    +0.087 C 
ATOM     15  C   UNL     1      -9.915  11.281 -17.304  0.00  0.00    +0.010 C 
ATOM     16  C   UNL     1     -10.032  12.632 -17.995  0.00  0.00    +0.005 C 
ENDROOT
BRANCH   6   5
ATOM      1  C   UNL     1     -11.951  16.197 -20.230  0.00  0.00    -0.000 A 
ATOM      2  C   UNL     1     -11.943  17.208 -19.297  0.00  0.00    -0.000 A 
ATOM      3  C   UNL     1     -11.787  16.904 -17.963  0.00  0.00    -0.000 A 
ATOM      4  C   UNL     1     -11.646  15.583 -17.561  0.00  0.00    -0.004 A 
ATOM      5  C   UNL     1     -11.644  14.548 -18.488  0.00  0.00    -0.022 A 
ATOM     17  C   UNL     1     -11.798  14.879 -19.827  0.00  0.00    -0.004 A 
ENDBRANCH   6   5
TORSDOF 1
