REMARK  Name = 2dq7_ligand
REMARK  5 active torsions:
REMARK  status: ('A' for Active; 'I' for Inactive)
REMARK    1  A    between atoms: C23_4  and  N4_34
REMARK    2  A    between atoms: C22_5  and  O6_32
REMARK    3  A    between atoms: C21_6  and  C26_7
REMARK    4  A    between atoms: O6_32  and  C27_33
REMARK    5  A    between atoms: N4_34  and  C28_35
REMARK                            x       y       z     vdW  Elec       q    Type
REMARK                         _______ _______ _______ _____ _____    ______ ____
ROOT
ATOM      1  O   UNL     1     -15.011  20.162 -13.935  0.00  0.00    -0.315 OA
ATOM      2  C   UNL     1     -16.316  20.685 -13.726  0.00  0.00    +0.202 C 
ATOM      3  N   UNL     1     -16.939  20.249 -12.446  0.00  0.00    -0.229 N 
ATOM      4  C   UNL     1     -17.820  20.740 -11.537  0.00  0.00    +0.070 A 
ATOM      5  C   UNL     1     -18.421  21.996 -11.517  0.00  0.00    +0.013 A 
ATOM      6  C   UNL     1     -19.391  22.340 -10.546  0.00  0.00    -0.018 A 
ATOM      7  C   UNL     1     -19.765  21.388  -9.573  0.00  0.00    -0.024 A 
ATOM      8  C   UNL     1     -19.200  20.068  -9.585  0.00  0.00    -0.013 A 
ATOM      9  C   UNL     1     -18.256  19.784 -10.593  0.00  0.00    -0.007 A 
ATOM     10  C   UNL     1     -17.461  18.637 -10.924  0.00  0.00    +0.001 A 
ATOM     11  C   UNL     1     -17.436  17.370 -10.258  0.00  0.00    -0.017 A 
ATOM     12  C   UNL     1     -18.112  16.778  -9.044  0.00  0.00    +0.196 C 
ATOM     13  N   UNL     1     -17.547  15.395  -9.042  0.00  0.00    -0.279 N 
ATOM     14  H   UNL     1     -17.800  14.705  -8.364  0.00  0.00    +0.186 HD
ATOM     15  C   UNL     1     -16.651  15.155 -10.052  0.00  0.00    +0.187 C 
ATOM     16  O   UNL     1     -16.010  14.108 -10.217  0.00  0.00    -0.396 OA
ATOM     17  C   UNL     1     -16.614  16.348 -10.792  0.00  0.00    +0.032 A 
ATOM     18  C   UNL     1     -15.873  16.627 -11.985  0.00  0.00    -0.002 A 
ATOM     19  C   UNL     1     -15.000  15.769 -12.717  0.00  0.00    -0.007 A 
ATOM     20  C   UNL     1     -14.565  14.440 -12.574  0.00  0.00    -0.011 A 
ATOM     21  C   UNL     1     -13.665  13.926 -13.558  0.00  0.00    -0.023 A 
ATOM     22  C   UNL     1     -13.237  14.733 -14.638  0.00  0.00    -0.016 A 
ATOM     23  C   UNL     1     -13.673  16.091 -14.772  0.00  0.00    +0.014 A 
ATOM     24  C   UNL     1     -14.565  16.606 -13.800  0.00  0.00    +0.068 A 
ATOM     25  N   UNL     1     -15.108  17.851 -13.735  0.00  0.00    -0.238 N 
ATOM     26  C   UNL     1     -15.919  17.901 -12.654  0.00  0.00    +0.095 A 
ATOM     27  C   UNL     1     -16.745  18.949 -12.113  0.00  0.00    +0.098 A 
ATOM     28  C   UNL     1     -16.052  22.196 -13.544  0.00  0.00    +0.079 C 
ATOM     29  C   UNL     1     -17.279  20.342 -14.942  0.00  0.00    +0.227 C 
ATOM     32  C   UNL     1     -16.448  20.092 -16.196  0.00  0.00    +0.102 C 
ATOM     37  C   UNL     1     -15.738  18.799 -15.923  0.00  0.00    +0.120 C 
ATOM     38  C   UNL     1     -14.841  18.934 -14.670  0.00  0.00    +0.260 C 
ENDROOT
BRANCH  32  33
ATOM     33  N   UNL     1     -17.280  19.927 -17.403  0.00  0.00    +0.229 N 
ATOM     34  H   UNL     1     -16.711  19.538 -18.139  0.00  0.00    +0.201 HD
ATOM     35  H   UNL     1     -18.036  19.294 -17.192  0.00  0.00    +0.201 HD
ATOM     36  C   UNL     1     -17.856  21.225 -17.874  0.00  0.00    +0.189 C 
ENDBRANCH  32  33
BRANCH  29  30
ATOM     30  O   UNL     1     -18.039  19.152 -14.723  0.00  0.00    -0.369 OA
ATOM     31  C   UNL     1     -19.415  19.385 -14.348  0.00  0.00    +0.195 C 
ENDBRANCH  29  30
TORSDOF 2
