REMARK  Name = 5CSW
REMARK  9 active torsions:
REMARK  status: ('A' for Active; 'I' for Inactive)
REMARK    1  A    between atoms: C_2  and  C_8
REMARK    2  A    between atoms: C_10  and  C_13
REMARK    3  A    between atoms: C_12  and  C_17
REMARK    4  A    between atoms: C_13  and  C_14
REMARK    5  A    between atoms: C_13  and  C_15
REMARK    6  A    between atoms: C_13  and  C_16
REMARK    7  A    between atoms: C_18  and  N_24
REMARK    8  A    between atoms: N_24  and  S_25
REMARK    9  A    between atoms: S_25  and  C_26
REMARK                            x       y       z     vdW  Elec       q    Type
REMARK                         _______ _______ _______ _____ _____    ______ ____
ROOT
ATOM     11  C   UNL     1     -18.210  10.067  39.647  0.00  0.00    +0.039 A 
ATOM     12  C   UNL     1     -17.593  11.075  38.898  0.00  0.00    +0.013 A 
ATOM     13  C   UNL     1     -16.334  10.893  38.370  0.00  0.00    +0.003 A 
ATOM     14  C   UNL     1     -15.664   9.710  38.579  0.00  0.00    +0.027 A 
ATOM     15  C   UNL     1     -16.243   8.696  39.338  0.00  0.00    +0.084 A 
ATOM     29  C   UNL     1     -17.523   8.862  39.852  0.00  0.00    +0.155 A 
ATOM     30  F   UNL     1     -18.062   7.853  40.571  0.00  0.00    -0.203 F 
ENDROOT
BRANCH  11  10
ATOM      9  C   UNL     1     -20.746  10.463  39.463  0.00  0.00    +0.065 A 
ATOM     10  C   UNL     1     -19.576  10.265  40.200  0.00  0.00    +0.090 A 
ATOM     31  N   UNL     1     -19.793  10.256  41.500  0.00  0.00    -0.243 NA
ATOM     32  C   UNL     1     -21.011  10.423  41.897  0.00  0.00    +0.085 A 
ATOM     37  S   UNL     1     -22.096  10.632  40.592  0.00  0.00    -0.069 S 
BRANCH   9   8
ATOM      1  C   UNL     1     -22.479  11.192  36.339  0.00  0.00    +0.213 A 
ATOM      2  N   UNL     1     -23.683  11.783  36.011  0.00  0.00    -0.328 N 
ATOM      3  H   UNL     1     -23.970  11.878  34.985  0.00  0.00    +0.145 HD
ATOM      4  H   UNL     1     -24.329  12.146  36.783  0.00  0.00    +0.145 HD
ATOM      5  N   UNL     1     -21.657  10.751  35.374  0.00  0.00    -0.223 NA
ATOM      6  C   UNL     1     -20.489  10.185  35.681  0.00  0.00    +0.116 A 
ATOM      7  C   UNL     1     -20.118  10.052  37.007  0.00  0.00    +0.049 A 
ATOM      8  C   UNL     1     -20.992  10.543  38.005  0.00  0.00    +0.085 A 
ATOM     38  N   UNL     1     -22.158  11.092  37.620  0.00  0.00    -0.214 NA
ENDBRANCH   9   8
BRANCH  32  33
ATOM     33  C   UNL     1     -21.435  10.420  43.335  0.00  0.00    +0.011 C 
ATOM     34  C   UNL     1     -21.322   8.974  43.820  0.00  0.00    +0.018 C 
ATOM     35  C   UNL     1     -22.884  10.898  43.455  0.00  0.00    +0.018 C 
ATOM     36  C   UNL     1     -20.499  11.318  44.138  0.00  0.00    +0.018 C 
ENDBRANCH  32  33
ENDBRANCH  11  10
BRANCH  15  16
ATOM     16  N   UNL     1     -15.609   7.461  39.536  0.00  0.00    -0.213 N 
ATOM     17  H   UNL     1     -15.805   6.907  38.642  0.00  0.00    +0.174 HD
BRANCH  16  18
ATOM     18  S   UNL     1     -14.018   7.193  39.856  0.00  0.00    +0.078 S 
ATOM     19  O   UNL     1     -14.001   6.041  40.674  0.00  0.00    -0.150 OA
ATOM     20  O   UNL     1     -13.410   8.419  40.209  0.00  0.00    -0.150 OA
BRANCH  18  21
ATOM     21  C   UNL     1     -13.476   6.727  38.257  0.00  0.00    +0.178 A 
ATOM     22  C   UNL     1     -12.645   7.534  37.488  0.00  0.00    +0.153 A 
ATOM     23  F   UNL     1     -12.208   8.713  37.963  0.00  0.00    -0.203 F 
ATOM     24  C   UNL     1     -12.258   7.128  36.212  0.00  0.00    +0.040 A 
ATOM     25  C   UNL     1     -12.708   5.924  35.694  0.00  0.00    +0.006 A 
ATOM     26  C   UNL     1     -13.544   5.125  36.450  0.00  0.00    +0.040 A 
ATOM     27  C   UNL     1     -13.934   5.528  37.727  0.00  0.00    +0.153 A 
ATOM     28  F   UNL     1     -14.753   4.738  38.446  0.00  0.00    -0.203 F 
ENDBRANCH  18  21
ENDBRANCH  16  18
ENDBRANCH  15  16
TORSDOF 6
