REMARK  Name = 2xk3_ligand
REMARK  5 active torsions:
REMARK  status: ('A' for Active; 'I' for Inactive)
REMARK    1  A    between atoms: C01_1  and  C02_2
REMARK    2  A    between atoms: C02_2  and  C03_3
REMARK    3  A    between atoms: C07_7  and  C08_8
REMARK    4  A    between atoms: C13_13  and  C14_14
REMARK    5  A    between atoms: C17_17  and  C18_18
REMARK                            x       y       z     vdW  Elec       q    Type
REMARK                         _______ _______ _______ _____ _____    ______ ____
ROOT
ATOM      5  C   UNL     1      26.391   8.408 -20.508  0.00  0.00    +0.038 A 
ATOM      6  N   UNL     1      25.848   8.468 -19.250  0.00  0.00    -0.323 NA
ATOM      7  C   UNL     1      25.334   7.332 -18.655  0.00  0.00    +0.050 A 
ATOM     17  C   UNL     1      25.339   6.120 -19.357  0.00  0.00    +0.123 A 
ATOM     18  N   UNL     1      24.753   4.967 -18.764  0.00  0.00    -0.328 N 
ATOM     19  H   UNL     1      24.378   5.016 -17.817  0.00  0.00    +0.174 HD
ATOM     20  H   UNL     1      24.708   4.092 -19.286  0.00  0.00    +0.174 HD
ATOM     21  N   UNL     1      25.853   6.073 -20.640  0.00  0.00    -0.287 NA
ATOM     22  C   UNL     1      26.370   7.210 -21.244  0.00  0.00    +0.080 A 
ENDROOT
BRANCH   7   8
ATOM      8  C   UNL     1      24.746   7.487 -17.279  0.00  0.00    +0.055 C 
ATOM      9  C   UNL     1      23.266   7.170 -16.980  0.00  0.00    +0.021 C 
ATOM     10  C   UNL     1      22.976   6.908 -15.502  0.00  0.00    +0.021 C 
ATOM     11  C   UNL     1      23.603   7.957 -14.569  0.00  0.00    +0.059 C 
ATOM     15  C   UNL     1      25.088   8.177 -14.819  0.00  0.00    +0.021 C 
ATOM     16  C   UNL     1      25.403   8.451 -16.279  0.00  0.00    +0.021 C 
BRANCH  11  12
ATOM     12  C   UNL     1      23.100   8.116 -13.184  0.00  0.00    +0.038 C 
ATOM     13  O   UNL     1      22.433   7.091 -12.565  0.00  0.00    -0.569 OA
ATOM     14  O   UNL     1      23.452   9.077 -12.535  0.00  0.00    -0.569 OA
ENDBRANCH  11  12
ENDBRANCH   7   8
BRANCH   5   4
ATOM      3  C   UNL     1      27.846   9.800 -22.215  0.00  0.00    +0.096 C 
ATOM      4  C   UNL     1      26.859   9.603 -21.039  0.00  0.00    +0.047 C 
ATOM     23  S   UNL     1      26.466  10.992 -20.500  0.00  0.00    -0.046 S 
ATOM     24  C   UNL     1      27.280  12.150 -21.404  0.00  0.00    +0.061 C 
ATOM     25  C   UNL     1      28.087  11.428 -22.402  0.00  0.00    -0.000 C 
BRANCH   3   2
ATOM      1  C   UNL     1      28.548   9.085 -24.505  0.00  0.00    +0.010 C 
ATOM      2  C   UNL     1      28.435   8.730 -23.064  0.00  0.00    +0.033 C 
ENDBRANCH   3   2
ENDBRANCH   5   4
TORSDOF 4
