REMARK  Name = 2rgp_ligand
REMARK  6 active torsions:
REMARK  status: ('A' for Active; 'I' for Inactive)
REMARK    1  A    between atoms: N6_4  and  C15_13
REMARK    2  A    between atoms: C7_5  and  C4_20
REMARK    3  A    between atoms: C7_5  and  N1_24
REMARK    4  A    between atoms: C13_11  and  N3_26
REMARK    5  A    between atoms: C16_14  and  C19_15
REMARK    6  A    between atoms: N7_31  and  N8_32
REMARK                            x       y       z     vdW  Elec       q    Type
REMARK                         _______ _______ _______ _____ _____    ______ ____
ROOT
ATOM     13  N   UNL     1      16.525  34.248  91.037  0.00  0.00    -0.261 N 
ATOM     14  H   UNL     1      17.422  34.074  90.561  0.00  0.00    +0.214 HD
ATOM     15  C   UNL     1      15.391  34.120  90.231  0.00  0.00    +0.142 A 
ATOM     16  N   UNL     1      14.212  34.444  90.892  0.00  0.00    -0.266 NA
ATOM     17  C   UNL     1      13.041  34.352  90.201  0.00  0.00    +0.159 A 
ATOM     18  N   UNL     1      12.954  33.963  88.911  0.00  0.00    -0.269 NA
ATOM     19  C   UNL     1      14.124  33.645  88.264  0.00  0.00    +0.123 A 
ATOM     23  C   UNL     1      15.391  33.719  88.896  0.00  0.00    +0.079 A 
ENDROOT
BRANCH  13  12
ATOM      7  N   UNL     1      16.731  35.493  96.434  0.00  0.00    -0.193 N 
ATOM      8  N   UNL     1      15.971  34.519  97.019  0.00  0.00    -0.204 NA
ATOM      9  C   UNL     1      15.585  33.760  95.994  0.00  0.00    +0.088 A 
ATOM     10  C   UNL     1      16.075  34.221  94.756  0.00  0.00    -0.001 A 
ATOM     11  C   UNL     1      15.965  33.817  93.403  0.00  0.00    +0.005 A 
ATOM     12  C   UNL     1      16.625  34.574  92.382  0.00  0.00    +0.054 A 
ATOM     32  C   UNL     1      17.390  35.712  92.735  0.00  0.00    +0.009 A 
ATOM     33  C   UNL     1      17.514  36.129  94.076  0.00  0.00    +0.014 A 
ATOM     34  C   UNL     1      16.840  35.358  95.070  0.00  0.00    +0.084 A 
BRANCH   7   6
ATOM      6  C   UNL     1      17.323  36.558  97.260  0.00  0.00    +0.253 C 
BRANCH   6   5
ATOM      1  C   UNL     1      14.718  40.116  97.099  0.00  0.00    +0.019 A 
ATOM      2  C   UNL     1      14.256  38.869  96.625  0.00  0.00    +0.126 A 
ATOM      3  F   UNL     1      13.011  38.756  96.118  0.00  0.00    -0.185 F 
ATOM      4  C   UNL     1      15.083  37.730  96.675  0.00  0.00    +0.030 A 
ATOM      5  C   UNL     1      16.419  37.808  97.209  0.00  0.00    -0.015 A 
ATOM     35  C   UNL     1      16.878  39.076  97.686  0.00  0.00    -0.010 A 
ATOM     36  C   UNL     1      16.031  40.222  97.632  0.00  0.00    -0.011 A 
ENDBRANCH   6   5
ENDBRANCH   7   6
ENDBRANCH  13  12
BRANCH  19  20
ATOM     20  N   UNL     1      13.967  33.258  86.949  0.00  0.00    -0.316 N 
ATOM     21  H   UNL     1      14.791  33.008  86.384  0.00  0.00    +0.182 HD
ATOM     22  H   UNL     1      13.026  33.219  86.532  0.00  0.00    +0.182 HD
ENDBRANCH  19  20
BRANCH  23  24
ATOM     24  C   UNL     1      16.644  33.395  88.186  0.00  0.00    +0.104 C 
ATOM     25  N   UNL     1      16.900  32.290  87.559  0.00  0.00    -0.226 NA
BRANCH  25  26
ATOM     26  N   UNL     1      18.146  32.344  86.984  0.00  0.00    -0.258 N 
ATOM     27  C   UNL     1      19.167  31.524  87.740  0.00  0.00    +0.146 C 
ATOM     28  C   UNL     1      20.573  31.596  87.112  0.00  0.00    +0.025 C 
ATOM     29  C   UNL     1      20.554  31.190  85.635  0.00  0.00    +0.004 C 
ATOM     30  C   UNL     1      19.509  31.997  84.858  0.00  0.00    +0.025 C 
ATOM     31  C   UNL     1      18.127  31.934  85.537  0.00  0.00    +0.146 C 
ENDBRANCH  25  26
ENDBRANCH  23  24
TORSDOF 6
