REMARK  Name = 57N
REMARK  3 active torsions:
REMARK  status: ('A' for Active; 'I' for Inactive)
REMARK    1  A    between atoms: C11_2  and  C09_12
REMARK    2  A    between atoms: C10_3  and  C09_12
REMARK    3  A    between atoms: C09_12  and  N25_25
REMARK                            x       y       z     vdW  Elec       q    Type
REMARK                         _______ _______ _______ _____ _____    ______ ____
ROOT
ATOM      4  C   UNL     1     -24.322  31.351  13.068  0.00  0.00    +0.177 C 
ENDROOT
BRANCH   4   5
ATOM      5  N   UNL     1     -22.895  31.313  12.957  0.00  0.00    -0.262 N 
ATOM      6  C   UNL     1     -22.015  32.069  13.835  0.00  0.00    +0.250 C 
ATOM      7  O   UNL     1     -22.403  32.767  14.708  0.00  0.00    -0.270 OA
ATOM      8  C   UNL     1     -20.586  31.776  13.412  0.00  0.00    +0.051 A 
ATOM      9  C   UNL     1     -19.229  32.277  13.953  0.00  0.00    +0.004 A 
ATOM     10  C   UNL     1     -17.951  31.793  13.296  0.00  0.00    +0.000 A 
ATOM     11  C   UNL     1     -18.002  30.842  12.132  0.00  0.00    -0.000 A 
ATOM     12  C   UNL     1     -19.333  30.367  11.612  0.00  0.00    -0.003 A 
ATOM     13  C   UNL     1     -20.630  30.862  12.281  0.00  0.00    +0.002 A 
ATOM     14  C   UNL     1     -22.080  30.567  11.976  0.00  0.00    +0.121 C 
ENDBRANCH   4   5
BRANCH   4   3
ATOM      1  C   UNL     1     -26.591  34.039  11.462  0.00  0.00    +0.186 A 
ATOM      2  N   UNL     1     -26.034  33.118  12.408  0.00  0.00    -0.153 NA
ATOM      3  C   UNL     1     -24.863  32.353  12.071  0.00  0.00    +0.270 C 
ATOM     21  O   UNL     1     -24.308  32.513  11.043  0.00  0.00    -0.271 OA
ATOM     22  N   UNL     1     -27.757  34.767  11.749  0.00  0.00    -0.221 NA
ATOM     23  C   UNL     1     -28.122  35.616  10.490  0.00  0.00    +0.108 A 
ATOM     24  C   UNL     1     -27.142  35.335   9.474  0.00  0.00    +0.059 A 
ATOM     25  S   UNL     1     -26.145  34.331  10.001  0.00  0.00    -0.049 S 
ENDBRANCH   4   3
BRANCH   4  15
ATOM     15  C   UNL     1     -24.877  29.995  12.694  0.00  0.00    +0.005 A 
ATOM     16  C   UNL     1     -24.468  28.755  13.482  0.00  0.00    -0.002 A 
ATOM     17  C   UNL     1     -25.042  27.403  13.090  0.00  0.00    -0.000 A 
ATOM     18  C   UNL     1     -26.017  27.317  11.920  0.00  0.00    -0.000 A 
ATOM     19  C   UNL     1     -26.422  28.555  11.143  0.00  0.00    -0.000 A 
ATOM     20  C   UNL     1     -25.850  29.907  11.529  0.00  0.00    -0.002 A 
ENDBRANCH   4  15
TORSDOF 3
