REMARK  Name = 3uol_ligand
REMARK  4 active torsions:
REMARK  status: ('A' for Active; 'I' for Inactive)
REMARK    1  A    between atoms: C07_7  and  N08_8
REMARK    2  A    between atoms: N08_8  and  C09_9
REMARK    3  A    between atoms: N14_14  and  C15_15
REMARK    4  A    between atoms: C18_18  and  C19_19
REMARK                            x       y       z     vdW  Elec       q    Type
REMARK                         _______ _______ _______ _____ _____    ______ ____
ROOT
ATOM      6  C   UNL     1     -21.886  19.868  -9.578  0.00  0.00    +0.135 A 
ATOM      7  N   UNL     1     -22.374  20.901 -10.293  0.00  0.00    -0.234 NA
ATOM      8  C   UNL     1     -21.676  21.333 -11.336  0.00  0.00    +0.197 A 
ATOM      9  N   UNL     1     -22.147  22.393 -12.144  0.00  0.00    -0.241 N 
ATOM     10  H   UNL     1     -21.627  22.582 -13.013  0.00  0.00    +0.220 HD
ATOM     23  N   UNL     1     -20.526  20.773 -11.704  0.00  0.00    -0.268 NA
ATOM     24  C   UNL     1     -19.980  19.757 -11.026  0.00  0.00    +0.087 A 
ATOM     25  C   UNL     1     -20.674  19.267  -9.918  0.00  0.00    +0.057 A 
ENDROOT
BRANCH   9  11
ATOM     11  C   UNL     1     -23.270  23.224 -11.873  0.00  0.00    +0.071 A 
ATOM     12  C   UNL     1     -24.223  22.918 -10.920  0.00  0.00    +0.024 A 
ATOM     13  C   UNL     1     -25.288  23.791 -10.736  0.00  0.00    +0.011 A 
ATOM     14  C   UNL     1     -25.380  24.947 -11.507  0.00  0.00    +0.029 A 
ATOM     21  C   UNL     1     -24.428  25.253 -12.465  0.00  0.00    +0.011 A 
ATOM     22  C   UNL     1     -23.374  24.380 -12.648  0.00  0.00    +0.024 A 
BRANCH  14  15
ATOM     15  C   UNL     1     -26.505  25.902 -11.336  0.00  0.00    +0.177 A 
ATOM     16  N   UNL     1     -27.740  25.762 -11.869  0.00  0.00    -0.213 NA
ATOM     17  N   UNL     1     -28.476  26.851 -11.491  0.00  0.00    -0.142 NA
ATOM     18  N   UNL     1     -27.684  27.649 -10.736  0.00  0.00    -0.067 NA
ATOM     19  N   UNL     1     -26.457  27.065 -10.636  0.00  0.00    -0.154 N 
ATOM     20  H   UNL     1     -25.644  27.437 -10.124  0.00  0.00    +0.269 HD
ENDBRANCH  14  15
ENDBRANCH   9  11
BRANCH   6   4
ATOM      4  N   UNL     1     -22.621  19.398  -8.457  0.00  0.00    -0.255 N 
ATOM      5  H   UNL     1     -22.174  18.805  -7.743  0.00  0.00    +0.217 HD
BRANCH   4   3
ATOM      1 CL   UNL     1     -24.425  17.234  -9.083  0.00  0.00    -0.079 Cl
ATOM      2  C   UNL     1     -24.958  18.803  -8.608  0.00  0.00    +0.063 A 
ATOM      3  C   UNL     1     -24.002  19.770  -8.344  0.00  0.00    +0.078 A 
ATOM     26  C   UNL     1     -24.383  21.046  -7.976  0.00  0.00    +0.016 A 
ATOM     27  C   UNL     1     -25.730  21.342  -7.867  0.00  0.00    -0.012 A 
ATOM     28  C   UNL     1     -26.690  20.373  -8.132  0.00  0.00    -0.021 A 
ATOM     29  C   UNL     1     -26.302  19.095  -8.503  0.00  0.00    +0.002 A 
ENDBRANCH   4   3
ENDBRANCH   6   4
TORSDOF 4
