REMARK  Name = 4WO5
REMARK  7 active torsions:
REMARK  status: ('A' for Active; 'I' for Inactive)
REMARK    1  A    between atoms: S_2  and  C_4
REMARK    2  A    between atoms: S_2  and  N_7
REMARK    3  A    between atoms: C_4  and  C_5
REMARK    4  A    between atoms: C_5  and  C_6
REMARK    5  A    between atoms: N_7  and  C_8
REMARK    6  A    between atoms: C_15  and  C_16
REMARK    7  A    between atoms: C_16  and  C_18
REMARK                            x       y       z     vdW  Elec       q    Type
REMARK                         _______ _______ _______ _____ _____    ______ ____
ROOT
ATOM      5  C   UNL     1     -37.243 -18.090 -44.012  0.00  0.00    +0.084 A 
ATOM      6  C   UNL     1     -38.501 -18.388 -43.469  0.00  0.00    +0.030 A 
ATOM      7  C   UNL     1     -39.397 -17.370 -43.176  0.00  0.00    +0.041 A 
ATOM      8  C   UNL     1     -39.061 -16.059 -43.477  0.00  0.00    +0.137 A 
ATOM      9  C   UNL     1     -37.822 -15.752 -44.012  0.00  0.00    +0.094 A 
ATOM     22  F   UNL     1     -39.921 -15.084 -43.214  0.00  0.00    -0.205 F 
ATOM     23  C   UNL     1     -36.922 -16.769 -44.313  0.00  0.00    +0.159 A 
ATOM     24  F   UNL     1     -35.720 -16.466 -44.813  0.00  0.00    -0.203 F 
ENDROOT
BRANCH   5   3
ATOM      3  N   UNL     1     -36.294 -19.108 -44.296  0.00  0.00    -0.218 N 
ATOM      4  H   UNL     1     -35.668 -19.009 -45.158  0.00  0.00    +0.173 HD
BRANCH   3   2
ATOM      1  O   UNL     1     -35.068 -21.262 -43.830  0.00  0.00    -0.155 OA
ATOM      2  S   UNL     1     -36.130 -20.435 -43.336  0.00  0.00    +0.043 S 
ATOM     28  O   UNL     1     -37.282 -21.296 -43.460  0.00  0.00    -0.155 OA
BRANCH   2  25
ATOM     25  C   UNL     1     -35.762 -19.974 -41.656  0.00  0.00    +0.188 C 
BRANCH  25  26
ATOM     26  C   UNL     1     -36.214 -21.036 -40.675  0.00  0.00    +0.021 C 
ATOM     27  C   UNL     1     -35.785 -20.731 -39.258  0.00  0.00    +0.005 C 
ENDBRANCH  25  26
ENDBRANCH   2  25
ENDBRANCH   3   2
ENDBRANCH   5   3
BRANCH   9  10
ATOM     10  C   UNL     1     -37.457 -14.322 -44.310  0.00  0.00    +0.201 C 
ATOM     21  O   UNL     1     -37.271 -13.994 -45.458  0.00  0.00    -0.286 OA
BRANCH  10  11
ATOM     11  C   UNL     1     -37.285 -13.311 -43.204  0.00  0.00    +0.051 A 
ATOM     12  C   UNL     1     -37.081 -11.902 -43.390  0.00  0.00    +0.033 A 
ATOM     13  C   UNL     1     -36.946 -11.369 -42.127  0.00  0.00    +0.161 A 
ATOM     14  N   UNL     1     -36.732 -10.036 -41.963  0.00  0.00    -0.234 NA
ATOM     15  C   UNL     1     -36.658  -9.196 -42.989  0.00  0.00    +0.133 A 
ATOM     16  C   UNL     1     -36.829  -9.656 -44.291  0.00  0.00    +0.060 A 
ATOM     17 CL   UNL     1     -36.782  -8.587 -45.645  0.00  0.00    -0.082 Cl
ATOM     18  N   UNL     1     -37.015 -12.375 -41.216  0.00  0.00    -0.235 NA
ATOM     19  C   UNL     1     -37.042 -11.033 -44.522  0.00  0.00    +0.034 A 
ATOM     20  C   UNL     1     -37.209 -13.528 -41.824  0.00  0.00    +0.125 A 
ENDBRANCH  10  11
ENDBRANCH   9  10
TORSDOF 6
