REMARK  Name = 4FTT
REMARK  6 active torsions:
REMARK  status: ('A' for Active; 'I' for Inactive)
REMARK    1  A    between atoms: C_9  and  C_10
REMARK    2  A    between atoms: C_10  and  C_11
REMARK    3  A    between atoms: C_11  and  O_12
REMARK    4  A    between atoms: O_12  and  C_13
REMARK    5  A    between atoms: C_20  and  C_22
REMARK    6  A    between atoms: N_23  and  C_24
REMARK                            x       y       z     vdW  Elec       q    Type
REMARK                         _______ _______ _______ _____ _____    ______ ____
ROOT
ATOM      1  O   UNL     1      16.358  -1.867   8.994  0.00  0.00    -0.267 OA
ATOM      2  C   UNL     1      17.013  -2.851   9.335  0.00  0.00    +0.258 A 
ATOM      3  C   UNL     1      16.321  -3.999  10.002  0.00  0.00    +0.063 A 
ATOM      4  C   UNL     1      14.925  -3.995   9.935  0.00  0.00    +0.016 A 
ATOM      5  C   UNL     1      14.162  -4.858  10.703  0.00  0.00    +0.011 A 
ATOM      6  C   UNL     1      14.771  -5.803  11.522  0.00  0.00    +0.002 A 
ATOM     13  C   UNL     1      16.162  -5.845  11.569  0.00  0.00    +0.036 A 
ATOM     14  C   UNL     1      16.942  -4.951  10.838  0.00  0.00    +0.053 A 
ATOM     15  N   UNL     1      18.322  -4.992  11.145  0.00  0.00    -0.353 N 
ATOM     16  H   UNL     1      18.593  -5.126  12.114  0.00  0.00    +0.166 HD
ATOM     17  C   UNL     1      19.361  -4.865  10.202  0.00  0.00    +0.063 A 
ATOM     18  C   UNL     1      20.425  -5.765  10.261  0.00  0.00    +0.028 A 
ATOM     19  C   UNL     1      21.523  -5.603   9.434  0.00  0.00    +0.006 A 
ATOM     20  C   UNL     1      21.595  -4.552   8.531  0.00  0.00    -0.035 A 
ATOM     26  C   UNL     1      20.524  -3.668   8.459  0.00  0.00    +0.032 A 
ATOM     27  C   UNL     1      19.401  -3.816   9.277  0.00  0.00    +0.066 A 
ATOM     28  N   UNL     1      18.347  -2.885   9.124  0.00  0.00    -0.320 N 
ATOM     29  H   UNL     1      18.706  -2.004   8.773  0.00  0.00    +0.169 HD
ENDROOT
BRANCH   6   7
ATOM      7  C   UNL     1      14.009  -6.668  12.459  0.00  0.00    +0.068 A 
ATOM      8  C   UNL     1      14.600  -7.740  13.190  0.00  0.00    +0.138 A 
ATOM      9  N   UNL     1      13.711  -8.324  14.063  0.00  0.00    -0.243 NA
ATOM     10  C   UNL     1      12.594  -7.655  13.915  0.00  0.00    +0.199 A 
ATOM     11  N   UNL     1      12.651  -6.651  13.012  0.00  0.00    -0.333 N 
ATOM     12  C   UNL     1      11.550  -5.723  12.759  0.00  0.00    +0.150 C 
ENDBRANCH   6   7
BRANCH  20  21
ATOM     21  C   UNL     1      22.796  -4.383   7.624  0.00  0.00    +0.155 C 
BRANCH  21  22
ATOM     22  C   UNL     1      24.000  -3.801   8.314  0.00  0.00    +0.311 C 
ATOM     23  O   UNL     1      24.515  -2.746   8.045  0.00  0.00    -0.251 OA
BRANCH  22  24
ATOM     24  O   UNL     1      24.451  -4.618   9.269  0.00  0.00    -0.468 OA
ATOM     25  C   UNL     1      25.561  -4.154  10.082  0.00  0.00    +0.280 C 
ENDBRANCH  22  24
ENDBRANCH  21  22
ENDBRANCH  20  21
TORSDOF 4
