REMARK  Name = 4FA6
REMARK  3 active torsions:
REMARK  status: ('A' for Active; 'I' for Inactive)
REMARK    1  A    between atoms: N_2  and  C_3
REMARK    2  A    between atoms: C_8  and  C_9
REMARK    3  A    between atoms: C_18  and  C_19
REMARK                            x       y       z     vdW  Elec       q    Type
REMARK                         _______ _______ _______ _____ _____    ______ ____
ROOT
ATOM      1  N   UNL     1      49.289  14.042  29.407  0.00  0.00    -0.327 N 
ATOM      2  H   UNL     1      49.805  14.703  29.981  0.00  0.00    +0.145 HD
ATOM      3  H   UNL     1      49.816  13.511  28.722  0.00  0.00    +0.145 HD
ATOM      4  C   UNL     1      47.967  13.907  29.532  0.00  0.00    +0.215 A 
ATOM      5  N   UNL     1      47.369  12.941  28.800  0.00  0.00    -0.219 NA
ATOM      6  C   UNL     1      46.060  12.730  29.001  0.00  0.00    +0.052 A 
ATOM      7  C   UNL     1      45.461  11.572  28.255  0.00  0.00    +0.066 C 
ATOM      8  C   UNL     1      45.306  13.510  29.922  0.00  0.00    +0.040 A 
ATOM      9  C   UNL     1      46.040  14.516  30.632  0.00  0.00    +0.149 A 
ATOM     10  N   UNL     1      45.379  15.308  31.616  0.00  0.00    -0.289 N 
ATOM     11  C   UNL     1      43.954  15.047  31.914  0.00  0.00    +0.261 C 
ATOM     12  O   UNL     1      43.429  15.757  32.762  0.00  0.00    -0.267 OA
ATOM     13  C   UNL     1      43.263  13.997  31.179  0.00  0.00    +0.050 C 
ATOM     25  C   UNL     1      43.908  13.309  30.208  0.00  0.00    +0.027 C 
ATOM     26  N   UNL     1      47.354  14.702  30.429  0.00  0.00    -0.197 NA
ENDROOT
BRANCH  13  14
ATOM     14  C   UNL     1      41.924  13.571  31.627  0.00  0.00    +0.025 A 
ATOM     15  C   UNL     1      41.050  12.733  30.913  0.00  0.00    +0.142 A 
ATOM     16  N   UNL     1      39.885  12.590  31.524  0.00  0.00    -0.182 NA
ATOM     17  N   UNL     1      39.984  13.328  32.646  0.00  0.00    -0.284 N 
ATOM     18  H   UNL     1      39.189  13.396  33.273  0.00  0.00    +0.188 HD
ATOM     19  C   UNL     1      41.178  13.911  32.741  0.00  0.00    +0.113 A 
ENDBRANCH  13  14
BRANCH  10  20
ATOM     20  C   UNL     1      46.117  16.383  32.317  0.00  0.00    +0.092 C 
ATOM     21  C   UNL     1      45.670  17.803  31.973  0.00  0.00    +0.025 C 
ATOM     22  C   UNL     1      45.089  18.333  33.256  0.00  0.00    +0.002 C 
ATOM     23  C   UNL     1      45.745  17.574  34.375  0.00  0.00    +0.002 C 
ATOM     24  C   UNL     1      46.167  16.235  33.841  0.00  0.00    +0.025 C 
ENDBRANCH  10  20
TORSDOF 2
