REMARK  Name = 4FSW
REMARK  0 active torsions:
REMARK  status: ('A' for Active; 'I' for Inactive)
REMARK                            x       y       z     vdW  Elec       q    Type
REMARK                         _______ _______ _______ _____ _____    ______ ____
ROOT
ATOM      1  O   UNL     1      16.205  -2.180   9.033  0.00  0.00    -0.267 OA
ATOM      2  C   UNL     1      17.008  -3.055   9.357  0.00  0.00    +0.258 A 
ATOM      3  N   UNL     1      18.319  -2.901   9.093  0.00  0.00    -0.320 N 
ATOM      4  H   UNL     1      18.575  -1.986   8.738  0.00  0.00    +0.169 HD
ATOM      5  C   UNL     1      19.443  -3.748   9.213  0.00  0.00    +0.067 A 
ATOM      6  C   UNL     1      19.565  -4.744  10.190  0.00  0.00    +0.063 A 
ATOM      7  C   UNL     1      20.697  -5.563  10.199  0.00  0.00    +0.029 A 
ATOM      8  C   UNL     1      21.708  -5.366   9.275  0.00  0.00    +0.022 A 
ATOM      9  C   UNL     1      21.589  -4.349   8.350  0.00  0.00    +0.043 A 
ATOM     10 CL   UNL     1      22.920  -4.000   7.286  0.00  0.00    -0.084 Cl
ATOM     11  N   UNL     1      18.625  -4.855  11.231  0.00  0.00    -0.353 N 
ATOM     12  H   UNL     1      18.973  -5.178  12.128  0.00  0.00    +0.166 HD
ATOM     13  C   UNL     1      17.262  -5.084  10.939  0.00  0.00    +0.052 A 
ATOM     14  C   UNL     1      16.630  -6.097  11.663  0.00  0.00    +0.026 A 
ATOM     15  C   UNL     1      15.270  -6.317  11.515  0.00  0.00    +0.002 A 
ATOM     16  C   UNL     1      14.539  -5.563  10.629  0.00  0.00    +0.001 A 
ATOM     17  C   UNL     1      15.152  -4.582   9.870  0.00  0.00    +0.015 A 
ATOM     18  C   UNL     1      20.466  -3.550   8.293  0.00  0.00    +0.047 A 
ATOM     19  C   UNL     1      16.511  -4.299  10.034  0.00  0.00    +0.063 A 
ENDROOT
TORSDOF 0
