REMARK  Name = 3uli_ligand
REMARK  11 active torsions:
REMARK  status: ('A' for Active; 'I' for Inactive)
REMARK    1  A    between atoms: C1_1  and  O2_2
REMARK    2  A    between atoms: O2_2  and  C3_3
REMARK    3  A    between atoms: C6_6  and  C9_9
REMARK    4  A    between atoms: C14_14  and  N19_19
REMARK    5  A    between atoms: N19_19  and  C20_20
REMARK    6  A    between atoms: C20_20  and  C21_21
REMARK    7  A    between atoms: C21_21  and  C22_22
REMARK    8  A    between atoms: C22_22  and  N23_23
REMARK    9  A    between atoms: C24_24  and  C26_26
REMARK   10  A    between atoms: C26_26  and  C29_29
REMARK   11  A    between atoms: C29_29  and  N30_30
REMARK                            x       y       z     vdW  Elec       q    Type
REMARK                         _______ _______ _______ _____ _____    ______ ____
ROOT
ATOM      7  C   UNL     1       3.072  28.319   7.249  0.00  0.00    +0.134 A 
ATOM      8  N   UNL     1       1.946  28.075   7.865  0.00  0.00    -0.304 NA
ATOM      9  C   UNL     1       1.273  29.182   7.869  0.00  0.00    +0.081 A 
ATOM     10  C   UNL     1       0.040  29.524   8.405  0.00  0.00    +0.072 A 
ATOM     28  C   UNL     1      -0.317  30.858   8.209  0.00  0.00    +0.042 A 
ATOM     29 BR   UNL     1      -1.966  31.526   8.845  0.00  0.00    -0.064 Br
ATOM     30  C   UNL     1       0.478  31.779   7.562  0.00  0.00    +0.063 A 
ATOM     31  N   UNL     1       1.660  31.458   7.061  0.00  0.00    -0.301 NA
ATOM     32  C   UNL     1       2.092  30.233   7.178  0.00  0.00    +0.141 A 
ATOM     33  N   UNL     1       3.207  29.628   6.787  0.00  0.00    -0.241 N 
ATOM     34  H   UNL     1       3.994  30.034   6.261  0.00  0.00    +0.233 HD
ENDROOT
BRANCH   7   6
ATOM      3  C   UNL     1       6.164  25.407   7.225  0.00  0.00    +0.097 A 
ATOM      4  C   UNL     1       6.132  26.369   6.225  0.00  0.00    +0.029 A 
ATOM      5  C   UNL     1       5.135  27.324   6.187  0.00  0.00    +0.012 A 
ATOM      6  C   UNL     1       4.153  27.298   7.159  0.00  0.00    +0.023 A 
ATOM     35  C   UNL     1       4.182  26.334   8.157  0.00  0.00    +0.012 A 
ATOM     36  C   UNL     1       5.178  25.383   8.194  0.00  0.00    +0.029 A 
BRANCH   3   2
ATOM      1  C   UNL     1       6.965  23.370   8.118  0.00  0.00    +0.235 C 
ATOM      2  O   UNL     1       7.210  24.470   7.218  0.00  0.00    -0.317 OA
ENDBRANCH   3   2
ENDBRANCH   7   6
BRANCH  10  11
ATOM     11  N   UNL     1      -0.885  28.700   9.095  0.00  0.00    -0.314 N 
ATOM     12  H   UNL     1      -1.821  29.048   9.347  0.00  0.00    +0.182 HD
BRANCH  11  13
ATOM     13  C   UNL     1      -0.468  27.342   9.437  0.00  0.00    +0.133 C 
BRANCH  13  14
ATOM     14  C   UNL     1       0.393  27.381  10.691  0.00  0.00    +0.048 C 
BRANCH  14  15
ATOM     15  C   UNL     1      -0.286  28.097  11.838  0.00  0.00    +0.136 C 
BRANCH  15  16
ATOM     16  N   UNL     1      -1.408  27.332  12.319  0.00  0.00    -0.299 N 
ATOM     17  H   UNL     1      -1.245  26.552  12.923  0.00  0.00    +0.184 HD
ATOM     18  C   UNL     1      -2.701  27.652  11.964  0.00  0.00    +0.154 C 
ATOM     27  O   UNL     1      -3.000  28.648  11.308  0.00  0.00    -0.387 OA
BRANCH  18  19
ATOM     19  C   UNL     1      -3.770  26.709  12.410  0.00  0.00    +0.126 C 
ATOM     25  C   UNL     1      -5.162  27.276  12.537  0.00  0.00    +0.089 C 
ATOM     26  C   UNL     1      -4.835  26.389  11.395  0.00  0.00    +0.089 C 
BRANCH  19  20
ATOM     20  C   UNL     1      -3.502  25.613  13.401  0.00  0.00    +0.081 C 
BRANCH  20  21
ATOM     21  N   UNL     1      -3.249  26.059  14.791  0.00  0.00    +0.208 N 
ATOM     22  H   UNL     1      -2.442  26.662  14.809  0.00  0.00    +0.198 HD
ATOM     23  H   UNL     1      -4.052  26.562  15.134  0.00  0.00    +0.198 HD
ATOM     24  H   UNL     1      -3.081  25.256  15.376  0.00  0.00    +0.198 HD
ENDBRANCH  20  21
ENDBRANCH  19  20
ENDBRANCH  18  19
ENDBRANCH  15  16
ENDBRANCH  14  15
ENDBRANCH  13  14
ENDBRANCH  11  13
ENDBRANCH  10  11
TORSDOF 10
