REMARK  Name = AQY
REMARK  3 active torsions:
REMARK  status: ('A' for Active; 'I' for Inactive)
REMARK    1  A    between atoms: C4_1  and  C9_16
REMARK    2  A    between atoms: C17_6  and  C18_23
REMARK    3  A    between atoms: C24_9  and  C26_10
REMARK                            x       y       z     vdW  Elec       q    Type
REMARK                         _______ _______ _______ _____ _____    ______ ____
ROOT
ATOM      9  C   UNL     1      17.748  -5.591   1.468  0.00  0.00    +0.101 A 
ATOM     10  C   UNL     1      16.588  -5.189   2.134  0.00  0.00    +0.102 A 
ATOM     28  N   UNL     1      15.721  -4.793   1.140  0.00  0.00    -0.211 N 
ATOM     29  N   UNL     1      14.415  -4.303   1.185  0.00  0.00    -0.162 NA
ATOM     30  C   UNL     1      13.778  -4.029   0.078  0.00  0.00    +0.121 A 
ATOM     31  C   UNL     1      14.420  -4.186  -1.159  0.00  0.00    +0.026 A 
ATOM     32  C   UNL     1      15.688  -4.662  -1.261  0.00  0.00    +0.040 A 
ATOM     33  C   UNL     1      16.361  -4.980  -0.064  0.00  0.00    +0.164 A 
ATOM     34  N   UNL     1      17.568  -5.453   0.149  0.00  0.00    -0.225 NA
ENDROOT
BRANCH  10  11
ATOM     11  C   UNL     1      16.288  -5.090   3.576  0.00  0.00    +0.024 A 
ATOM     12  C   UNL     1      17.320  -4.990   4.531  0.00  0.00    +0.022 A 
ATOM     13  C   UNL     1      17.004  -4.866   5.869  0.00  0.00    +0.100 A 
ATOM     14  N   UNL     1      15.743  -4.813   6.269  0.00  0.00    -0.227 NA
ATOM     15  C   UNL     1      14.725  -4.868   5.410  0.00  0.00    +0.155 A 
ATOM     16  N   UNL     1      13.449  -4.776   5.955  0.00  0.00    -0.160 NA
ATOM     17  C   UNL     1      12.283  -4.470   5.337  0.00  0.00    +0.255 C 
ATOM     26  O   UNL     1      12.196  -4.243   4.141  0.00  0.00    -0.272 OA
ATOM     27  C   UNL     1      14.960  -5.000   4.039  0.00  0.00    +0.038 A 
BRANCH  17  18
ATOM     18  C   UNL     1      11.084  -4.426   6.200  0.00  0.00    +0.125 C 
ATOM     19  C   UNL     1      11.082  -5.131   7.415  0.00  0.00    +0.002 C 
ATOM     20  C   UNL     1       9.969  -5.070   8.233  0.00  0.00    +0.065 C 
ATOM     21  C   UNL     1       9.994  -5.834   9.539  0.00  0.00    +0.052 C 
ATOM     22  N   UNL     1       8.915  -4.347   7.865  0.00  0.00    -0.189 N 
ATOM     23  O   UNL     1       7.779  -4.300   8.714  0.00  0.00    -0.080 OA
ATOM     24  C   UNL     1       8.865  -3.664   6.724  0.00  0.00    +0.104 C 
ATOM     25  C   UNL     1       9.946  -3.669   5.854  0.00  0.00    +0.008 C 
ENDBRANCH  17  18
ENDBRANCH  10  11
BRANCH   9   1
ATOM      1  C   UNL     1      19.001  -6.147   1.999  0.00  0.00    +0.019 A 
ATOM      2  C   UNL     1      18.932  -7.355   2.722  0.00  0.00    +0.004 A 
ATOM      3  C   UNL     1      20.088  -7.938   3.208  0.00  0.00    +0.029 A 
ATOM      4  C   UNL     1      21.306  -7.332   2.931  0.00  0.00    +0.136 A 
ATOM      5  F   UNL     1      22.431  -7.886   3.407  0.00  0.00    -0.204 F 
ATOM      6  C   UNL     1      21.374  -6.141   2.198  0.00  0.00    +0.006 A 
ATOM      7  C   UNL     1      22.702  -5.491   1.919  0.00  0.00    +0.033 C 
ATOM      8  C   UNL     1      20.228  -5.554   1.714  0.00  0.00    -0.001 A 
ENDBRANCH   9   1
TORSDOF 3
