REMARK  Name = 4X7N
REMARK  9 active torsions:
REMARK  status: ('A' for Active; 'I' for Inactive)
REMARK    1  A    between atoms: C_5  and  C_6
REMARK    2  A    between atoms: C_11  and  C_12
REMARK    3  A    between atoms: C_13  and  N_14
REMARK    4  A    between atoms: C_15  and  C_16
REMARK    5  A    between atoms: C_19  and  C_20
REMARK    6  A    between atoms: C_20  and  C_22
REMARK    7  A    between atoms: N_25  and  C_26
REMARK    8  A    between atoms: N_32  and  C_33
REMARK    9  A    between atoms: C_34  and  C_35
REMARK                            x       y       z     vdW  Elec       q    Type
REMARK                         _______ _______ _______ _____ _____    ______ ____
ROOT
ATOM      3  C   UNL     1      26.662   8.980   2.008  0.00  0.00    +0.006 A 
ATOM      4  C   UNL     1      25.343   8.502   2.120  0.00  0.00    -0.041 A 
ATOM      5  C   UNL     1      24.679   8.552   3.344  0.00  0.00    +0.005 A 
ATOM      6  C   UNL     1      25.307   9.094   4.459  0.00  0.00    +0.014 A 
ATOM      7  C   UNL     1      26.617   9.573   4.371  0.00  0.00    +0.044 A 
ATOM     29  C   UNL     1      24.580   7.904   0.923  0.00  0.00    +0.044 C 
ATOM     30  C   UNL     1      27.295   9.529   3.135  0.00  0.00    +0.044 A 
ENDROOT
BRANCH   3   2
ATOM      1  C   UNL     1      28.013   7.839   0.288  0.00  0.00    +0.018 A 
ATOM      2  C   UNL     1      27.307   8.950   0.763  0.00  0.00    -0.015 A 
ATOM     34  C   UNL     1      27.197  10.086  -0.042  0.00  0.00    +0.010 A 
ATOM     35  C   UNL     1      27.790  10.131  -1.300  0.00  0.00    +0.029 A 
ATOM     36  C   UNL     1      28.499   9.031  -1.767  0.00  0.00    +0.071 A 
ATOM     37  N   UNL     1      29.070   9.087  -2.983  0.00  0.00    -0.252 NA
ATOM     38  C   UNL     1      29.771   8.050  -3.485  0.00  0.00    +0.039 A 
ATOM     39  C   UNL     1      30.404   8.172  -4.883  0.00  0.00    +0.065 C 
ATOM     40  C   UNL     1      29.918   6.881  -2.738  0.00  0.00    +0.024 A 
ATOM     41  C   UNL     1      29.331   6.794  -1.470  0.00  0.00    +0.012 A 
ATOM     42  C   UNL     1      28.610   7.883  -0.975  0.00  0.00    +0.001 A 
ENDBRANCH   3   2
BRANCH  30  31
ATOM     31  N   UNL     1      28.547  10.004   3.045  0.00  0.00    -0.357 N 
ATOM     32  H   UNL     1      29.024  10.421   3.907  0.00  0.00    +0.142 HD
ATOM     33  H   UNL     1      29.068   9.966   2.111  0.00  0.00    +0.142 HD
ENDBRANCH  30  31
BRANCH   7   8
ATOM      8  C   UNL     1      27.319  10.178   5.612  0.00  0.00    +0.202 C 
ATOM     28  O   UNL     1      28.295  10.902   5.434  0.00  0.00    -0.286 OA
BRANCH   8   9
ATOM      9  C   UNL     1      26.866   9.916   7.060  0.00  0.00    +0.114 A 
ATOM     10  C   UNL     1      27.033  10.766   8.156  0.00  0.00    +0.082 A 
ATOM     17  N   UNL     1      26.509  10.115   9.205  0.00  0.00    -0.279 N 
ATOM     18  C   UNL     1      26.470  10.680  10.577  0.00  0.00    +0.171 C 
ATOM     19  N   UNL     1      26.052   9.000   8.881  0.00  0.00    -0.216 N 
ATOM     26  C   UNL     1      26.245   8.791   7.576  0.00  0.00    +0.283 A 
ATOM     27  O   UNL     1      25.913   7.778   6.955  0.00  0.00    -0.265 OA
BRANCH  10  11
ATOM     11  C   UNL     1      27.631  12.041   8.146  0.00  0.00    +0.001 A 
ATOM     12  C   UNL     1      27.128  13.081   7.362  0.00  0.00    +0.010 A 
ATOM     13  C   UNL     1      27.747  14.333   7.392  0.00  0.00    +0.001 A 
ATOM     14  C   UNL     1      28.863  14.564   8.199  0.00  0.00    +0.000 A 
ATOM     15  C   UNL     1      29.367  13.530   8.989  0.00  0.00    +0.001 A 
ATOM     16  C   UNL     1      28.751  12.280   8.956  0.00  0.00    +0.010 A 
ENDBRANCH  10  11
BRANCH  19  20
ATOM     20  C   UNL     1      25.488   8.106   9.714  0.00  0.00    +0.067 A 
ATOM     21  C   UNL     1      26.298   7.442  10.651  0.00  0.00    +0.028 A 
ATOM     22  C   UNL     1      25.759   6.504  11.534  0.00  0.00    +0.002 A 
ATOM     23  C   UNL     1      24.395   6.212  11.472  0.00  0.00    +0.000 A 
ATOM     24  C   UNL     1      23.582   6.864  10.539  0.00  0.00    +0.002 A 
ATOM     25  C   UNL     1      24.127   7.806   9.659  0.00  0.00    +0.028 A 
ENDBRANCH  19  20
ENDBRANCH   8   9
ENDBRANCH   7   8
TORSDOF 6
