REMARK  Name = 3bgp_ligand
REMARK  2 active torsions:
REMARK  status: ('A' for Active; 'I' for Inactive)
REMARK    1  A    between atoms: C6_6  and  C8_8
REMARK    2  A    between atoms: C14_14  and  C15_15
REMARK                            x       y       z     vdW  Elec       q    Type
REMARK                         _______ _______ _______ _____ _____    ______ ____
ROOT
ATOM      7  C   UNL     1      22.129  34.974   0.612  0.00  0.00    +0.005 A 
ATOM      8  C   UNL     1      22.297  35.447  -0.711  0.00  0.00    +0.033 A 
ATOM      9  C   UNL     1      22.663  36.807  -0.945  0.00  0.00    +0.052 A 
ATOM     10  C   UNL     1      22.924  37.668  -2.042  0.00  0.00    +0.209 A 
ATOM     18  O   UNL     1      23.221  38.860  -1.488  0.00  0.00    -0.166 OA
ATOM     19  N   UNL     1      23.185  38.875  -0.282  0.00  0.00    -0.204 NA
ATOM     20  C   UNL     1      22.863  37.715   0.233  0.00  0.00    +0.032 A 
ATOM     21  C   UNL     1      22.679  37.184   1.558  0.00  0.00    +0.016 A 
ATOM     22  C   UNL     1      22.324  35.859   1.731  0.00  0.00    +0.018 A 
ENDROOT
BRANCH   7   6
ATOM      1  N   UNL     1      20.180  30.887  -1.071  0.00  0.00    -0.303 N 
ATOM      2  H   UNL     1      20.010  31.373  -1.963  0.00  0.00    +0.183 HD
ATOM      3  H   UNL     1      19.901  29.902  -0.960  0.00  0.00    +0.183 HD
ATOM      4  C   UNL     1      20.784  31.558  -0.021  0.00  0.00    +0.186 A 
ATOM      5  N   UNL     1      21.144  32.841  -0.175  0.00  0.00    -0.251 NA
ATOM      6  C   UNL     1      21.741  33.536   0.829  0.00  0.00    +0.054 A 
ATOM     23  C   UNL     1      21.980  32.873   2.071  0.00  0.00    +0.049 A 
ATOM     24  C   UNL     1      21.583  31.532   2.185  0.00  0.00    +0.102 A 
ATOM     25  N   UNL     1      20.998  30.914   1.141  0.00  0.00    -0.256 NA
ENDBRANCH   7   6
BRANCH  10  11
ATOM     11  C   UNL     1      22.898  37.392  -3.514  0.00  0.00    +0.037 A 
ATOM     12  C   UNL     1      23.104  38.484  -4.414  0.00  0.00    +0.013 A 
ATOM     13  C   UNL     1      23.088  38.274  -5.799  0.00  0.00    +0.014 A 
ATOM     14  C   UNL     1      22.870  36.985  -6.320  0.00  0.00    +0.040 A 
ATOM     15 CL   UNL     1      22.853  36.745  -8.038  0.00  0.00    -0.070 Cl
ATOM     16  C   UNL     1      22.663  35.887  -5.452  0.00  0.00    +0.014 A 
ATOM     17  C   UNL     1      22.676  36.079  -4.055  0.00  0.00    +0.013 A 
ENDBRANCH  10  11
TORSDOF 2
