REMARK  Name = 5FBN
REMARK  6 active torsions:
REMARK  status: ('A' for Active; 'I' for Inactive)
REMARK    1  A    between atoms: C_2  and  C_3
REMARK    2  A    between atoms: C_3  and  C_4
REMARK    3  A    between atoms: C_13  and  C_14
REMARK    4  A    between atoms: C_23  and  C_24
REMARK    5  A    between atoms: C_28  and  C_30
REMARK    6  A    between atoms: C_36  and  C_37
REMARK                            x       y       z     vdW  Elec       q    Type
REMARK                         _______ _______ _______ _____ _____    ______ ____
ROOT
ATOM      6  C   UNL     1     -17.988  33.891 -19.472  0.00  0.00    +0.120 A 
ATOM      7  N   UNL     1     -16.726  33.569 -19.289  0.00  0.00    -0.231 NA
ATOM      8  C   UNL     1     -16.501  32.317 -19.639  0.00  0.00    +0.100 A 
ATOM     29  C   UNL     1     -17.735  31.810 -20.064  0.00  0.00    +0.114 A 
ATOM     30  C   UNL     1     -18.203  30.567 -20.543  0.00  0.00    +0.142 A 
ATOM     31  N   UNL     1     -19.478  30.394 -20.901  0.00  0.00    -0.237 NA
ATOM     32  C   UNL     1     -20.316  31.432 -20.796  0.00  0.00    +0.131 A 
ATOM     33  C   UNL     1     -19.934  32.638 -20.302  0.00  0.00    +0.113 A 
ATOM     34  N   UNL     1     -17.350  29.523 -20.650  0.00  0.00    -0.341 N 
ATOM     35  H   UNL     1     -17.702  28.580 -21.013  0.00  0.00    +0.144 HD
ATOM     36  H   UNL     1     -16.323  29.640 -20.372  0.00  0.00    +0.144 HD
ATOM     37  N   UNL     1     -18.638  32.830 -19.925  0.00  0.00    -0.298 N 
ENDROOT
BRANCH   6   5
ATOM      1  O   UNL     1     -21.850  35.980 -17.161  0.00  0.00    -0.275 OA
ATOM      2  C   UNL     1     -21.053  36.874 -17.166  0.00  0.00    +0.226 C 
ATOM      3  N   UNL     1     -19.674  36.586 -17.418  0.00  0.00    -0.300 N 
ATOM      4  C   UNL     1     -19.201  35.206 -17.749  0.00  0.00    +0.119 C 
ATOM      5  C   UNL     1     -18.656  35.212 -19.189  0.00  0.00    +0.073 C 
ATOM     38  C   UNL     1     -17.639  36.342 -19.367  0.00  0.00    +0.014 C 
ATOM     39  C   UNL     1     -18.229  37.706 -18.959  0.00  0.00    +0.020 C 
ATOM     40  C   UNL     1     -18.551  37.583 -17.475  0.00  0.00    +0.107 C 
BRANCH   2  41
ATOM     41  C   UNL     1     -21.718  38.215 -16.850  0.00  0.00    +0.091 C 
ATOM     42  C   UNL     1     -22.923  38.075 -15.860  0.00  0.00    +0.178 C 
ATOM     43  O   UNL     1     -22.279  39.083 -15.016  0.00  0.00    -0.378 OA
ATOM     44  C   UNL     1     -21.017  39.097 -15.759  0.00  0.00    +0.178 C 
ATOM     45  C   UNL     1     -22.225  38.969 -18.111  0.00  0.00    +0.025 C 
ENDBRANCH   2  41
ENDBRANCH   6   5
BRANCH   8   9
ATOM      9  C   UNL     1     -15.157  31.697 -19.596  0.00  0.00    +0.003 A 
ATOM     10  C   UNL     1     -14.405  31.650 -18.430  0.00  0.00    +0.011 A 
ATOM     11  C   UNL     1     -13.162  31.092 -18.478  0.00  0.00    +0.013 A 
ATOM     12  C   UNL     1     -12.586  30.617 -19.687  0.00  0.00    +0.037 A 
ATOM     27  C   UNL     1     -13.307  30.723 -20.862  0.00  0.00    +0.013 A 
ATOM     28  C   UNL     1     -14.581  31.264 -20.792  0.00  0.00    +0.011 A 
BRANCH  12  13
ATOM     13  C   UNL     1     -11.231  30.037 -19.657  0.00  0.00    +0.249 C 
ATOM     14  N   UNL     1     -10.901  29.327 -18.542  0.00  0.00    -0.266 N 
ATOM     15  H   UNL     1     -11.655  29.247 -17.787  0.00  0.00    +0.157 HD
ATOM     16  C   UNL     1      -9.689  28.694 -18.278  0.00  0.00    +0.126 A 
ATOM     17  C   UNL     1      -8.603  28.661 -19.183  0.00  0.00    +0.056 A 
ATOM     18  C   UNL     1      -7.416  28.033 -18.840  0.00  0.00    +0.059 A 
ATOM     19  C   UNL     1      -7.366  27.421 -17.586  0.00  0.00    +0.032 A 
ATOM     20  C   UNL     1      -8.475  27.481 -16.723  0.00  0.00    +0.113 A 
ATOM     25  N   UNL     1      -9.601  28.109 -17.053  0.00  0.00    -0.240 NA
ATOM     26  O   UNL     1     -10.486  30.212 -20.600  0.00  0.00    -0.270 OA
BRANCH  18  21
ATOM     21  C   UNL     1      -6.254  28.031 -19.842  0.00  0.00    +0.418 C 
ATOM     22  F   UNL     1      -5.049  27.775 -19.253  0.00  0.00    -0.166 F 
ATOM     23  F   UNL     1      -6.497  27.076 -20.782  0.00  0.00    -0.166 F 
ATOM     24  F   UNL     1      -6.167  29.243 -20.456  0.00  0.00    -0.166 F 
ENDBRANCH  18  21
ENDBRANCH  12  13
ENDBRANCH   8   9
TORSDOF 5
