REMARK  Name = 4flh_ligand
REMARK  10 active torsions:
REMARK  status: ('A' for Active; 'I' for Inactive)
REMARK    1  A    between atoms: C15_1  and  O14_2
REMARK    2  A    between atoms: O14_2  and  C11_3
REMARK    3  A    between atoms: C8_9  and  N7_10
REMARK    4  A    between atoms: C5_14  and  C25_15
REMARK    5  A    between atoms: C25_15  and  C36_16
REMARK    6  A    between atoms: C25_15  and  N26_17
REMARK    7  A    between atoms: N29_22  and  S32_23
REMARK    8  A    between atoms: S32_23  and  C33_24
REMARK    9  A    between atoms: C3_28  and  C17_29
REMARK   10  A    between atoms: C19_32  and  C23_33
REMARK                            x       y       z     vdW  Elec       q    Type
REMARK                         _______ _______ _______ _____ _____    ______ ____
ROOT
ATOM      7  N   UNL     1      23.809  13.750  22.289  0.00  0.00    -0.259 N 
ATOM      8  H   UNL     1      23.305  13.061  22.847  0.00  0.00    +0.213 HD
ATOM      9  C   UNL     1      23.293  14.990  22.210  0.00  0.00    +0.145 A 
ATOM     10  C   UNL     1      22.056  15.303  22.806  0.00  0.00    +0.066 A 
ATOM     21  C   UNL     1      21.567  16.597  22.689  0.00  0.00    +0.035 A 
ATOM     22  C   UNL     1      22.304  17.544  21.979  0.00  0.00    -0.040 A 
ATOM     35  C   UNL     1      23.516  17.178  21.397  0.00  0.00    +0.079 A 
ATOM     36  N   UNL     1      23.960  15.941  21.534  0.00  0.00    -0.281 NA
ENDROOT
BRANCH  10  11
ATOM     11  C   UNL     1      21.325  14.370  23.544  0.00  0.00    +0.114 A 
ATOM     12  N   UNL     1      21.946  13.272  24.015  0.00  0.00    -0.257 NA
ATOM     13  C   UNL     1      21.281  12.360  24.739  0.00  0.00    +0.093 A 
ATOM     14  N   UNL     1      19.987  12.535  25.020  0.00  0.00    -0.233 NA
ATOM     15  C   UNL     1      19.364  13.649  24.581  0.00  0.00    +0.188 A 
ATOM     16  N   UNL     1      18.079  13.828  24.856  0.00  0.00    -0.299 N 
ATOM     17  H   UNL     1      17.599  14.667  24.529  0.00  0.00    +0.186 HD
ATOM     18  H   UNL     1      17.570  13.127  25.395  0.00  0.00    +0.186 HD
ATOM     19  C   UNL     1      22.013  11.126  25.236  0.00  0.00    +0.150 C 
ATOM     20  N   UNL     1      20.029  14.564  23.849  0.00  0.00    -0.236 NA
ENDBRANCH  10  11
BRANCH   7   6
ATOM      3  C   UNL     1      27.292  12.461  20.545  0.00  0.00    +0.187 A 
ATOM      4  N   UNL     1      27.047  12.286  21.856  0.00  0.00    -0.288 NA
ATOM      5  C   UNL     1      25.927  12.704  22.420  0.00  0.00    +0.084 A 
ATOM      6  C   UNL     1      24.939  13.358  21.685  0.00  0.00    +0.077 A 
ATOM     37  C   UNL     1      25.149  13.552  20.326  0.00  0.00    +0.068 A 
ATOM     38  C   UNL     1      26.337  13.107  19.763  0.00  0.00    +0.180 A 
ATOM     39  F   UNL     1      26.548  13.285  18.451  0.00  0.00    -0.183 F 
BRANCH   3   2
ATOM      1  C   UNL     1      29.323  11.270  20.831  0.00  0.00    +0.233 C 
ATOM      2  O   UNL     1      28.460  12.022  19.962  0.00  0.00    -0.310 OA
ENDBRANCH   3   2
ENDBRANCH   7   6
BRANCH  22  23
ATOM     23  C   UNL     1      21.769  18.985  21.844  0.00  0.00    -0.044 C 
ATOM     34  C   UNL     1      22.933  20.004  21.935  0.00  0.00    -0.002 C 
BRANCH  23  24
ATOM     24  N   UNL     1      21.038  19.027  20.569  0.00  0.00    +0.412 NA
ATOM     25  C   UNL     1      19.599  19.083  20.841  0.00  0.00    -0.085 C 
ATOM     26  C   UNL     1      18.860  18.838  19.520  0.00  0.00    +0.103 C 
ATOM     27  N   UNL     1      19.187  19.935  18.608  0.00  0.00    -0.243 NA
ATOM     32  C   UNL     1      20.641  19.972  18.383  0.00  0.00    +0.103 C 
ATOM     33  C   UNL     1      21.380  20.155  19.705  0.00  0.00    -0.085 C 
BRANCH  27  28
ATOM     28  S   UNL     1      18.433  19.766  17.155  0.00  0.00    +0.038 S 
ATOM     29  O   UNL     1      19.476  19.461  16.127  0.00  0.00    -0.156 OA
ATOM     30  O   UNL     1      17.404  18.667  17.145  0.00  0.00    -0.156 OA
ATOM     31  C   UNL     1      17.633  21.309  16.773  0.00  0.00    +0.218 C 
ENDBRANCH  27  28
ENDBRANCH  23  24
ENDBRANCH  22  23
TORSDOF 6
