REMARK  Name = 2BIK
REMARK  8 active torsions:
REMARK  status: ('A' for Active; 'I' for Inactive)
REMARK    1  A    between atoms: C_1  and  N_2
REMARK    2  A    between atoms: N_2  and  C_3
REMARK    3  A    between atoms: N_2  and  C_4
REMARK    4  A    between atoms: C_4  and  C_5
REMARK    5  A    between atoms: C_5  and  C_6
REMARK    6  A    between atoms: C_6  and  N_7
REMARK    7  A    between atoms: C_15  and  C_16
REMARK    8  A    between atoms: C_22  and  C_23
REMARK                            x       y       z     vdW  Elec       q    Type
REMARK                         _______ _______ _______ _____ _____    ______ ____
ROOT
ATOM     10  C   UNL     1     -42.265   2.217   1.839  0.00  0.00    +0.059 C 
ATOM     11  C   UNL     1     -43.466   1.713   1.144  0.00  0.00    +0.059 C 
ATOM     21  C   UNL     1     -44.462   1.588   2.240  0.00  0.00    +0.252 C 
ATOM     22  O   UNL     1     -45.665   1.176   2.070  0.00  0.00    -0.270 OA
ATOM     23  N   UNL     1     -43.989   1.938   3.471  0.00  0.00    -0.248 N 
ATOM     24  H   UNL     1     -44.512   1.900   4.404  0.00  0.00    +0.158 HD
ATOM     25  C   UNL     1     -42.705   2.347   3.257  0.00  0.00    +0.252 C 
ATOM     26  O   UNL     1     -41.938   2.759   4.208  0.00  0.00    -0.270 OA
ENDROOT
BRANCH  10   9
ATOM      6  N   UNL     1     -39.438   3.533   0.020  0.00  0.00    -0.346 N 
ATOM      7  C   UNL     1     -38.812   3.140   1.124  0.00  0.00    +0.050 A 
ATOM      8  C   UNL     1     -39.741   2.589   1.984  0.00  0.00    +0.008 A 
ATOM      9  C   UNL     1     -40.930   2.642   1.308  0.00  0.00    +0.013 A 
ATOM     27  C   UNL     1     -39.379   2.070   3.217  0.00  0.00    +0.010 A 
ATOM     28  C   UNL     1     -38.039   2.138   3.596  0.00  0.00    +0.001 A 
ATOM     29  C   UNL     1     -37.097   2.699   2.741  0.00  0.00    +0.002 A 
ATOM     30  C   UNL     1     -37.475   3.209   1.514  0.00  0.00    +0.026 A 
ATOM     31  C   UNL     1     -40.768   3.260   0.098  0.00  0.00    +0.095 A 
BRANCH   6   5
ATOM      5  C   UNL     1     -38.764   4.171  -1.107  0.00  0.00    +0.123 C 
BRANCH   5   4
ATOM      4  C   UNL     1     -39.466   3.894  -2.418  0.00  0.00    +0.037 C 
BRANCH   4   3
ATOM      3  C   UNL     1     -38.644   4.470  -3.568  0.00  0.00    +0.085 C 
BRANCH   3   2
ATOM      1  C   UNL     1     -38.909   5.093  -5.981  0.00  0.00    +0.104 C 
ATOM      2  N   UNL     1     -39.325   4.271  -4.850  0.00  0.00    -0.308 NA
ATOM     32  C   UNL     1     -40.367   3.275  -5.060  0.00  0.00    +0.104 C 
ENDBRANCH   3   2
ENDBRANCH   4   3
ENDBRANCH   5   4
ENDBRANCH   6   5
ENDBRANCH  10   9
BRANCH  11  12
ATOM     12  C   UNL     1     -43.701   1.438  -0.314  0.00  0.00    +0.015 A 
ATOM     13  C   UNL     1     -44.935   1.659  -0.897  0.00  0.00    +0.120 A 
ATOM     14  N   UNL     1     -44.786   1.336  -2.211  0.00  0.00    -0.254 NA
ATOM     15  C   UNL     1     -43.510   0.935  -2.448  0.00  0.00    +0.072 A 
ATOM     16  C   UNL     1     -42.864   0.500  -3.597  0.00  0.00    +0.028 A 
ATOM     17  C   UNL     1     -41.520   0.137  -3.552  0.00  0.00    +0.002 A 
ATOM     18  C   UNL     1     -40.821   0.196  -2.353  0.00  0.00    +0.001 A 
ATOM     19  C   UNL     1     -41.462   0.617  -1.195  0.00  0.00    +0.010 A 
ATOM     20  C   UNL     1     -42.795   0.982  -1.252  0.00  0.00    +0.010 A 
ENDBRANCH  11  12
TORSDOF 6
