REMARK  Name = DJW
REMARK  5 active torsions:
REMARK  status: ('A' for Active; 'I' for Inactive)
REMARK    1  A    between atoms: C8_4  and  N7_13
REMARK    2  A    between atoms: C8_4  and  C9_14
REMARK    3  A    between atoms: C28_9  and  C30_30
REMARK    4  A    between atoms: O2_11  and  C3_12
REMARK    5  A    between atoms: C11_16  and  C12_17
REMARK                            x       y       z     vdW  Elec       q    Type
REMARK                         _______ _______ _______ _____ _____    ______ ____
ROOT
ATOM      1  C   UNL     1     -25.935  -0.440  -1.455  0.00  0.00    +0.059 A 
ATOM      2  C   UNL     1     -24.797  -1.228  -1.294  0.00  0.00    +0.225 A 
ATOM      3  N   UNL     1     -23.537  -0.782  -1.068  0.00  0.00    -0.214 NA
ATOM      4  C   UNL     1     -23.449   0.562  -1.020  0.00  0.00    +0.083 A 
ATOM      5  C   UNL     1     -22.193   1.328  -0.726  0.00  0.00    +0.109 C 
ATOM      6  C   UNL     1     -21.842   1.114   0.741  0.00  0.00    +0.036 C 
ATOM      7  C   UNL     1     -20.518   1.783   1.098  0.00  0.00    +0.095 C 
ATOM      8  N   UNL     1     -19.533   1.181   0.220  0.00  0.00    -0.276 N 
ATOM      9  C   UNL     1     -18.547   0.344   0.748  0.00  0.00    +0.249 C 
ATOM     10  O   UNL     1     -18.427   0.271   1.984  0.00  0.00    -0.270 OA
ATOM     20  C   UNL     1     -19.730   1.504  -1.218  0.00  0.00    +0.095 C 
ATOM     21  C   UNL     1     -22.647   2.784  -0.979  0.00  0.00    +0.234 C 
ATOM     22  O   UNL     1     -22.013   3.808  -1.062  0.00  0.00    -0.274 OA
ATOM     23  N   UNL     1     -24.059   2.792  -1.104  0.00  0.00    -0.248 N 
ATOM     36  C   UNL     1     -21.075   0.902  -1.666  0.00  0.00    +0.036 C 
ATOM     37  C   UNL     1     -24.530   1.452  -1.189  0.00  0.00    +0.069 A 
ATOM     40  C   UNL     1     -25.802   0.944  -1.405  0.00  0.00    +0.021 A 
ENDROOT
BRANCH   9  11
ATOM     11  C   UNL     1     -17.611  -0.402  -0.130  0.00  0.00    +0.054 A 
ATOM     12  C   UNL     1     -16.232  -0.271   0.157  0.00  0.00    +0.006 A 
ATOM     13  C   UNL     1     -15.287  -0.937  -0.588  0.00  0.00    +0.021 A 
ATOM     14  C   UNL     1     -15.751  -1.736  -1.640  0.00  0.00    +0.104 A 
ATOM     15  C   UNL     1     -17.146  -1.879  -1.930  0.00  0.00    +0.041 A 
ATOM     16  C   UNL     1     -17.224  -2.745  -3.073  0.00  0.00    +0.124 A 
ATOM     17  N   UNL     1     -15.980  -3.096  -3.447  0.00  0.00    -0.146 NA
ATOM     18  N   UNL     1     -15.086  -2.499  -2.593  0.00  0.00    -0.148 NA
ATOM     19  C   UNL     1     -18.079  -1.207  -1.158  0.00  0.00    +0.008 A 
ENDBRANCH   9  11
BRANCH   2  38
ATOM     38  O   UNL     1     -25.010  -2.557  -1.367  0.00  0.00    -0.456 OA
ATOM     39  C   UNL     1     -23.875  -3.409  -1.247  0.00  0.00    +0.254 C 
ENDBRANCH   2  38
BRANCH  23  24
ATOM     24  C   UNL     1     -24.808   4.018  -1.354  0.00  0.00    +0.183 C 
BRANCH  24  25
ATOM     25  C   UNL     1     -24.981   4.285  -2.850  0.00  0.00    +0.246 C 
ATOM     26  N   UNL     1     -25.963   5.224  -3.144  0.00  0.00    -0.272 N 
ATOM     27  C   UNL     1     -26.749   5.939  -2.120  0.00  0.00    +0.094 C 
ATOM     28  C   UNL     1     -27.924   6.584  -2.881  0.00  0.00    +0.024 C 
ATOM     29  C   UNL     1     -27.797   6.111  -4.333  0.00  0.00    +0.030 C 
ATOM     30  C   UNL     1     -26.343   5.606  -4.500  0.00  0.00    +0.171 C 
ATOM     35  O   UNL     1     -24.323   3.764  -3.736  0.00  0.00    -0.273 OA
BRANCH  30  31
ATOM     31  C   UNL     1     -25.408   6.723  -5.127  0.00  0.00    +0.414 C 
ATOM     32  F   UNL     1     -25.474   7.911  -4.501  0.00  0.00    -0.168 F 
ATOM     33  F   UNL     1     -24.092   6.380  -5.168  0.00  0.00    -0.168 F 
ATOM     34  F   UNL     1     -25.753   6.983  -6.414  0.00  0.00    -0.168 F 
ENDBRANCH  30  31
ENDBRANCH  24  25
ENDBRANCH  23  24
TORSDOF 5
