REMARK  Name = EO4
REMARK  3 active torsions:
REMARK  status: ('A' for Active; 'I' for Inactive)
REMARK    1  A    between atoms: C4_2  and  O_19
REMARK    2  A    between atoms: N1_4  and  C12_20
REMARK    3  A    between atoms: C14_22  and  C15_24
REMARK                            x       y       z     vdW  Elec       q    Type
REMARK                         _______ _______ _______ _____ _____    ______ ____
ROOT
ATOM      1  C   UNL     1      -1.171   3.850  20.674  0.00  0.00    +0.041 A 
ATOM      2  C   UNL     1      -1.793   4.916  21.366  0.00  0.00    +0.139 A 
ATOM      3  C   UNL     1      -1.102   5.633  22.340  0.00  0.00    +0.037 A 
ATOM      4  C   UNL     1       0.223   5.324  22.628  0.00  0.00    +0.047 A 
ATOM      5  C   UNL     1       1.186   5.784  23.594  0.00  0.00    +0.247 C 
ATOM      6  C   UNL     1       1.234   6.665  24.686  0.00  0.00    +0.363 C 
ATOM      7  N   UNL     1       2.321   6.700  25.466  0.00  0.00    +0.002 NA
ATOM      8  C   UNL     1       3.366   5.912  25.199  0.00  0.00    +0.360 C 
ATOM      9  C   UNL     1       4.525   5.976  26.136  0.00  0.00    +0.137 C 
ATOM     10  N   UNL     1       3.448   5.055  24.175  0.00  0.00    +0.004 NA
ATOM     11  N   UNL     1       0.271   7.646  24.905  0.00  0.00    +0.011 NA
ATOM     21  C   UNL     1       2.362   4.993  23.394  0.00  0.00    +0.371 C 
ATOM     22  N   UNL     1       2.140   4.128  22.375  0.00  0.00    -0.038 NA
ATOM     23  C   UNL     1       0.848   4.287  21.914  0.00  0.00    +0.191 A 
ATOM     26  C   UNL     1       0.165   3.553  20.967  0.00  0.00    +0.049 A 
ENDROOT
BRANCH  11  12
ATOM     12  C   UNL     1      -0.484   8.368  24.024  0.00  0.00    +0.265 A 
ATOM     13  N   UNL     1      -1.853   8.578  24.300  0.00  0.00    -0.213 N 
ATOM     14  C   UNL     1      -2.642   8.148  25.448  0.00  0.00    +0.157 C 
ATOM     15  N   UNL     1      -2.468   9.221  23.267  0.00  0.00    -0.171 NA
ATOM     16  C   UNL     1      -1.544   9.411  22.329  0.00  0.00    +0.083 A 
ATOM     20  C   UNL     1      -0.291   8.872  22.772  0.00  0.00    +0.081 A 
BRANCH  16  17
ATOM     17  C   UNL     1      -1.724  10.071  21.006  0.00  0.00    +0.042 C 
ATOM     18  C   UNL     1      -2.700  11.200  20.824  0.00  0.00    +0.006 C 
ATOM     19  C   UNL     1      -3.000   9.883  20.237  0.00  0.00    +0.006 C 
ENDBRANCH  16  17
ENDBRANCH  11  12
BRANCH   2  24
ATOM     24  O   UNL     1      -3.095   5.166  21.016  0.00  0.00    -0.471 OA
ATOM     25  C   UNL     1      -3.843   6.106  21.797  0.00  0.00    +0.253 C 
ENDBRANCH   2  24
TORSDOF 3
