REMARK  Name = 2j2i_ligand
REMARK  4 active torsions:
REMARK  status: ('A' for Active; 'I' for Inactive)
REMARK    1  A    between atoms: CBF_31  and  CBG_32
REMARK    2  A    between atoms: CBG_32  and  NBH_33
REMARK    3  A    between atoms: NBH_33  and  CBI_34
REMARK    4  A    between atoms: NBH_33  and  CBJ_35
REMARK                            x       y       z     vdW  Elec       q    Type
REMARK                         _______ _______ _______ _____ _____    ______ ____
ROOT
ATOM      1  C   UNL     1      39.482  -1.776  -2.185  0.00  0.00    +0.069 C 
ATOM      2  C   UNL     1      40.650  -2.644  -2.714  0.00  0.00    +0.166 C 
ATOM      8  O   UNL     1      41.618  -1.799  -3.313  0.00  0.00    -0.368 OA
ATOM      9  C   UNL     1      42.835  -2.443  -3.793  0.00  0.00    +0.193 C 
ATOM     10  C   UNL     1      43.644  -3.213  -2.751  0.00  0.00    +0.203 C 
ATOM     11  N   UNL     1      44.209  -2.379  -1.671  0.00  0.00    -0.257 N 
ATOM     12  C   UNL     1      45.217  -1.504  -1.659  0.00  0.00    +0.071 A 
ATOM     13  C   UNL     1      46.088  -1.060  -2.660  0.00  0.00    +0.014 A 
ATOM     14  C   UNL     1      47.072  -0.124  -2.375  0.00  0.00    -0.021 A 
ATOM     15  C   UNL     1      47.195   0.371  -1.081  0.00  0.00    -0.026 A 
ATOM     16  C   UNL     1      46.338  -0.081  -0.080  0.00  0.00    -0.017 A 
ATOM     17  C   UNL     1      45.342  -1.009  -0.366  0.00  0.00    -0.013 A 
ATOM     18  C   UNL     1      44.345  -1.607   0.406  0.00  0.00    -0.005 A 
ATOM     19  C   UNL     1      44.038  -1.522   1.782  0.00  0.00    +0.044 C 
ATOM     20  C   UNL     1      44.927  -1.530   2.861  0.00  0.00    +0.224 C 
ATOM     21  O   UNL     1      46.148  -1.596   2.801  0.00  0.00    -0.372 OA
ATOM     22  N   UNL     1      44.300  -1.483   4.010  0.00  0.00    -0.204 N 
ATOM     23  H   UNL     1      44.726  -1.490   4.915  0.00  0.00    +0.220 HD
ATOM     24  C   UNL     1      43.016  -1.426   3.762  0.00  0.00    +0.224 C 
ATOM     25  O   UNL     1      42.182  -1.360   4.665  0.00  0.00    -0.372 OA
ATOM     26  C   UNL     1      42.768  -1.437   2.384  0.00  0.00    +0.044 C 
ATOM     27  C   UNL     1      41.554  -1.430   1.690  0.00  0.00    -0.005 A 
ATOM     28  C   UNL     1      40.304  -1.949   2.016  0.00  0.00    -0.013 A 
ATOM     29  C   UNL     1      39.783  -2.607   3.136  0.00  0.00    -0.017 A 
ATOM     30  C   UNL     1      38.447  -3.005   3.172  0.00  0.00    -0.026 A 
ATOM     31  C   UNL     1      37.619  -2.750   2.088  0.00  0.00    -0.021 A 
ATOM     32  C   UNL     1      38.144  -2.085   0.972  0.00  0.00    +0.014 A 
ATOM     33  C   UNL     1      39.481  -1.679   0.941  0.00  0.00    +0.071 A 
ATOM     34  N   UNL     1      40.216  -1.035   0.025  0.00  0.00    -0.259 N 
ATOM     35  C   UNL     1      41.452  -0.892   0.471  0.00  0.00    +0.142 A 
ATOM     36  C   UNL     1      43.698  -2.451  -0.423  0.00  0.00    +0.143 A 
ATOM     37  C   UNL     1      39.882  -0.550  -1.314  0.00  0.00    +0.178 C 
ENDROOT
BRANCH   2   3
ATOM      3  C   UNL     1      40.171  -3.716  -3.759  0.00  0.00    +0.163 C 
BRANCH   3   4
ATOM      4  N   UNL     1      38.739  -4.042  -3.544  0.00  0.00    +0.233 N 
ATOM      5  H   UNL     1      38.255  -3.174  -3.375  0.00  0.00    +0.203 HD
ATOM      6  C   UNL     1      38.114  -4.679  -4.725  0.00  0.00    +0.190 C 
ATOM      7  C   UNL     1      38.566  -4.902  -2.345  0.00  0.00    +0.190 C 
ENDBRANCH   3   4
ENDBRANCH   2   3
TORSDOF 2
