REMARK  Name = 4X7K
REMARK  9 active torsions:
REMARK  status: ('A' for Active; 'I' for Inactive)
REMARK    1  A    between atoms: C_6  and  C_7
REMARK    2  A    between atoms: N_8  and  C_9
REMARK    3  A    between atoms: N_10  and  C_11
REMARK    4  A    between atoms: C_19  and  C_20
REMARK    5  A    between atoms: C_20  and  C_22
REMARK    6  A    between atoms: C_23  and  N_24
REMARK    7  A    between atoms: C_27  and  C_28
REMARK    8  A    between atoms: C_29  and  C_30
REMARK    9  A    between atoms: N_36  and  C_37
REMARK                            x       y       z     vdW  Elec       q    Type
REMARK                         _______ _______ _______ _____ _____    ______ ____
ROOT
ATOM      6  C   UNL     1      26.640   9.584   4.477  0.00  0.00    +0.044 A 
ATOM      7  C   UNL     1      25.289   9.208   4.534  0.00  0.00    +0.014 A 
ATOM      8  C   UNL     1      24.698   8.601   3.426  0.00  0.00    +0.005 A 
ATOM      9  C   UNL     1      25.441   8.385   2.260  0.00  0.00    -0.041 A 
ATOM     10  C   UNL     1      26.795   8.765   2.184  0.00  0.00    +0.009 A 
ATOM     25  C   UNL     1      24.712   7.734   1.067  0.00  0.00    +0.044 C 
ATOM     26  C   UNL     1      27.389   9.369   3.302  0.00  0.00    +0.044 A 
ENDROOT
BRANCH  10  11
ATOM     11  C   UNL     1      27.495   8.482   0.997  0.00  0.00    +0.020 A 
ATOM     12  C   UNL     1      27.564   9.382  -0.041  0.00  0.00    +0.142 A 
ATOM     13  F   UNL     1      26.987  10.583   0.114  0.00  0.00    -0.204 F 
ATOM     14  C   UNL     1      28.237   9.038  -1.222  0.00  0.00    +0.052 A 
ATOM     15  C   UNL     1      28.312   9.942  -2.257  0.00  0.00    +0.127 A 
ATOM     16  N   UNL     1      28.948   9.600  -3.370  0.00  0.00    -0.220 NA
ATOM     17  C   UNL     1      29.545   8.409  -3.543  0.00  0.00    +0.224 A 
ATOM     18  N   UNL     1      30.162   8.218  -4.727  0.00  0.00    -0.254 NA
ATOM     19  C   UNL     1      30.966   7.022  -5.057  0.00  0.00    +0.174 C 
ATOM     20  N   UNL     1      29.499   7.490  -2.545  0.00  0.00    -0.324 N 
ATOM     21  H   UNL     1      29.971   6.537  -2.666  0.00  0.00    +0.169 HD
ATOM     22  C   UNL     1      28.845   7.793  -1.387  0.00  0.00    +0.053 A 
ATOM     23  C   UNL     1      28.768   6.878  -0.339  0.00  0.00    +0.027 A 
ATOM     24  C   UNL     1      28.100   7.210   0.837  0.00  0.00    +0.013 A 
ENDBRANCH  10  11
BRANCH  26  27
ATOM     27  N   UNL     1      28.670   9.747   3.248  0.00  0.00    -0.357 N 
ATOM     28  H   UNL     1      29.239   9.584   2.357  0.00  0.00    +0.142 HD
ATOM     29  H   UNL     1      29.127  10.213   4.096  0.00  0.00    +0.142 HD
ENDBRANCH  26  27
BRANCH   6   5
ATOM      5  C   UNL     1      27.306  10.250   5.706  0.00  0.00    +0.202 C 
ATOM     30  O   UNL     1      28.265  11.011   5.546  0.00  0.00    -0.286 OA
BRANCH   5   4
ATOM      3  C   UNL     1      27.071  10.777   8.247  0.00  0.00    +0.082 A 
ATOM      4  C   UNL     1      26.862   9.947   7.145  0.00  0.00    +0.114 A 
ATOM     31  C   UNL     1      26.222   8.814   7.666  0.00  0.00    +0.283 A 
ATOM     32  O   UNL     1      25.846   7.807   7.058  0.00  0.00    -0.265 OA
ATOM     33  N   UNL     1      26.057   9.018   8.975  0.00  0.00    -0.216 N 
ATOM     40  N   UNL     1      26.562  10.115   9.299  0.00  0.00    -0.279 N 
ATOM     41  C   UNL     1      26.552  10.681  10.663  0.00  0.00    +0.171 C 
BRANCH   3   2
ATOM      1  C   UNL     1      28.804  12.218   9.105  0.00  0.00    +0.010 A 
ATOM      2  C   UNL     1      27.697  12.037   8.261  0.00  0.00    +0.001 A 
ATOM     42  C   UNL     1      27.248  13.107   7.486  0.00  0.00    +0.010 A 
ATOM     43  C   UNL     1      27.910  14.339   7.559  0.00  0.00    +0.001 A 
ATOM     44  C   UNL     1      29.010  14.514   8.400  0.00  0.00    +0.000 A 
ATOM     45  C   UNL     1      29.462  13.451   9.184  0.00  0.00    +0.001 A 
ENDBRANCH   3   2
BRANCH  33  34
ATOM     34  C   UNL     1      25.515   8.119   9.827  0.00  0.00    +0.067 A 
ATOM     35  C   UNL     1      26.381   7.497  10.740  0.00  0.00    +0.028 A 
ATOM     36  C   UNL     1      25.914   6.545  11.656  0.00  0.00    +0.002 A 
ATOM     37  C   UNL     1      24.561   6.197  11.641  0.00  0.00    +0.000 A 
ATOM     38  C   UNL     1      23.693   6.806  10.729  0.00  0.00    +0.002 A 
ATOM     39  C   UNL     1      24.169   7.759   9.817  0.00  0.00    +0.028 A 
ENDBRANCH  33  34
ENDBRANCH   5   4
ENDBRANCH   6   5
TORSDOF 6
