REMARK  Name = 4LD
REMARK  3 active torsions:
REMARK  status: ('A' for Active; 'I' for Inactive)
REMARK    1  A    between atoms: C14_5  and  C15_7
REMARK    2  A    between atoms: C7_11  and  O2_13
REMARK    3  A    between atoms: C18_15  and  C19_16
REMARK                            x       y       z     vdW  Elec       q    Type
REMARK                         _______ _______ _______ _____ _____    ______ ____
ROOT
ATOM      3  C   UNL     1      17.011  -5.766   7.970  0.00  0.00    +0.139 A 
ATOM      4  C   UNL     1      18.146  -5.392   8.737  0.00  0.00    +0.039 A 
ATOM      5  C   UNL     1      19.004  -4.443   8.198  0.00  0.00    +0.024 A 
ATOM      6  C   UNL     1      20.245  -3.867   8.639  0.00  0.00    +0.037 A 
ATOM      7  C   UNL     1      21.011  -3.944   9.800  0.00  0.00    +0.085 A 
ATOM     17  N   UNL     1      22.224  -3.287   9.860  0.00  0.00    -0.244 NA
ATOM     18  C   UNL     1      22.647  -2.587   8.785  0.00  0.00    +0.100 A 
ATOM     19  C   UNL     1      21.942  -2.411   7.590  0.00  0.00    +0.040 A 
ATOM     20  C   UNL     1      20.710  -3.058   7.556  0.00  0.00    +0.084 A 
ATOM     21  N   UNL     1      19.800  -3.058   6.541  0.00  0.00    -0.245 NA
ATOM     22  C   UNL     1      18.758  -3.911   6.918  0.00  0.00    +0.082 A 
ATOM     23  C   UNL     1      17.674  -4.263   6.165  0.00  0.00    +0.022 A 
ATOM     24  C   UNL     1      16.777  -5.201   6.698  0.00  0.00    +0.038 A 
ENDROOT
BRANCH   7   8
ATOM      8  C   UNL     1      20.602  -4.634  10.989  0.00  0.00    +0.048 A 
ATOM      9  C   UNL     1      19.377  -4.486  11.724  0.00  0.00    +0.083 A 
ATOM     10  N   UNL     1      19.335  -5.361  12.759  0.00  0.00    -0.153 NA
ATOM     11  N   UNL     1      20.516  -6.037  12.697  0.00  0.00    -0.153 NA
ATOM     15  C   UNL     1      21.319  -5.644  11.652  0.00  0.00    +0.084 A 
ATOM     16  C   UNL     1      22.654  -6.243  11.380  0.00  0.00    +0.054 C 
BRANCH   9  12
ATOM     12  C   UNL     1      18.264  -3.549  11.464  0.00  0.00    +0.042 C 
ATOM     13  C   UNL     1      17.422  -3.026  12.619  0.00  0.00    +0.006 C 
ATOM     14  C   UNL     1      16.840  -4.036  11.693  0.00  0.00    +0.006 C 
ENDBRANCH   9  12
ENDBRANCH   7   8
BRANCH   3   2
ATOM      1  C   UNL     1      16.343  -7.494   9.525  0.00  0.00    +0.253 C 
ATOM      2  O   UNL     1      16.053  -6.670   8.417  0.00  0.00    -0.471 OA
ENDBRANCH   3   2
TORSDOF 3
