REMARK  Name = 3APD
REMARK  2 active torsions:
REMARK  status: ('A' for Active; 'I' for Inactive)
REMARK    1  A    between atoms: C_6  and  N_7
REMARK    2  A    between atoms: C_21  and  C_22
REMARK                            x       y       z     vdW  Elec       q    Type
REMARK                         _______ _______ _______ _____ _____    ______ ____
ROOT
ATOM      3  N   UNL     1      45.268  17.917  31.868  0.00  0.00    -0.283 N 
ATOM      4  C   UNL     1      45.057  16.641  31.523  0.00  0.00    +0.135 A 
ATOM      5  N   UNL     1      45.860  15.724  30.951  0.00  0.00    -0.199 NA
ATOM      6  C   UNL     1      45.408  14.486  30.682  0.00  0.00    +0.220 A 
ATOM      7  N   UNL     1      44.147  14.140  30.980  0.00  0.00    -0.214 NA
ATOM      8  C   UNL     1      43.294  14.994  31.575  0.00  0.00    +0.084 A 
ATOM     18  N   UNL     1      46.240  13.537  30.077  0.00  0.00    -0.295 N 
ATOM     19  C   UNL     1      47.698  13.733  30.000  0.00  0.00    +0.136 C 
ATOM     20  C   UNL     1      48.175  13.377  28.588  0.00  0.00    +0.178 C 
ATOM     21  O   UNL     1      47.764  12.019  28.302  0.00  0.00    -0.377 OA
ATOM     22  C   UNL     1      46.329  11.975  28.153  0.00  0.00    +0.178 C 
ATOM     23  C   UNL     1      45.651  12.324  29.476  0.00  0.00    +0.136 C 
ATOM     24  C   UNL     1      43.747  16.281  31.843  0.00  0.00    +0.021 A 
ATOM     25  C   UNL     1      43.016  17.448  32.477  0.00  0.00    +0.060 C 
ATOM     26  C   UNL     1      44.047  18.560  32.403  0.00  0.00    +0.117 C 
ENDROOT
BRANCH   8   9
ATOM      9  C   UNL     1      41.984  14.576  31.857  0.00  0.00    +0.037 A 
ATOM     10  C   UNL     1      41.169  15.229  32.780  0.00  0.00    +0.126 A 
ATOM     11  N   UNL     1      39.934  14.794  32.978  0.00  0.00    -0.222 NA
ATOM     12  C   UNL     1      39.457  13.723  32.316  0.00  0.00    +0.212 A 
ATOM     13  N   UNL     1      38.209  13.312  32.533  0.00  0.00    -0.328 N 
ATOM     14  H   UNL     1      37.593  13.824  33.242  0.00  0.00    +0.145 HD
ATOM     15  H   UNL     1      37.823  12.470  31.998  0.00  0.00    +0.145 HD
ATOM     16  N   UNL     1      40.228  13.075  31.423  0.00  0.00    -0.222 NA
ATOM     17  C   UNL     1      41.459  13.476  31.183  0.00  0.00    +0.126 A 
ENDBRANCH   8   9
BRANCH   3   2
ATOM      1  C   UNL     1      47.654  17.948  31.743  0.00  0.00    +0.026 A 
ATOM      2  C   UNL     1      46.418  18.589  31.688  0.00  0.00    +0.053 A 
ATOM     27  C   UNL     1      46.393  19.964  31.441  0.00  0.00    +0.134 A 
ATOM     28  N   UNL     1      47.514  20.649  31.267  0.00  0.00    -0.261 NA
ATOM     29  C   UNL     1      48.702  20.063  31.310  0.00  0.00    +0.111 A 
ATOM     30  C   UNL     1      48.806  18.698  31.551  0.00  0.00    +0.021 A 
ENDBRANCH   3   2
TORSDOF 2
