REMARK  Name = L46
REMARK  3 active torsions:
REMARK  status: ('A' for Active; 'I' for Inactive)
REMARK    1  A    between atoms: C4_1  and  C27_5
REMARK    2  A    between atoms: C3_2  and  C2_10
REMARK    3  A    between atoms: C7_3  and  C8_6
REMARK                            x       y       z     vdW  Elec       q    Type
REMARK                         _______ _______ _______ _____ _____    ______ ____
ROOT
ATOM      1  C   UNL     1      12.682  38.572  77.476  0.00  0.00    +0.046 A 
ATOM      2  C   UNL     1      12.039  39.491  78.452  0.00  0.00    +0.062 A 
ATOM      3  C   UNL     1      12.680  40.610  79.229  0.00  0.00    +0.052 C 
ATOM      4  N   UNL     1      10.739  39.163  78.534  0.00  0.00    -0.245 NA
ATOM      5  C   UNL     1      10.463  38.128  77.722  0.00  0.00    +0.132 A 
ATOM     13  C   UNL     1      11.703  37.691  77.009  0.00  0.00    +0.004 A 
ENDROOT
BRANCH   5   6
ATOM      6  C   UNL     1       9.128  37.474  77.561  0.00  0.00    +0.282 C 
ATOM      7  N   UNL     1       8.333  37.469  78.642  0.00  0.00    -0.199 NA
ATOM      8  C   UNL     1       6.975  36.920  78.633  0.00  0.00    +0.139 C 
ATOM      9  O   UNL     1       8.784  36.981  76.491  0.00  0.00    -0.267 OA
ENDBRANCH   5   6
BRANCH   1  10
ATOM     10  C   UNL     1      14.144  38.621  77.133  0.00  0.00    +0.174 C 
ATOM     11  O   UNL     1      14.785  39.648  77.254  0.00  0.00    -0.291 OA
ATOM     12  C   UNL     1      14.829  37.354  76.694  0.00  0.00    +0.077 C 
ENDBRANCH   1  10
BRANCH  13  14
ATOM     14  C   UNL     1      11.837  36.582  75.993  0.00  0.00    +0.028 C 
ATOM     15  C   UNL     1      12.078  37.181  74.618  0.00  0.00    +0.005 C 
ENDBRANCH  13  14
TORSDOF 3
