REMARK  Name = D4Z
REMARK  4 active torsions:
REMARK  status: ('A' for Active; 'I' for Inactive)
REMARK    1  A    between atoms: C2_1  and  C4_15
REMARK    2  A    between atoms: C7_2  and  N8_18
REMARK    3  A    between atoms: C9_3  and  N8_18
REMARK    4  A    between atoms: C22_10  and  C18_21
REMARK                            x       y       z     vdW  Elec       q    Type
REMARK                         _______ _______ _______ _____ _____    ______ ____
ROOT
ATOM      4  C   UNL     1       3.461  -1.967  42.924  0.00  0.00    +0.074 A 
ATOM      5  C   UNL     1       4.630  -2.748  42.993  0.00  0.00    +0.007 A 
ATOM      6  C   UNL     1       4.863  -3.747  42.041  0.00  0.00    +0.016 A 
ATOM      7  C   UNL     1       3.959  -3.983  40.995  0.00  0.00    +0.067 A 
ATOM      8  C   UNL     1       2.790  -3.209  40.932  0.00  0.00    +0.034 A 
ATOM      9  C   UNL     1       1.739  -3.239  39.988  0.00  0.00    +0.022 A 
ATOM     10  C   UNL     1       0.892  -2.256  40.478  0.00  0.00    +0.081 A 
ATOM     11  N   UNL     1       1.388  -1.627  41.562  0.00  0.00    -0.245 NA
ATOM     25  C   UNL     1       2.557  -2.209  41.883  0.00  0.00    +0.087 A 
ENDROOT
BRANCH  10  12
ATOM     12  C   UNL     1      -0.393  -1.727  39.924  0.00  0.00    +0.018 A 
ATOM     13  C   UNL     1      -1.001  -0.576  40.445  0.00  0.00    +0.002 A 
ATOM     14  C   UNL     1      -2.180  -0.072  39.885  0.00  0.00    +0.000 A 
ATOM     15  C   UNL     1      -2.761  -0.749  38.797  0.00  0.00    +0.000 A 
ATOM     16  C   UNL     1      -2.157  -1.900  38.270  0.00  0.00    +0.000 A 
ATOM     17  C   UNL     1      -0.971  -2.391  38.830  0.00  0.00    +0.002 A 
ENDBRANCH  10  12
BRANCH   4   1
ATOM      1  C   UNL     1       3.243  -0.801  43.852  0.00  0.00    +0.286 C 
ATOM      2  N   UNL     1       4.249  -0.435  44.649  0.00  0.00    -0.084 NA
ATOM      3  O   UNL     1       2.201  -0.136  43.809  0.00  0.00    -0.267 OA
ENDBRANCH   4   1
BRANCH   7  18
ATOM     18  N   UNL     1       4.153  -4.997  40.078  0.00  0.00    -0.238 NA
BRANCH  18  19
ATOM     19  C   UNL     1       5.451  -5.652  39.896  0.00  0.00    +0.110 C 
ATOM     20  C   UNL     1       6.231  -4.571  39.106  0.00  0.00    +0.110 C 
ATOM     21  N   UNL     1       7.483  -5.071  38.529  0.00  0.00    -0.216 NA
ATOM     22  C   UNL     1       7.461  -6.321  37.768  0.00  0.00    +0.089 C 
ATOM     23  C   UNL     1       6.697  -7.397  38.556  0.00  0.00    +0.021 C 
ATOM     24  C   UNL     1       5.314  -6.884  38.989  0.00  0.00    +0.025 C 
ENDBRANCH  18  19
ENDBRANCH   7  18
TORSDOF 4
