REMARK  Name = 3krr_ligand
REMARK  5 active torsions:
REMARK  status: ('A' for Active; 'I' for Inactive)
REMARK    1  A    between atoms: C3_3  and  C48_30
REMARK    2  A    between atoms: C7_6  and  C10_8
REMARK    3  A    between atoms: C13_11  and  C24_18
REMARK    4  A    between atoms: N27_20  and  C31_23
REMARK    5  A    between atoms: C48_30  and  N51_31
REMARK                            x       y       z     vdW  Elec       q    Type
REMARK                         _______ _______ _______ _____ _____    ______ ____
ROOT
ATOM      5  C   UNL     1      13.018  12.131   2.440  0.00  0.00    +0.003 A 
ATOM      6  C   UNL     1      11.902  12.634   1.740  0.00  0.00    +0.018 A 
ATOM      7  C   UNL     1      11.040  11.762   1.053  0.00  0.00    +0.010 A 
ATOM      8  C   UNL     1      11.277  10.383   1.078  0.00  0.00    +0.030 A 
ATOM      9  C   UNL     1      12.388   9.882   1.777  0.00  0.00    +0.069 A 
ATOM     10  N   UNL     1      12.614   8.549   1.781  0.00  0.00    -0.274 NA
ATOM     11  C   UNL     1      13.667   8.044   2.452  0.00  0.00    +0.136 A 
ATOM     12  C   UNL     1      14.555   8.878   3.139  0.00  0.00    +0.064 A 
ATOM     26  N   UNL     1      14.342  10.219   3.129  0.00  0.00    -0.281 NA
ATOM     27  C   UNL     1      13.267  10.745   2.463  0.00  0.00    +0.069 A 
ENDROOT
BRANCH   5   4
ATOM      1  F   UNL     1      15.624  13.838   6.208  0.00  0.00    -0.190 F 
ATOM      2  C   UNL     1      15.224  13.982   4.943  0.00  0.00    +0.132 A 
ATOM      3  C   UNL     1      14.376  12.999   4.418  0.00  0.00    +0.027 A 
ATOM      4  C   UNL     1      13.913  13.121   3.103  0.00  0.00    -0.024 A 
ATOM     28  C   UNL     1      14.313  14.214   2.322  0.00  0.00    +0.027 A 
ATOM     29  C   UNL     1      15.163  15.195   2.840  0.00  0.00    +0.132 A 
ATOM     30  F   UNL     1      15.521  16.217   2.050  0.00  0.00    -0.190 F 
ATOM     31  C   UNL     1      15.617  15.090   4.166  0.00  0.00    +0.006 A 
BRANCH  31  32
ATOM     32  C   UNL     1      16.527  16.184   4.754  0.00  0.00    -0.039 C 
BRANCH  32  33
ATOM     33  N   UNL     1      15.689  17.274   5.375  0.00  0.00    +0.410 NA
ATOM     34  C   UNL     1      14.838  18.084   4.445  0.00  0.00    -0.078 C 
ATOM     35  C   UNL     1      14.057  19.195   5.200  0.00  0.00    +0.137 C 
ATOM     36  O   UNL     1      13.291  18.597   6.263  0.00  0.00    -0.384 OA
ATOM     37  C   UNL     1      14.147  18.009   7.263  0.00  0.00    +0.137 C 
ATOM     38  C   UNL     1      14.995  16.869   6.639  0.00  0.00    -0.078 C 
ENDBRANCH  32  33
ENDBRANCH  31  32
ENDBRANCH   5   4
BRANCH  12  13
ATOM     13  C   UNL     1      15.741   8.327   3.910  0.00  0.00    +0.030 A 
ATOM     14  C   UNL     1      16.723   9.188   4.569  0.00  0.00    +0.082 A 
ATOM     15  N   UNL     1      17.549   8.388   5.107  0.00  0.00    -0.209 NA
ATOM     16  N   UNL     1      17.216   7.098   4.871  0.00  0.00    -0.194 N 
ATOM     25  C   UNL     1      16.119   7.042   4.157  0.00  0.00    +0.185 A 
BRANCH  16  17
ATOM     17  C   UNL     1      18.040   6.036   5.436  0.00  0.00    +0.163 C 
ATOM     18  C   UNL     1      18.579   5.000   4.412  0.00  0.00    +0.090 C 
ATOM     19  C   UNL     1      19.380   3.883   5.153  0.00  0.00    +0.132 C 
ATOM     20  N   UNL     1      18.518   3.299   6.219  0.00  0.00    +0.227 N 
ATOM     21  H   UNL     1      19.050   2.547   6.657  0.00  0.00    +0.201 HD
ATOM     22  H   UNL     1      17.652   2.995   5.773  0.00  0.00    +0.201 HD
ATOM     23  C   UNL     1      18.147   4.250   7.288  0.00  0.00    +0.132 C 
ATOM     24  C   UNL     1      17.312   5.392   6.655  0.00  0.00    +0.090 C 
ENDBRANCH  16  17
ENDBRANCH  12  13
TORSDOF 5
