REMARK  Name = 4MED
REMARK  9 active torsions:
REMARK  status: ('A' for Active; 'I' for Inactive)
REMARK    1  A    between atoms: C_1  and  C_2
REMARK    2  A    between atoms: C_2  and  N_3
REMARK    3  A    between atoms: N_3  and  C_4
REMARK    4  A    between atoms: N_3  and  C_6
REMARK    5  A    between atoms: C_4  and  C_5
REMARK    6  A    between atoms: C_6  and  C_7
REMARK    7  A    between atoms: C_7  and  C_8
REMARK    8  A    between atoms: C_8  and  C_9
REMARK    9  A    between atoms: C_9  and  N_10
REMARK                            x       y       z     vdW  Elec       q    Type
REMARK                         _______ _______ _______ _____ _____    ______ ____
ROOT
ATOM      8  N   UNL     1      76.276  35.122   2.352  0.00  0.00    -0.294 N 
ATOM      9  C   UNL     1      75.828  36.274   1.666  0.00  0.00    +0.077 A 
ATOM     10  C   UNL     1      75.396  37.465   2.313  0.00  0.00    +0.027 A 
ATOM     11  C   UNL     1      74.885  38.609   1.717  0.00  0.00    +0.002 A 
ATOM     12  C   UNL     1      74.762  38.569   0.361  0.00  0.00    +0.004 A 
ATOM     13  C   UNL     1      75.139  37.436  -0.334  0.00  0.00    +0.048 A 
ATOM     14  C   UNL     1      75.628  36.324   0.292  0.00  0.00    +0.150 A 
ATOM     15  O   UNL     1      75.985  35.265  -0.473  0.00  0.00    -0.452 OA
ATOM     16  C   UNL     1      76.276  34.093   0.135  0.00  0.00    +0.150 A 
ATOM     17  C   UNL     1      76.411  33.062  -0.762  0.00  0.00    +0.049 A 
ATOM     18  C   UNL     1      76.675  31.814  -0.297  0.00  0.00    +0.023 A 
ATOM     19  C   UNL     1      76.811  31.684   1.074  0.00  0.00    +0.043 A 
ATOM     20 CL   UNL     1      77.127  30.191   1.544  0.00  0.00    -0.084 Cl
ATOM     21  C   UNL     1      76.698  32.722   2.008  0.00  0.00    +0.047 A 
ATOM     22  C   UNL     1      76.434  34.005   1.550  0.00  0.00    +0.078 A 
ENDROOT
BRANCH   8   7
ATOM      7  C   UNL     1      76.127  35.214   3.751  0.00  0.00    +0.111 C 
BRANCH   7   6
ATOM      6  C   UNL     1      76.332  34.169   4.882  0.00  0.00    +0.020 C 
BRANCH   6   5
ATOM      5  C   UNL     1      75.209  34.349   5.978  0.00  0.00    +0.017 C 
BRANCH   5   4
ATOM      4  C   UNL     1      75.457  35.529   6.980  0.00  0.00    +0.084 C 
BRANCH   4   3
ATOM      3  N   UNL     1      74.346  36.547   7.049  0.00  0.00    -0.303 NA
BRANCH   3   2
ATOM      1  C   UNL     1      72.724  37.711   8.600  0.00  0.00    +0.020 C 
ATOM      2  C   UNL     1      74.047  36.917   8.482  0.00  0.00    +0.081 C 
ENDBRANCH   3   2
BRANCH   3  23
ATOM     23  C   UNL     1      74.677  37.683   6.139  0.00  0.00    +0.081 C 
ATOM     24  C   UNL     1      74.262  39.139   6.550  0.00  0.00    +0.020 C 
ENDBRANCH   3  23
ENDBRANCH   4   3
ENDBRANCH   5   4
ENDBRANCH   6   5
ENDBRANCH   7   6
ENDBRANCH   8   7
TORSDOF 7
