REMARK  Name = 5V82
REMARK  4 active torsions:
REMARK  status: ('A' for Active; 'I' for Inactive)
REMARK    1  A    between atoms: C_2  and  C_5
REMARK    2  A    between atoms: C_4  and  C_10
REMARK    3  A    between atoms: N_16  and  C_17
REMARK    4  A    between atoms: C_21  and  C_23
REMARK                            x       y       z     vdW  Elec       q    Type
REMARK                         _______ _______ _______ _____ _____    ______ ____
ROOT
ATOM      1  C   UNL     1     -22.278  34.812  -1.040  0.00  0.00    +0.058 A 
ATOM      2  C   UNL     1     -21.999  33.867  -2.016  0.00  0.00    +0.093 A 
ATOM      3  N   UNL     1     -22.108  34.114  -3.314  0.00  0.00    -0.253 NA
ATOM      4  C   UNL     1     -22.469  35.292  -3.753  0.00  0.00    +0.123 A 
ATOM      5  C   UNL     1     -22.774  36.313  -2.846  0.00  0.00    +0.038 A 
ATOM      6  C   UNL     1     -23.211  37.691  -2.999  0.00  0.00    +0.145 A 
ATOM      7  N   UNL     1     -23.361  38.187  -1.807  0.00  0.00    -0.172 NA
ATOM      8  N   UNL     1     -23.023  37.243  -0.835  0.00  0.00    -0.214 N 
ATOM     31  C   UNL     1     -22.675  36.076  -1.461  0.00  0.00    +0.080 A 
ENDROOT
BRANCH   2  24
ATOM     24  C   UNL     1     -21.557  32.535  -1.612  0.00  0.00    +0.108 A 
ATOM     25  N   UNL     1     -21.678  32.163  -0.346  0.00  0.00    -0.247 NA
ATOM     26  C   UNL     1     -21.285  30.953   0.018  0.00  0.00    +0.057 A 
ATOM     27  C   UNL     1     -20.729  30.099  -0.917  0.00  0.00    +0.133 A 
ATOM     28  N   UNL     1     -20.607  30.480  -2.181  0.00  0.00    -0.259 NA
ATOM     29  C   UNL     1     -21.441  30.513   1.450  0.00  0.00    +0.067 C 
ATOM     30  C   UNL     1     -20.997  31.680  -2.565  0.00  0.00    +0.140 A 
ENDBRANCH   2  24
BRANCH   8   9
ATOM      9  C   UNL     1     -23.146  37.465   0.538  0.00  0.00    +0.155 A 
ATOM     10  N   UNL     1     -23.185  36.440   1.382  0.00  0.00    -0.232 NA
ATOM     11  C   UNL     1     -23.347  36.613   2.683  0.00  0.00    +0.054 A 
ATOM     21  C   UNL     1     -23.506  37.885   3.210  0.00  0.00    +0.024 A 
ATOM     22  C   UNL     1     -23.495  38.980   2.354  0.00  0.00    +0.005 A 
ATOM     23  C   UNL     1     -23.330  38.768   0.994  0.00  0.00    +0.048 A 
BRANCH  11  12
ATOM     12  C   UNL     1     -23.386  35.430   3.615  0.00  0.00    +0.121 C 
ATOM     13  C   UNL     1     -22.002  35.149   4.185  0.00  0.00    +0.259 C 
ATOM     14  F   UNL     1     -21.616  36.256   4.949  0.00  0.00    -0.205 F 
ATOM     15  F   UNL     1     -21.115  34.942   3.127  0.00  0.00    -0.205 F 
ATOM     16  C   UNL     1     -22.067  33.903   5.083  0.00  0.00    +0.091 C 
ATOM     17  C   UNL     1     -22.634  32.704   4.317  0.00  0.00    +0.087 C 
ATOM     18  N   UNL     1     -23.969  33.041   3.806  0.00  0.00    -0.315 NA
ATOM     19  H   UNL     1     -24.376  32.193   3.296  0.00  0.00    +0.122 HD
ATOM     20  C   UNL     1     -23.888  34.174   2.874  0.00  0.00    +0.096 C 
ENDBRANCH  11  12
ENDBRANCH   8   9
TORSDOF 3
