REMARK  Name = 5KWH
REMARK  6 active torsions:
REMARK  status: ('A' for Active; 'I' for Inactive)
REMARK    1  A    between atoms: C_1  and  C_2
REMARK    2  A    between atoms: C_4  and  N_17
REMARK    3  A    between atoms: C_5  and  C_6
REMARK    4  A    between atoms: C_9  and  N_23
REMARK    5  A    between atoms: C_15  and  N_19
REMARK    6  A    between atoms: N_23  and  C_24
REMARK                            x       y       z     vdW  Elec       q    Type
REMARK                         _______ _______ _______ _____ _____    ______ ____
ROOT
ATOM     11  N   UNL     1     -17.695 -66.989  32.848  0.00  0.00    -0.200 N 
ATOM     12  H   UNL     1     -17.605 -67.060  31.784  0.00  0.00    +0.298 HD
ATOM     13  C   UNL     1     -18.749 -67.766  33.339  0.00  0.00    +0.324 C 
ATOM     14  N   UNL     1     -19.045 -67.628  34.640  0.00  0.00    -0.017 NA
ATOM     15  C   UNL     1     -20.132 -68.315  35.121  0.00  0.00    +0.413 C 
ATOM     16  N   UNL     1     -20.893 -69.138  34.303  0.00  0.00    -0.069 N 
ATOM     17  N   UNL     1     -21.917 -69.734  34.985  0.00  0.00    -0.197 N 
ATOM     18  H   UNL     1     -22.647 -70.419  34.607  0.00  0.00    +0.194 HD
ATOM     19  C   UNL     1     -21.798 -69.269  36.223  0.00  0.00    +0.115 C 
ATOM     20  C   UNL     1     -20.609 -69.297  32.967  0.00  0.00    +0.291 C 
ATOM     26  C   UNL     1     -20.736 -68.374  36.371  0.00  0.00    +0.106 C 
ATOM     27  C   UNL     1     -19.511 -68.606  32.487  0.00  0.00    +0.193 C 
ENDROOT
BRANCH  11  10
ATOM      1  C   UNL     1     -13.599 -63.598  35.025  0.00  0.00    +0.045 C 
ATOM      2  C   UNL     1     -14.700 -64.469  34.473  0.00  0.00    -0.029 A 
ATOM      3  C   UNL     1     -15.654 -65.079  35.309  0.00  0.00    +0.040 A 
ATOM      9  C   UNL     1     -16.618 -65.941  34.783  0.00  0.00    +0.072 A 
ATOM     10  C   UNL     1     -16.716 -66.131  33.408  0.00  0.00    +0.120 A 
ATOM     28  C   UNL     1     -15.805 -65.501  32.566  0.00  0.00    +0.049 A 
ATOM     29  C   UNL     1     -14.821 -64.680  33.096  0.00  0.00    +0.009 A 
BRANCH   3   4
ATOM      4  N   UNL     1     -15.413 -65.115  36.697  0.00  0.00    -0.285 N 
ATOM      5  H   UNL     1     -14.415 -64.879  37.003  0.00  0.00    +0.155 HD
ATOM      6  C   UNL     1     -16.278 -65.409  37.690  0.00  0.00    +0.214 C 
ATOM      7  O   UNL     1     -17.150 -64.639  38.062  0.00  0.00    -0.276 OA
ATOM      8  C   UNL     1     -16.142 -66.791  38.254  0.00  0.00    +0.109 C 
ENDBRANCH   3   4
ENDBRANCH  11  10
BRANCH  20  21
ATOM     21  N   UNL     1     -21.452 -70.129  32.200  0.00  0.00    -0.234 N 
ATOM     22  H   UNL     1     -22.358 -70.484  32.645  0.00  0.00    +0.291 HD
BRANCH  21  23
ATOM     23  C   UNL     1     -21.149 -70.530  30.826  0.00  0.00    +0.165 C 
ATOM     24  C   UNL     1     -21.521 -69.623  29.724  0.00  0.00    +0.051 C 
ATOM     25  C   UNL     1     -22.269 -70.885  29.934  0.00  0.00    +0.051 C 
ENDBRANCH  21  23
ENDBRANCH  20  21
TORSDOF 4
