REMARK  Name = 4hys_ligand
REMARK  2 active torsions:
REMARK  status: ('A' for Active; 'I' for Inactive)
REMARK    1  A    between atoms: N8_8  and  C9_9
REMARK    2  A    between atoms: C12_12  and  O15_15
REMARK                            x       y       z     vdW  Elec       q    Type
REMARK                         _______ _______ _______ _____ _____    ______ ____
ROOT
ATOM      1  N   UNL     1      -2.133  -2.224  10.377  0.00  0.00    -0.267 NA
ATOM      2  C   UNL     1      -1.155  -2.735  11.133  0.00  0.00    +0.091 A 
ATOM      3  C   UNL     1      -0.819  -2.163  12.339  0.00  0.00    +0.071 A 
ATOM      4  C   UNL     1      -1.528  -1.027  12.718  0.00  0.00    +0.180 A 
ATOM      5  N   UNL     1      -1.238  -0.424  13.940  0.00  0.00    -0.133 N 
ATOM      6  C   UNL     1      -1.821   0.703  14.461  0.00  0.00    +0.114 A 
ATOM      7  C   UNL     1      -2.782   1.605  13.998  0.00  0.00    +0.027 A 
ATOM      8  C   UNL     1      -3.147   2.666  14.797  0.00  0.00    -0.010 A 
ATOM      9  C   UNL     1      -2.567   2.853  16.045  0.00  0.00    -0.017 A 
ATOM     10  C   UNL     1      -1.622   1.990  16.518  0.00  0.00    -0.002 A 
ATOM     11  C   UNL     1      -1.239   0.898  15.725  0.00  0.00    +0.016 A 
ATOM     12  C   UNL     1      -0.282  -0.186  15.916  0.00  0.00    +0.102 A 
ATOM     13  N   UNL     1      -0.319  -0.939  14.859  0.00  0.00    -0.183 NA
ATOM     14  N   UNL     1      -2.509  -0.569  11.933  0.00  0.00    -0.226 NA
ATOM     15  C   UNL     1      -2.804  -1.146  10.766  0.00  0.00    +0.180 A 
ATOM     16  N   UNL     1      -3.828  -0.643   9.957  0.00  0.00    -0.288 N 
ATOM     17  H   UNL     1      -3.885  -0.919   8.966  0.00  0.00    +0.186 HD
ENDROOT
BRANCH  16  18
ATOM     18  C   UNL     1      -4.826   0.284  10.524  0.00  0.00    +0.098 C 
ATOM     19  C   UNL     1      -5.543   1.089   9.425  0.00  0.00    +0.030 C 
ATOM     20  C   UNL     1      -6.540   2.058  10.082  0.00  0.00    +0.034 C 
ATOM     21  C   UNL     1      -7.561   1.299  10.960  0.00  0.00    +0.115 C 
ATOM     24  C   UNL     1      -6.874   0.437  12.028  0.00  0.00    +0.034 C 
ATOM     25  C   UNL     1      -5.839  -0.490  11.380  0.00  0.00    +0.030 C 
BRANCH  21  22
ATOM     22  O   UNL     1      -8.384   2.249  11.637  0.00  0.00    -0.392 OA
ATOM     23  H   UNL     1      -9.015   1.790  12.179  0.00  0.00    +0.210 HD
ENDBRANCH  21  22
ENDBRANCH  16  18
TORSDOF 2
