REMARK  Name = 3v8t_ligand
REMARK  8 active torsions:
REMARK  status: ('A' for Active; 'I' for Inactive)
REMARK    1  A    between atoms: CAU_1  and  CAT_2
REMARK    2  A    between atoms: CAT_2  and  CAR_3
REMARK    3  A    between atoms: CAR_3  and  CAW_4
REMARK    4  A    between atoms: CAR_3  and  OAS_6
REMARK    5  A    between atoms: CAR_3  and  CAJ_7
REMARK    6  A    between atoms: CAW_4  and  CAX_5
REMARK    7  A    between atoms: CAD_15  and  CAC_16
REMARK    8  A    between atoms: CAP_23  and  CAV_24
REMARK                            x       y       z     vdW  Elec       q    Type
REMARK                         _______ _______ _______ _____ _____    ______ ____
ROOT
ATOM      4  C   UNL     1     -52.024 -17.041  31.369  0.00  0.00    -0.060 A 
ATOM      5  C   UNL     1     -52.851 -18.037  30.833  0.00  0.00    +0.001 A 
ATOM      6  C   UNL     1     -53.179 -18.033  29.471  0.00  0.00    +0.009 A 
ATOM      7  C   UNL     1     -52.696 -17.020  28.639  0.00  0.00    +0.005 A 
ATOM      8  C   UNL     1     -51.857 -16.044  29.165  0.00  0.00    +0.095 A 
ATOM      9  N   UNL     1     -51.559 -15.218  28.169  0.00  0.00    -0.256 N 
ATOM     10  H   UNL     1     -50.977 -14.384  28.248  0.00  0.00    +0.229 HD
ATOM     11  C   UNL     1     -52.140 -15.651  27.049  0.00  0.00    +0.113 A 
ATOM     24  C   UNL     1     -52.832 -16.761  27.336  0.00  0.00    +0.019 A 
ATOM     25  C   UNL     1     -51.537 -16.036  30.526  0.00  0.00    +0.057 A 
ENDROOT
BRANCH  11  12
ATOM     12  C   UNL     1     -52.007 -15.021  25.807  0.00  0.00    +0.143 A 
ATOM     13  C   UNL     1     -52.635 -15.417  24.642  0.00  0.00    +0.075 A 
ATOM     14  S   UNL     1     -53.695 -16.503  23.902  0.00  0.00    -0.033 S 
ATOM     15  C   UNL     1     -53.575 -15.802  22.388  0.00  0.00    +0.078 A 
ATOM     19  C   UNL     1     -52.732 -14.761  22.441  0.00  0.00    -0.027 A 
ATOM     20  C   UNL     1     -52.209 -14.513  23.665  0.00  0.00    +0.035 A 
ATOM     21  N   UNL     1     -51.387 -13.669  24.301  0.00  0.00    -0.220 NA
ATOM     22  N   UNL     1     -51.259 -13.959  25.500  0.00  0.00    -0.215 N 
ATOM     23  H   UNL     1     -50.665 -13.456  26.159  0.00  0.00    +0.253 HD
BRANCH  15  16
ATOM     16  C   UNL     1     -54.328 -16.282  21.145  0.00  0.00    +0.412 C 
ATOM     17  F   UNL     1     -53.936 -17.571  20.824  0.00  0.00    -0.189 F 
ATOM     18  F   UNL     1     -54.067 -15.430  20.086  0.00  0.00    -0.189 F 
ENDBRANCH  15  16
ENDBRANCH  11  12
BRANCH   4   3
ATOM      3  C   UNL     1     -51.653 -17.034  32.867  0.00  0.00    +0.024 C 
BRANCH   3   2
ATOM      1  C   UNL     1     -49.390 -18.110  32.456  0.00  0.00    -0.009 C 
ATOM      2  C   UNL     1     -50.134 -16.908  33.039  0.00  0.00    -0.041 C 
ENDBRANCH   3   2
BRANCH   3  26
ATOM     26  O   UNL     1     -52.101 -18.238  33.508  0.00  0.00    -0.448 OA
ATOM     27  H   UNL     1     -51.694 -18.996  33.083  0.00  0.00    +0.188 HD
ENDBRANCH   3  26
BRANCH   3  28
ATOM     28  C   UNL     1     -52.309 -15.828  33.554  0.00  0.00    -0.041 C 
ATOM     29  C   UNL     1     -53.829 -15.975  33.642  0.00  0.00    -0.009 C 
ENDBRANCH   3  28
ENDBRANCH   4   3
TORSDOF 6
