REMARK  Name = 2ydk_ligand
REMARK  4 active torsions:
REMARK  status: ('A' for Active; 'I' for Inactive)
REMARK    1  A    between atoms: C02_2  and  N06_6
REMARK    2  A    between atoms: C03_3  and  C10_10
REMARK    3  A    between atoms: C05_5  and  C19_19
REMARK    4  A    between atoms: N12_12  and  C13_13
REMARK                            x       y       z     vdW  Elec       q    Type
REMARK                         _______ _______ _______ _____ _____    ______ ____
ROOT
ATOM      1  S   UNL     1       1.259  71.941  10.000  0.00  0.00    -0.001 S 
ATOM      2  C   UNL     1       0.861  72.896  11.385  0.00  0.00    +0.020 A 
ATOM      9  C   UNL     1       1.845  73.832  11.634  0.00  0.00    -0.026 A 
ATOM     10  C   UNL     1       2.935  73.813  10.718  0.00  0.00    +0.059 A 
ATOM     23  C   UNL     1       2.736  72.825   9.766  0.00  0.00    +0.163 A 
ENDROOT
BRANCH  23  24
ATOM     24  N   UNL     1       3.599  72.515   8.714  0.00  0.00    -0.189 N 
ATOM     25  H   UNL     1       4.413  73.106   8.543  0.00  0.00    +0.244 HD
ATOM     26  C   UNL     1       3.374  71.433   7.907  0.00  0.00    +0.299 C 
ATOM     27  O   UNL     1       2.318  70.844   7.868  0.00  0.00    -0.385 OA
ATOM     28  N   UNL     1       4.436  71.059   7.128  0.00  0.00    -0.279 N 
ATOM     29  H   UNL     1       5.315  71.574   7.182  0.00  0.00    +0.182 HD
ATOM     30  H   UNL     1       4.349  70.265   6.494  0.00  0.00    +0.182 HD
ENDBRANCH  23  24
BRANCH   2   3
ATOM      3  C   UNL     1      -0.374  72.628  12.114  0.00  0.00    -0.029 A 
ATOM      4  C   UNL     1      -1.129  71.528  11.766  0.00  0.00    -0.008 A 
ATOM      5  C   UNL     1      -2.300  71.237  12.427  0.00  0.00    -0.010 A 
ATOM      6  C   UNL     1      -2.724  72.057  13.454  0.00  0.00    -0.013 A 
ATOM      7  C   UNL     1      -1.988  73.163  13.824  0.00  0.00    -0.010 A 
ATOM      8  C   UNL     1      -0.810  73.435  13.144  0.00  0.00    -0.008 A 
ENDBRANCH   2   3
BRANCH  10  11
ATOM     11  C   UNL     1       4.122  74.662  10.722  0.00  0.00    +0.172 C 
ATOM     12  N   UNL     1       4.228  75.583  11.729  0.00  0.00    -0.285 N 
ATOM     13  H   UNL     1       3.398  75.874  12.246  0.00  0.00    +0.183 HD
ATOM     22  O   UNL     1       5.004  74.543   9.899  0.00  0.00    -0.409 OA
BRANCH  12  14
ATOM     14  C   UNL     1       5.524  76.143  12.057  0.00  0.00    +0.141 C 
ATOM     15  C   UNL     1       5.404  77.562  12.619  0.00  0.00    +0.038 C 
ATOM     16  C   UNL     1       6.758  78.083  13.080  0.00  0.00    +0.053 C 
ATOM     17  C   UNL     1       7.404  77.160  14.099  0.00  0.00    +0.129 C 
ATOM     18  N   UNL     1       7.524  75.819  13.451  0.00  0.00    +0.229 N 
ATOM     19  H   UNL     1       7.940  75.186  14.134  0.00  0.00    +0.201 HD
ATOM     20  H   UNL     1       8.085  75.937  12.607  0.00  0.00    +0.201 HD
ATOM     21  C   UNL     1       6.217  75.234  13.039  0.00  0.00    +0.157 C 
ENDBRANCH  12  14
ENDBRANCH  10  11
TORSDOF 4
