REMARK  Name = 78W
REMARK  3 active torsions:
REMARK  status: ('A' for Active; 'I' for Inactive)
REMARK    1  A    between atoms: C9_6  and  S21_9
REMARK    2  A    between atoms: C2_10  and  N8_13
REMARK    3  A    between atoms: C11_15  and  C12_17
REMARK                            x       y       z     vdW  Elec       q    Type
REMARK                         _______ _______ _______ _____ _____    ______ ____
ROOT
ATOM      3  N   UNL     1     -11.818  40.662 -10.268  0.00  0.00    -0.223 NA
ATOM      4  C   UNL     1     -11.002  39.932  -9.639  0.00  0.00    +0.182 C 
ATOM      7  N   UNL     1     -11.051  38.602  -9.736  0.00  0.00    -0.151 NA
ATOM      8  C   UNL     1     -10.093  37.777  -9.292  0.00  0.00    +0.274 C 
ATOM      9  O   UNL     1      -8.998  38.086  -8.877  0.00  0.00    -0.268 OA
ENDROOT
BRANCH   8  10
ATOM     10  C   UNL     1     -10.348  36.331  -9.372  0.00  0.00    +0.093 A 
ATOM     11  C   UNL     1     -11.434  35.692  -8.663  0.00  0.00    +0.064 A 
ATOM     12 CL   UNL     1     -12.431  36.747  -7.731  0.00  0.00    -0.082 Cl
ATOM     13  C   UNL     1     -11.692  34.345  -8.726  0.00  0.00    +0.012 A 
ATOM     14  C   UNL     1     -10.858  33.562  -9.493  0.00  0.00    +0.003 A 
ATOM     15  C   UNL     1      -9.789  34.130 -10.191  0.00  0.00    +0.030 A 
ATOM     16  C   UNL     1      -9.485  35.484 -10.151  0.00  0.00    +0.145 A 
ATOM     17  F   UNL     1      -8.477  36.102 -10.797  0.00  0.00    -0.204 F 
ENDBRANCH   8  10
BRANCH   3   2
ATOM      1  C   UNL     1     -12.786  40.595 -12.467  0.00  0.00    +0.020 A 
ATOM      2  C   UNL     1     -12.823  40.223 -11.139  0.00  0.00    +0.083 A 
ATOM     18  C   UNL     1     -13.869  39.458 -10.633  0.00  0.00    +0.020 A 
ATOM     19  C   UNL     1     -14.877  39.024 -11.466  0.00  0.00    +0.013 A 
ATOM     20  C   UNL     1     -14.821  39.406 -12.794  0.00  0.00    +0.058 A 
ATOM     21 CL   UNL     1     -16.112  38.897 -13.898  0.00  0.00    -0.082 Cl
ATOM     22  C   UNL     1     -13.797  40.181 -13.308  0.00  0.00    +0.013 A 
ENDBRANCH   3   2
BRANCH   4   5
ATOM      5  S   UNL     1      -9.916  40.725  -8.645  0.00  0.00    -0.077 S 
ATOM      6  C   UNL     1      -8.298  40.760  -9.357  0.00  0.00    +0.077 C 
ENDBRANCH   4   5
TORSDOF 3
