REMARK  Name = 4gg7_ligand
REMARK  6 active torsions:
REMARK  status: ('A' for Active; 'I' for Inactive)
REMARK    1  A    between atoms: CBG_11  and  NBI_12
REMARK    2  A    between atoms: CBA_16  and  CAZ_17
REMARK    3  A    between atoms: C2_21  and  CBJ_22
REMARK    4  A    between atoms: NAX_26  and  CAR_27
REMARK    5  A    between atoms: CAR_27  and  CAY_28
REMARK    6  A    between atoms: CBB_33  and  NBH_34
REMARK                            x       y       z     vdW  Elec       q    Type
REMARK                         _______ _______ _______ _____ _____    ______ ____
ROOT
ATOM      1  C   UNL     1      -1.134 -17.587  14.626  0.00  0.00    +0.151 A 
ATOM      2  N   UNL     1      -1.051 -18.759  13.937  0.00  0.00    -0.258 NA
ATOM      3  C   UNL     1      -2.004 -19.081  13.034  0.00  0.00    +0.127 A 
ATOM      4  C   UNL     1      -3.067 -18.213  12.807  0.00  0.00    +0.015 A 
ATOM      5  C   UNL     1      -3.180 -16.987  13.520  0.00  0.00    +0.068 A 
ATOM     19  N   UNL     1      -0.155 -17.307  15.532  0.00  0.00    -0.231 NA
ATOM     20  C   UNL     1      -0.207 -16.166  16.240  0.00  0.00    +0.169 A 
ATOM     25  N   UNL     1      -1.174 -15.247  16.105  0.00  0.00    -0.241 NA
ATOM     26  C   UNL     1      -2.183 -15.470  15.231  0.00  0.00    +0.161 A 
ATOM     27  N   UNL     1      -3.208 -14.453  15.102  0.00  0.00    -0.279 N 
ATOM     28  H   UNL     1      -4.068 -14.631  14.564  0.00  0.00    +0.194 HD
ATOM     39  C   UNL     1      -2.183 -16.667  14.458  0.00  0.00    +0.096 A 
ENDROOT
BRANCH   4   6
ATOM      6  C   UNL     1      -4.134 -18.597  11.829  0.00  0.00    +0.021 A 
ATOM      7  C   UNL     1      -4.958 -17.727  11.105  0.00  0.00    +0.082 A 
ATOM      8  N   UNL     1      -5.807 -18.503  10.373  0.00  0.00    -0.209 NA
ATOM      9  N   UNL     1      -5.518 -19.836  10.648  0.00  0.00    -0.193 N 
ATOM     18  C   UNL     1      -4.513 -19.902  11.543  0.00  0.00    +0.185 A 
BRANCH   9  10
ATOM     10  C   UNL     1      -6.220 -21.008  10.059  0.00  0.00    +0.163 C 
ATOM     11  C   UNL     1      -6.163 -20.922   8.548  0.00  0.00    +0.090 C 
ATOM     12  C   UNL     1      -7.465 -21.299   7.857  0.00  0.00    +0.132 C 
ATOM     13  N   UNL     1      -8.344 -22.271   8.528  0.00  0.00    +0.227 N 
ATOM     14  H   UNL     1      -8.058 -23.188   8.221  0.00  0.00    +0.201 HD
ATOM     15  H   UNL     1      -9.283 -22.088   8.210  0.00  0.00    +0.201 HD
ATOM     16  C   UNL     1      -8.385 -22.302   9.993  0.00  0.00    +0.132 C 
ATOM     17  C   UNL     1      -7.613 -21.132  10.635  0.00  0.00    +0.090 C 
ENDBRANCH   9  10
ENDBRANCH   4   6
BRANCH  20  21
ATOM     21  C   UNL     1       0.913 -15.872  17.233  0.00  0.00    +0.404 C 
ATOM     22  F   UNL     1       0.431 -15.434  18.382  0.00  0.00    -0.217 F 
ATOM     23  F   UNL     1       1.653 -14.932  16.679  0.00  0.00    -0.217 F 
ATOM     24  F   UNL     1       1.607 -16.968  17.501  0.00  0.00    -0.217 F 
ENDBRANCH  20  21
BRANCH  27  29
ATOM     29  C   UNL     1      -2.985 -13.176  15.754  0.00  0.00    +0.207 C 
BRANCH  29  30
ATOM     30  C   UNL     1      -3.642 -13.329  17.113  0.00  0.00    -0.012 A 
ATOM     31  C   UNL     1      -5.057 -13.440  17.210  0.00  0.00    +0.007 A 
ATOM     32  C   UNL     1      -5.660 -13.615  18.465  0.00  0.00    +0.001 A 
ATOM     33  C   UNL     1      -4.865 -13.703  19.611  0.00  0.00    +0.038 A 
ATOM     34  C   UNL     1      -3.449 -13.606  19.500  0.00  0.00    +0.193 A 
ATOM     38  C   UNL     1      -2.840 -13.422  18.253  0.00  0.00    +0.047 A 
BRANCH  34  35
ATOM     35  N   UNL     1      -2.668 -13.702  20.695  0.00  0.00    +0.313 N 
ATOM     36  O   UNL     1      -1.438 -13.226  20.761  0.00  0.00    +0.178 OA
ATOM     37  O   UNL     1      -3.225 -14.278  21.715  0.00  0.00    +0.178 OA
ENDBRANCH  34  35
ENDBRANCH  29  30
ENDBRANCH  27  29
TORSDOF 6
