REMARK  Name = 6S1J
REMARK  1 active torsions:
REMARK  status: ('A' for Active; 'I' for Inactive)
REMARK    1  A    between atoms: C7_13  and  C8_14
REMARK                            x       y       z     vdW  Elec       q    Type
REMARK                         _______ _______ _______ _____ _____    ______ ____
ROOT
ATOM      9  C   UNL     1      17.109 -53.405  37.955  0.00  0.00    +0.380 A 
ATOM     10  N   UNL     1      16.603 -54.599  37.578  0.00  0.00    -0.760 NA
ATOM     11  C   UNL     1      15.583 -55.063  38.320  0.00  0.00    +0.810 A 
ATOM     12  N   UNL     1      15.025 -54.470  39.381  0.00  0.00    -0.760 NA
ATOM     13  C   UNL     1      15.565 -53.286  39.714  0.00  0.00    +0.250 A 
ATOM     14  N   UNL     1      15.064 -56.253  37.956  0.00  0.00    -0.250 N 
ATOM     15  C   UNL     1      15.610 -57.063  36.873  0.00  0.00    +0.000 C 
ATOM     16  C   UNL     1      15.098 -58.399  37.121  0.00  0.00    +0.250 C 
ATOM     17  F   UNL     1      16.053 -58.995  37.985  0.00  0.00    -0.300 F 
ATOM     18  C   UNL     1      13.831 -58.219  37.874  0.00  0.00    -0.100 C 
ATOM     19  C   UNL     1      14.014 -56.936  38.683  0.00  0.00    +0.000 C 
ATOM     20  C   UNL     1      16.614 -52.709  39.042  0.00  0.00    -0.130 A 
ENDROOT
BRANCH   9   8
ATOM      1  C   UNL     1      18.492 -54.584  35.138  0.00  0.00    -0.100 C 
ATOM      2  C   UNL     1      18.709 -53.457  35.971  0.00  0.00    +0.100 C 
ATOM      3  N   UNL     1      19.676 -52.588  35.610  0.00  0.00    -0.100 N 
ATOM      4  N   UNL     1      20.497 -52.702  34.548  0.00  0.00    -0.050 NA
ATOM      5  C   UNL     1      20.275 -53.793  33.816  0.00  0.00    -0.150 C 
ATOM      6  N   UNL     1      19.835 -51.550  36.424  0.00  0.00    -0.350 NA
ATOM      7  C   UNL     1      18.916 -51.745  37.341  0.00  0.00    +0.000 C 
ATOM      8  C   UNL     1      18.164 -52.907  37.124  0.00  0.00    +0.000 C 
ATOM     21  C   UNL     1      19.285 -54.762  34.049  0.00  0.00    -0.100 C 
ENDBRANCH   9   8
TORSDOF 1
