REMARK  Name = 5N67
REMARK  7 active torsions:
REMARK  status: ('A' for Active; 'I' for Inactive)
REMARK    1  A    between atoms: C_9  and  C_11
REMARK    2  A    between atoms: N_14  and  C_15
REMARK    3  A    between atoms: C_20  and  C_21
REMARK    4  A    between atoms: C_23  and  N_24
REMARK    5  A    between atoms: N_27  and  C_28
REMARK    6  A    between atoms: C_28  and  C_29
REMARK    7  A    between atoms: C_29  and  C_30
REMARK                            x       y       z     vdW  Elec       q    Type
REMARK                         _______ _______ _______ _____ _____    ______ ____
ROOT
ATOM      1  C   UNL     1     -24.305 -15.804   8.097  0.00  0.00    +0.078 A 
ATOM      2  C   UNL     1     -24.702 -15.256   6.878  0.00  0.00    +0.051 A 
ATOM      3  C   UNL     1     -25.218 -13.961   6.824  0.00  0.00    +0.027 A 
ATOM      4  C   UNL     1     -25.342 -13.208   7.995  0.00  0.00    +0.023 A 
ATOM      5  C   UNL     1     -24.943 -13.752   9.215  0.00  0.00    +0.015 A 
ATOM      9  N   UNL     1     -23.798 -17.057   8.167  0.00  0.00    -0.227 NA
ATOM     10  C   UNL     1     -23.447 -17.593   9.343  0.00  0.00    +0.162 A 
ATOM     26  N   UNL     1     -23.537 -16.880  10.464  0.00  0.00    -0.212 NA
ATOM     27  C   UNL     1     -24.028 -15.648  10.451  0.00  0.00    +0.130 A 
ATOM     28  N   UNL     1     -24.134 -14.964  11.580  0.00  0.00    -0.328 N 
ATOM     29  H   UNL     1     -24.338 -13.914  11.548  0.00  0.00    +0.147 HD
ATOM     38  C   UNL     1     -24.431 -15.053   9.262  0.00  0.00    +0.040 A 
ENDROOT
BRANCH  10  11
ATOM     11  C   UNL     1     -22.861 -18.848   9.433  0.00  0.00    +0.019 A 
ATOM     12  C   UNL     1     -22.571 -19.614   8.309  0.00  0.00    +0.013 A 
ATOM     13  C   UNL     1     -21.917 -20.834   8.453  0.00  0.00    +0.024 A 
ATOM     14  C   UNL     1     -21.553 -21.281   9.723  0.00  0.00    +0.030 A 
ATOM     15  C   UNL     1     -21.813 -20.497  10.840  0.00  0.00    +0.024 A 
ATOM     25  C   UNL     1     -22.460 -19.283  10.687  0.00  0.00    +0.013 A 
BRANCH  14  16
ATOM     16  N   UNL     1     -20.905 -22.445   9.877  0.00  0.00    -0.327 N 
ATOM     17  C   UNL     1     -20.157 -22.988   8.731  0.00  0.00    +0.124 C 
ATOM     18  C   UNL     1     -18.833 -23.532   9.231  0.00  0.00    +0.126 C 
ATOM     19  N   UNL     1     -19.063 -24.557  10.273  0.00  0.00    -0.299 N 
ATOM     20  C   UNL     1     -18.163 -25.520  10.473  0.00  0.00    +0.213 C 
ATOM     21  C   UNL     1     -16.927 -25.480   9.565  0.00  0.00    +0.109 C 
ATOM     22  O   UNL     1     -18.302 -26.392  11.323  0.00  0.00    -0.276 OA
ATOM     23  C   UNL     1     -20.293 -24.527  11.098  0.00  0.00    +0.126 C 
ATOM     24  C   UNL     1     -20.804 -23.094  11.212  0.00  0.00    +0.124 C 
ENDBRANCH  14  16
ENDBRANCH  10  11
BRANCH   3   6
ATOM      6  N   UNL     1     -25.596 -13.441   5.654  0.00  0.00    -0.358 N 
ATOM      7  H   UNL     1     -25.992 -12.448   5.613  0.00  0.00    +0.142 HD
ATOM      8  H   UNL     1     -25.503 -14.018   4.757  0.00  0.00    +0.142 HD
ENDBRANCH   3   6
BRANCH  28  30
ATOM     30  C   UNL     1     -23.973 -15.636  12.877  0.00  0.00    +0.107 C 
BRANCH  30  31
ATOM     31  C   UNL     1     -25.355 -15.700  13.521  0.00  0.00    +0.054 C 
BRANCH  31  32
ATOM     32  C   UNL     1     -25.339 -16.276  14.788  0.00  0.00    -0.046 A 
ATOM     33  C   UNL     1     -26.541 -16.641  15.380  0.00  0.00    +0.003 A 
ATOM     34  C   UNL     1     -26.571 -17.218  16.643  0.00  0.00    +0.000 A 
ATOM     35  C   UNL     1     -25.383 -17.433  17.325  0.00  0.00    +0.000 A 
ATOM     36  C   UNL     1     -24.175 -17.073  16.736  0.00  0.00    +0.000 A 
ATOM     37  C   UNL     1     -24.147 -16.490  15.468  0.00  0.00    +0.003 A 
ENDBRANCH  31  32
ENDBRANCH  30  31
ENDBRANCH  28  30
TORSDOF 6
