REMARK  Name = 3nuy_ligand
REMARK  0 active torsions:
REMARK  status: ('A' for Active; 'I' for Inactive)
REMARK                            x       y       z     vdW  Elec       q    Type
REMARK                         _______ _______ _______ _____ _____    ______ ____
ROOT
ATOM      1  C   UNL     1     -40.575  17.115  13.484  0.00  0.00    -0.006 A 
ATOM      2  C   UNL     1     -40.213  15.814  13.198  0.00  0.00    +0.017 A 
ATOM      3  C   UNL     1     -40.988  15.037  12.358  0.00  0.00    +0.064 A 
ATOM      4  C   UNL     1     -40.642  13.734  12.066  0.00  0.00    +0.238 A 
ATOM      5  O   UNL     1     -39.500  13.231  12.627  0.00  0.00    -0.385 OA
ATOM      6  N   UNL     1     -41.333  12.922  11.263  0.00  0.00    -0.198 N 
ATOM      7  H   UNL     1     -41.063  11.981  11.059  0.00  0.00    +0.256 HD
ATOM      8  C   UNL     1     -42.427  13.507  10.762  0.00  0.00    +0.279 A 
ATOM      9  N   UNL     1     -42.866  14.751  10.966  0.00  0.00    -0.296 NA
ATOM     10  C   UNL     1     -42.134  15.523  11.776  0.00  0.00    +0.024 A 
ATOM     11  C   UNL     1     -42.478  16.828  12.063  0.00  0.00    +0.007 A 
ATOM     12  C   UNL     1     -41.714  17.608  12.900  0.00  0.00    -0.001 A 
ENDROOT
TORSDOF 0
