REMARK  Name = 3tjc_ligand
REMARK  4 active torsions:
REMARK  status: ('A' for Active; 'I' for Inactive)
REMARK    1  A    between atoms: N3_9  and  C15_22
REMARK    2  A    between atoms: N4_11  and  C18_25
REMARK    3  A    between atoms: C11_18  and  C12_19
REMARK    4  A    between atoms: C14_21  and  C16_23
REMARK                            x       y       z     vdW  Elec       q    Type
REMARK                         _______ _______ _______ _____ _____    ______ ____
ROOT
ATOM      9  C   UNL     1     114.951  65.951   9.276  0.00  0.00    +0.030 A 
ATOM     10  C   UNL     1     116.199  66.417   8.799  0.00  0.00    -0.011 A 
ATOM     11  C   UNL     1     116.690  67.159   9.779  0.00  0.00    +0.028 A 
ATOM     12  C   UNL     1     117.990  67.897   9.826  0.00  0.00    +0.112 A 
ATOM     13  N   UNL     1     118.800  67.906   8.746  0.00  0.00    -0.319 N 
ATOM     14  H   UNL     1     119.687  68.409   8.778  0.00  0.00    +0.180 HD
ATOM     15  H   UNL     1     118.525  67.410   7.898  0.00  0.00    +0.180 HD
ATOM     16  N   UNL     1     118.438  68.631  10.907  0.00  0.00    -0.291 NA
ATOM     17  C   UNL     1     117.697  68.743  12.045  0.00  0.00    +0.080 A 
ATOM     18  C   UNL     1     116.402  68.080  12.122  0.00  0.00    +0.071 A 
ATOM     24  C   UNL     1     115.943  67.313  10.988  0.00  0.00    +0.063 A 
ATOM     25  S   UNL     1     114.626  66.519  10.828  0.00  0.00    -0.028 S 
ENDROOT
BRANCH   9   7
ATOM      4  C   UNL     1     112.225  63.544   6.909  0.00  0.00    +0.043 A 
ATOM      5  C   UNL     1     111.927  63.768   8.339  0.00  0.00    +0.011 A 
ATOM      6  C   UNL     1     112.843  64.517   9.116  0.00  0.00    -0.004 A 
ATOM      7  C   UNL     1     114.059  65.051   8.490  0.00  0.00    -0.019 A 
ATOM      8  C   UNL     1     114.370  64.802   7.070  0.00  0.00    -0.004 A 
ATOM     26  C   UNL     1     113.458  64.057   6.297  0.00  0.00    +0.011 A 
BRANCH   4   3
ATOM      1  C   UNL     1     109.146  63.650   5.262  0.00  0.00    +0.184 C 
ATOM      2  C   UNL     1     109.848  63.003   6.418  0.00  0.00    +0.159 C 
ATOM      3  N   UNL     1     111.311  62.943   6.093  0.00  0.00    -0.303 N 
ATOM     27  C   UNL     1     111.650  62.234   4.863  0.00  0.00    +0.159 C 
ATOM     28  C   UNL     1     110.921  62.990   3.767  0.00  0.00    +0.184 C 
ATOM     29  O   UNL     1     109.494  62.928   4.098  0.00  0.00    -0.376 OA
ENDBRANCH   4   3
ENDBRANCH   9   7
BRANCH  18  19
ATOM     19  C   UNL     1     115.596  68.197  13.334  0.00  0.00    +0.198 C 
ATOM     20  N   UNL     1     116.109  68.982  14.293  0.00  0.00    -0.291 N 
ATOM     21  H   UNL     1     117.099  69.228  14.289  0.00  0.00    +0.184 HD
ATOM     22  C   UNL     1     115.222  69.478  15.345  0.00  0.00    +0.164 C 
ATOM     23  O   UNL     1     114.532  67.648  13.501  0.00  0.00    -0.391 OA
ENDBRANCH  18  19
TORSDOF 3
