REMARK  Name = LOC
REMARK  5 active torsions:
REMARK  status: ('A' for Active; 'I' for Inactive)
REMARK    1  A    between atoms: N1_4  and  C11_5
REMARK    2  A    between atoms: C5_12  and  O3_19
REMARK    3  A    between atoms: C3_13  and  O2_17
REMARK    4  A    between atoms: C1_14  and  O1_15
REMARK    5  A    between atoms: C17_25  and  O6_28
REMARK                            x       y       z     vdW  Elec       q    Type
REMARK                         _______ _______ _______ _____ _____    ______ ____
ROOT
ATOM      4  C   UNL     1     -13.399   7.803  -2.864  0.00  0.00    +0.118 C 
ATOM      5  C   UNL     1     -13.178   6.971  -1.615  0.00  0.00    +0.001 A 
ATOM      6  C   UNL     1     -11.926   7.242  -0.887  0.00  0.00    +0.001 A 
ATOM      7  C   UNL     1     -11.477   6.685   0.246  0.00  0.00    +0.003 A 
ATOM      8  C   UNL     1     -12.002   5.583   1.032  0.00  0.00    +0.040 A 
ATOM      9  C   UNL     1     -13.158   4.933   0.899  0.00  0.00    +0.177 A 
ATOM     12  C   UNL     1     -14.204   5.194  -0.089  0.00  0.00    +0.229 A 
ATOM     13  O   UNL     1     -15.234   4.557   0.034  0.00  0.00    -0.283 OA
ATOM     14  C   UNL     1     -11.050   8.364  -1.368  0.00  0.00    +0.033 A 
ATOM     15  C   UNL     1      -9.675   8.168  -1.526  0.00  0.00    +0.175 A 
ATOM     18  C   UNL     1      -8.870   9.222  -1.954  0.00  0.00    +0.206 A 
ATOM     21  C   UNL     1      -9.425  10.475  -2.223  0.00  0.00    +0.175 A 
ATOM     22  C   UNL     1     -10.789  10.666  -2.060  0.00  0.00    +0.036 A 
ATOM     25  C   UNL     1     -11.599   9.626  -1.624  0.00  0.00    -0.016 A 
ATOM     26  C   UNL     1     -13.072   9.932  -1.475  0.00  0.00    +0.029 C 
ATOM     27  C   UNL     1     -14.146   6.116  -1.232  0.00  0.00    +0.043 A 
ATOM     28  C   UNL     1     -13.909   9.211  -2.536  0.00  0.00    +0.031 C 
ENDROOT
BRANCH   4   3
ATOM      1  O   UNL     1     -14.537   6.037  -5.780  0.00  0.00    -0.273 OA
ATOM      2  C   UNL     1     -13.811   6.418  -4.855  0.00  0.00    +0.242 C 
ATOM      3  N   UNL     1     -14.268   7.177  -3.847  0.00  0.00    -0.203 NA
ATOM     29  C   UNL     1     -12.361   6.097  -4.796  0.00  0.00    +0.096 C 
ENDBRANCH   4   3
BRANCH   9  10
ATOM     10  O   UNL     1     -13.406   3.855   1.836  0.00  0.00    -0.468 OA
ATOM     11  C   UNL     1     -12.333   3.189   2.506  0.00  0.00    +0.253 C 
ENDBRANCH   9  10
BRANCH  15  16
ATOM     16  O   UNL     1      -9.087   6.949  -1.296  0.00  0.00    -0.468 OA
ATOM     17  C   UNL     1      -9.045   6.052  -2.415  0.00  0.00    +0.253 C 
ENDBRANCH  15  16
BRANCH  18  19
ATOM     19  O   UNL     1      -7.506   9.036  -2.091  0.00  0.00    -0.465 OA
ATOM     20  C   UNL     1      -6.698   9.467  -1.006  0.00  0.00    +0.253 C 
ENDBRANCH  18  19
BRANCH  21  23
ATOM     23  O   UNL     1      -8.608  11.505  -2.635  0.00  0.00    -0.468 OA
ATOM     24  C   UNL     1      -9.039  12.853  -2.882  0.00  0.00    +0.253 C 
ENDBRANCH  21  23
TORSDOF 5
