REMARK  Name = 1pmn_ligand
REMARK  8 active torsions:
REMARK  status: ('A' for Active; 'I' for Inactive)
REMARK    1  A    between atoms: N1_1  and  C6_6
REMARK    2  A    between atoms: C2_2  and  C16_9
REMARK    3  A    between atoms: C4_4  and  C35_16
REMARK    4  A    between atoms: C5_5  and  C36_17
REMARK    5  A    between atoms: C6_6  and  C7_7
REMARK    6  A    between atoms: C7_7  and  C10_8
REMARK    7  A    between atoms: N19_12  and  C31_15
REMARK    8  A    between atoms: N54_30  and  C55_31
REMARK                            x       y       z     vdW  Elec       q    Type
REMARK                         _______ _______ _______ _____ _____    ______ ____
ROOT
ATOM      1  N   UNL     1      22.929  10.681  31.054  0.00  0.00    -0.231 N 
ATOM      5  C   UNL     1      21.818  10.391  32.070  0.00  0.00    +0.109 A 
ATOM     17  C   UNL     1      21.286  11.715  32.506  0.00  0.00    +0.038 A 
ATOM     26  N   UNL     1      22.099  12.689  31.761  0.00  0.00    -0.310 NA
ATOM     27  C   UNL     1      23.012  12.032  30.959  0.00  0.00    +0.130 A 
ENDROOT
BRANCH   5   6
ATOM      6  C   UNL     1      21.478   8.914  32.226  0.00  0.00    +0.067 A 
ATOM      7  N   UNL     1      22.318   7.950  31.867  0.00  0.00    -0.260 NA
ATOM      8  C   UNL     1      21.978   6.679  32.078  0.00  0.00    +0.181 A 
ATOM      9  N   UNL     1      22.907   5.776  31.683  0.00  0.00    -0.288 N 
ATOM     10  H   UNL     1      23.538   5.369  32.388  0.00  0.00    +0.186 HD
ATOM     14  N   UNL     1      20.831   6.265  32.634  0.00  0.00    -0.264 NA
ATOM     15  C   UNL     1      19.962   7.222  33.017  0.00  0.00    +0.092 A 
ATOM     16  C   UNL     1      20.240   8.598  32.848  0.00  0.00    +0.040 A 
BRANCH   9  11
ATOM     11  C   UNL     1      23.040   5.365  30.301  0.00  0.00    +0.098 C 
ATOM     12  C   UNL     1      24.257   5.791  29.633  0.00  0.00    +0.030 C 
ATOM     13  C   UNL     1      24.372   4.720  30.671  0.00  0.00    +0.030 C 
ENDBRANCH   9  11
ENDBRANCH   5   6
BRANCH  17  18
ATOM     18  C   UNL     1      20.233  12.113  33.484  0.00  0.00    -0.019 A 
ATOM     19  C   UNL     1      19.283  13.102  33.140  0.00  0.00    +0.003 A 
ATOM     20  C   UNL     1      18.251  13.461  34.084  0.00  0.00    +0.012 A 
ATOM     21  C   UNL     1      18.187  12.800  35.352  0.00  0.00    +0.052 A 
ATOM     22 CL   UNL     1      16.917  13.246  36.437  0.00  0.00    -0.072 Cl
ATOM     23  C   UNL     1      19.164  11.823  35.678  0.00  0.00    +0.052 A 
ATOM     24 CL   UNL     1      19.205  10.973  37.165  0.00  0.00    -0.071 Cl
ATOM     25  C   UNL     1      20.149  11.487  34.750  0.00  0.00    +0.018 A 
ENDBRANCH  17  18
BRANCH  27  28
ATOM     28  C   UNL     1      23.755  12.832  30.259  0.00  0.00    +0.106 C 
ATOM     29  C   UNL     1      24.742  13.694  31.104  0.00  0.00    +0.077 C 
ATOM     30  C   UNL     1      25.646  14.618  30.217  0.00  0.00    +0.134 C 
ATOM     31  N   UNL     1      24.867  15.478  29.304  0.00  0.00    +0.233 N 
ATOM     32  H   UNL     1      24.296  16.085  29.871  0.00  0.00    +0.203 HD
ATOM     33  C   UNL     1      25.771  16.330  28.490  0.00  0.00    +0.190 C 
ATOM     34  C   UNL     1      23.949  14.690  28.421  0.00  0.00    +0.134 C 
ATOM     35  C   UNL     1      22.993  13.755  29.246  0.00  0.00    +0.077 C 
ENDBRANCH  27  28
BRANCH   1   2
ATOM      2  C   UNL     1      23.810   9.773  30.284  0.00  0.00    +0.182 C 
BRANCH   2   3
ATOM      3  C   UNL     1      25.052   9.346  31.058  0.00  0.00    +0.030 C 
ATOM      4  C   UNL     1      26.273   9.103  30.175  0.00  0.00    +0.007 C 
ENDBRANCH   2   3
ENDBRANCH   1   2
TORSDOF 6
