REMARK  Name = 3oxi_ligand
REMARK  6 active torsions:
REMARK  status: ('A' for Active; 'I' for Inactive)
REMARK    1  A    between atoms: N1_3  and  C2_5
REMARK    2  A    between atoms: O2_6  and  C6_11
REMARK    3  A    between atoms: O2_6  and  C9_12
REMARK    4  A    between atoms: C3_8  and  C6_11
REMARK    5  A    between atoms: C11_13  and  C12_14
REMARK    6  A    between atoms: C12_14  and  C14_15
REMARK                            x       y       z     vdW  Elec       q    Type
REMARK                         _______ _______ _______ _____ _____    ______ ____
ROOT
ATOM      5  N   UNL     1      -0.907  -1.311 -32.095  0.00  0.00    -0.237 N 
ATOM      6  H   UNL     1      -1.427  -0.513 -31.791  0.00  0.00    +0.225 HD
ATOM      7  C   UNL     1      -1.256  -1.956 -33.211  0.00  0.00    +0.216 C 
ATOM     14  O   UNL     1      -0.662  -2.949 -33.631  0.00  0.00    -0.382 OA
ENDROOT
BRANCH   5   4
ATOM      1  S   UNL     1       1.816  -1.633 -29.346  0.00  0.00    -0.049 S 
ATOM      2  C   UNL     1       2.010  -2.864 -30.545  0.00  0.00    +0.079 A 
ATOM      3  C   UNL     1       1.062  -2.806 -31.560  0.00  0.00    +0.009 A 
ATOM      4  C   UNL     1       0.159  -1.748 -31.377  0.00  0.00    +0.073 A 
ATOM     15  C   UNL     1       0.433  -0.971 -30.137  0.00  0.00    +0.115 A 
BRANCH  15  16
ATOM     16  C   UNL     1      -0.301   0.201 -29.595  0.00  0.00    +0.238 C 
ATOM     19  O   UNL     1      -1.396   0.521 -30.000  0.00  0.00    -0.384 OA
BRANCH  16  17
ATOM     17  O   UNL     1       0.206   1.035 -28.570  0.00  0.00    -0.289 OA
ATOM     18  C   UNL     1      -0.583   2.224 -28.394  0.00  0.00    +0.235 C 
ENDBRANCH  16  17
ENDBRANCH  15  16
ENDBRANCH   5   4
BRANCH   7   8
ATOM      8  C   UNL     1      -2.454  -1.461 -33.977  0.00  0.00    +0.226 C 
BRANCH   8   9
ATOM      9  C   UNL     1      -3.056  -0.211 -33.402  0.00  0.00    +0.031 A 
ATOM     10  C   UNL     1      -3.913   0.082 -32.323  0.00  0.00    -0.051 A 
ATOM     11  C   UNL     1      -4.186   1.454 -32.198  0.00  0.00    -0.055 A 
ATOM     12  C   UNL     1      -3.562   2.228 -33.166  0.00  0.00    +0.041 A 
ATOM     13  S   UNL     1      -2.619   1.237 -34.224  0.00  0.00    -0.042 S 
ENDBRANCH   8   9
ENDBRANCH   7   8
TORSDOF 5
