REMARK  Name = 4CTB
REMARK  4 active torsions:
REMARK  status: ('A' for Active; 'I' for Inactive)
REMARK    1  A    between atoms: C_2  and  N_17
REMARK    2  A    between atoms: C_8  and  C_18
REMARK    3  A    between atoms: C_19  and  C_28
REMARK    4  A    between atoms: N_31  and  C_32
REMARK                            x       y       z     vdW  Elec       q    Type
REMARK                         _______ _______ _______ _____ _____    ______ ____
ROOT
ATOM      1  C   UNL     1      30.111  44.600   9.412  0.00  0.00    +0.257 A 
ATOM      2  O   UNL     1      31.141  43.679   9.318  0.00  0.00    -0.466 OA
ATOM      3  C   UNL     1      32.252  43.963   8.439  0.00  0.00    +0.203 C 
ATOM      4  C   UNL     1      32.966  42.630   8.220  0.00  0.00    +0.057 C 
ATOM      5  C   UNL     1      33.215  45.006   9.039  0.00  0.00    +0.007 A 
ATOM      6  C   UNL     1      33.722  44.835  10.378  0.00  0.00    +0.046 A 
ATOM      7  C   UNL     1      34.606  45.790  10.944  0.00  0.00    +0.124 A 
ATOM      8  F   UNL     1      35.059  45.608  12.183  0.00  0.00    -0.205 F 
ATOM      9  C   UNL     1      35.019  46.929  10.225  0.00  0.00    +0.039 A 
ATOM     10  C   UNL     1      34.543  47.127   8.911  0.00  0.00    +0.016 A 
ATOM     11  C   UNL     1      33.650  46.180   8.318  0.00  0.00    +0.044 A 
ATOM     12  C   UNL     1      33.202  46.473   6.923  0.00  0.00    +0.247 C 
ATOM     13  O   UNL     1      33.700  45.743   6.061  0.00  0.00    -0.270 OA
ATOM     14  N   UNL     1      32.288  47.541   6.670  0.00  0.00    -0.295 N 
ATOM     15  C   UNL     1      31.932  47.787   5.256  0.00  0.00    +0.133 C 
ATOM     16  C   UNL     1      31.681  48.439   7.714  0.00  0.00    +0.165 C 
ATOM     17  C   UNL     1      30.206  48.655   7.574  0.00  0.00    +0.086 A 
ATOM     18  C   UNL     1      29.109  47.903   8.043  0.00  0.00    +0.094 A 
ATOM     19  N   UNL     1      27.996  48.632   7.580  0.00  0.00    -0.321 N 
ATOM     20  C   UNL     1      26.600  48.397   7.719  0.00  0.00    +0.152 C 
ATOM     21  C   UNL     1      25.700  49.245   7.187  0.00  0.00    +0.117 C 
ATOM     24  C   UNL     1      26.195  50.424   6.456  0.00  0.00    +0.002 C 
ATOM     25  C   UNL     1      27.534  50.668   6.309  0.00  0.00    +0.044 C 
ATOM     26  C   UNL     1      28.495  49.755   6.881  0.00  0.00    +0.134 A 
ATOM     27  C   UNL     1      29.064  46.645   8.836  0.00  0.00    +0.111 A 
ATOM     28  C   UNL     1      28.033  46.302   9.723  0.00  0.00    +0.143 A 
ATOM     29  N   UNL     1      28.024  45.143  10.440  0.00  0.00    -0.234 NA
ATOM     30  N   UNL     1      29.804  49.773   6.874  0.00  0.00    -0.231 NA
ATOM     31  N   UNL     1      30.116  45.780   8.683  0.00  0.00    -0.207 NA
ATOM     32  C   UNL     1      29.064  44.275  10.295  0.00  0.00    +0.179 A 
ENDROOT
BRANCH  32  33
ATOM     33  N   UNL     1      29.072  43.082  11.025  0.00  0.00    -0.339 N 
ATOM     34  H   UNL     1      28.265  42.856  11.690  0.00  0.00    +0.144 HD
ATOM     35  H   UNL     1      29.885  42.395  10.918  0.00  0.00    +0.144 HD
ENDBRANCH  32  33
BRANCH  21  22
ATOM     22  C   UNL     1      24.316  48.982   7.343  0.00  0.00    +0.077 C 
ATOM     23  N   UNL     1      23.196  48.733   7.496  0.00  0.00    -0.196 NA
ENDBRANCH  21  22
TORSDOF 2
