REMARK  Name = 6XK
REMARK  6 active torsions:
REMARK  status: ('A' for Active; 'I' for Inactive)
REMARK    1  A    between atoms: C7_3  and  N16_22
REMARK    2  A    between atoms: C10_6  and  C11_7
REMARK    3  A    between atoms: C13_9  and  C14_10
REMARK    4  A    between atoms: N4_18  and  C5_19
REMARK    5  A    between atoms: C23_27  and  C26_28
REMARK    6  A    between atoms: N28_30  and  C29_31
REMARK                            x       y       z     vdW  Elec       q    Type
REMARK                         _______ _______ _______ _____ _____    ______ ____
ROOT
ATOM      8  N   UNL     1     -18.164 -67.357  32.533  0.00  0.00    -0.009 NA
ATOM      9  C   UNL     1     -19.205 -68.033  33.153  0.00  0.00    +0.351 C 
ATOM     10  N   UNL     1     -19.332 -67.862  34.481  0.00  0.00    -0.019 NA
ATOM     11  C   UNL     1     -20.391 -68.459  35.073  0.00  0.00    +0.290 A 
ATOM     12  C   UNL     1     -20.831 -68.486  36.388  0.00  0.00    +0.151 A 
ATOM     15  C   UNL     1     -21.988 -69.282  36.375  0.00  0.00    +0.136 A 
ATOM     16  N   UNL     1     -22.284 -69.740  35.175  0.00  0.00    -0.159 NA
ATOM     17  N   UNL     1     -21.302 -69.230  34.373  0.00  0.00    -0.176 N 
ATOM     18  C   UNL     1     -21.177 -69.427  33.020  0.00  0.00    +0.152 C 
ATOM     19  N   UNL     1     -22.094 -70.225  32.353  0.00  0.00    -0.258 NA
ATOM     23  C   UNL     1     -20.112 -68.810  32.401  0.00  0.00    +0.187 C 
ENDROOT
BRANCH   8   7
ATOM      5  C   UNL     1     -15.817 -65.279  34.565  0.00  0.00    +0.073 A 
ATOM      6  C   UNL     1     -16.994 -65.934  34.195  0.00  0.00    +0.061 A 
ATOM      7  C   UNL     1     -17.095 -66.530  32.941  0.00  0.00    +0.184 A 
ATOM     24  C   UNL     1     -16.059 -66.388  32.026  0.00  0.00    +0.044 A 
ATOM     25  C   UNL     1     -14.934 -65.660  32.359  0.00  0.00    +0.001 A 
ATOM     26  C   UNL     1     -14.788 -65.097  33.626  0.00  0.00    -0.007 A 
BRANCH   5   4
ATOM      1  C   UNL     1     -16.407 -66.839  37.371  0.00  0.00    +0.097 C 
ATOM      2  C   UNL     1     -16.204 -65.378  37.077  0.00  0.00    +0.246 C 
ATOM      3  O   UNL     1     -16.515 -64.504  37.880  0.00  0.00    -0.273 OA
ATOM      4  N   UNL     1     -15.519 -65.114  35.938  0.00  0.00    -0.179 NA
ENDBRANCH   5   4
BRANCH  26  27
ATOM     27  C   UNL     1     -13.538 -64.327  34.021  0.00  0.00    +0.025 C 
ATOM     28  C   UNL     1     -12.166 -64.626  33.491  0.00  0.00    +0.006 C 
ATOM     29  C   UNL     1     -12.865 -63.373  33.073  0.00  0.00    +0.024 C 
BRANCH  29  30
ATOM     30  C   UNL     1     -12.454 -62.039  33.671  0.00  0.00    +0.110 C 
ATOM     31  N   UNL     1     -13.592 -61.106  33.606  0.00  0.00    -0.131 NA
ENDBRANCH  29  30
ENDBRANCH  26  27
ENDBRANCH   8   7
BRANCH  19  20
ATOM     20  C   UNL     1     -21.998 -70.452  30.909  0.00  0.00    +0.105 C 
ATOM     21  C   UNL     1     -21.046 -71.474  30.415  0.00  0.00    +0.026 C 
ATOM     22  C   UNL     1     -22.511 -71.730  30.360  0.00  0.00    +0.026 C 
ENDBRANCH  19  20
BRANCH  12  13
ATOM     13  C   UNL     1     -20.199 -67.865  37.511  0.00  0.00    +0.108 C 
ATOM     14  N   UNL     1     -19.660 -67.360  38.384  0.00  0.00    -0.191 NA
ENDBRANCH  12  13
TORSDOF 6
