REMARK  Name = 1wzy_ligand
REMARK  5 active torsions:
REMARK  status: ('A' for Active; 'I' for Inactive)
REMARK    1  A    between atoms: C8_8  and  C11_11
REMARK    2  A    between atoms: C9_9  and  C10_10
REMARK    3  A    between atoms: N29_24  and  C3_26
REMARK    4  A    between atoms: C3_26  and  C7_27
REMARK    5  A    between atoms: C7_27  and  C17_28
REMARK                            x       y       z     vdW  Elec       q    Type
REMARK                         _______ _______ _______ _____ _____    ______ ____
ROOT
ATOM      1  C   UNL     1       2.045   9.476  41.254  0.00  0.00    -0.019 A 
ATOM      2  C   UNL     1       3.226   9.645  40.413  0.00  0.00    -0.024 A 
ATOM      3  C   UNL     1       4.568   9.405  40.941  0.00  0.00    -0.014 A 
ATOM      4  C   UNL     1       4.763   9.015  42.342  0.00  0.00    -0.003 A 
ATOM      5  C   UNL     1       5.908   8.720  43.203  0.00  0.00    +0.029 A 
ATOM     21  C   UNL     1       5.335   8.257  44.464  0.00  0.00    +0.097 A 
ATOM     28  N   UNL     1       3.923   8.307  44.418  0.00  0.00    -0.260 N 
ATOM     29  H   UNL     1       3.268   8.040  45.167  0.00  0.00    +0.231 HD
ATOM     30  C   UNL     1       3.581   8.817  43.088  0.00  0.00    +0.073 A 
ATOM     31  C   UNL     1       2.266   9.037  42.621  0.00  0.00    +0.016 A 
ENDROOT
BRANCH   5   6
ATOM      6  C   UNL     1       7.317   8.915  42.850  0.00  0.00    +0.042 A 
ATOM      7  N   UNL     1       7.858  10.135  42.352  0.00  0.00    -0.300 NA
ATOM      8  N   UNL     1       9.408  10.315  42.001  0.00  0.00    -0.275 NA
ATOM      9  C   UNL     1      10.330   9.246  42.147  0.00  0.00    +0.160 A 
ATOM     10  N   UNL     1      11.646   8.979  41.693  0.00  0.00    -0.195 N 
ATOM     14  N   UNL     1      11.893   7.555  42.039  0.00  0.00    -0.196 NA
ATOM     15  C   UNL     1      10.743   6.995  42.632  0.00  0.00    +0.138 A 
ATOM     16  N   UNL     1      10.593   5.630  42.960  0.00  0.00    -0.326 N 
ATOM     17  H   UNL     1       9.680   5.274  43.278  0.00  0.00    +0.172 HD
ATOM     18  H   UNL     1      11.396   4.990  42.882  0.00  0.00    +0.172 HD
ATOM     19  C   UNL     1       9.743   8.031  42.679  0.00  0.00    +0.095 A 
ATOM     20  C   UNL     1       8.329   7.869  43.001  0.00  0.00    +0.098 A 
BRANCH  10  11
ATOM     11  C   UNL     1      12.511   9.613  40.763  0.00  0.00    +0.181 C 
BRANCH  11  12
ATOM     12  C   UNL     1      12.224   9.383  39.359  0.00  0.00    +0.028 C 
ATOM     13  C   UNL     1      11.281   8.413  38.826  0.00  0.00    +0.006 C 
ENDBRANCH  11  12
ENDBRANCH  10  11
ENDBRANCH   5   6
BRANCH  21  22
ATOM     22  C   UNL     1       5.907   7.774  45.716  0.00  0.00    +0.021 A 
ATOM     23  C   UNL     1       7.201   8.175  46.273  0.00  0.00    +0.019 A 
ATOM     24  C   UNL     1       7.745   7.622  47.500  0.00  0.00    +0.005 A 
ATOM     25  C   UNL     1       6.988   6.652  48.268  0.00  0.00    +0.006 A 
ATOM     26  C   UNL     1       5.682   6.258  47.776  0.00  0.00    +0.005 A 
ATOM     27  C   UNL     1       5.173   6.799  46.525  0.00  0.00    +0.019 A 
ENDBRANCH  21  22
TORSDOF 4
