REMARK  Name = 4aa5_ligand
REMARK  6 active torsions:
REMARK  status: ('A' for Active; 'I' for Inactive)
REMARK    1  A    between atoms: C8_3  and  N3_17
REMARK    2  A    between atoms: C10_5  and  N5_29
REMARK    3  A    between atoms: C15_9  and  C19_11
REMARK    4  A    between atoms: C20_12  and  N32_31
REMARK    5  A    between atoms: N29_15  and  C13_24
REMARK    6  A    between atoms: C18_21  and  C23_22
REMARK                            x       y       z     vdW  Elec       q    Type
REMARK                         _______ _______ _______ _____ _____    ______ ____
ROOT
ATOM      8  C   UNL     1      -2.710   0.973  23.954  0.00  0.00    +0.041 A 
ATOM      9  C   UNL     1      -2.741  -0.437  23.967  0.00  0.00    +0.011 A 
ATOM     10  C   UNL     1      -2.934  -1.215  22.817  0.00  0.00    -0.003 A 
ATOM     11  C   UNL     1      -3.111  -0.593  21.590  0.00  0.00    +0.015 A 
ATOM     12  N   UNL     1      -3.285  -1.415  20.492  0.00  0.00    -0.300 NA
ATOM     13  C   UNL     1      -3.400  -0.837  19.348  0.00  0.00    +0.292 A 
ATOM     14  N   UNL     1      -3.392   0.529  19.127  0.00  0.00    -0.142 N 
ATOM     29  C   UNL     1      -3.274   1.428  20.182  0.00  0.00    +0.257 A 
ATOM     30  O   UNL     1      -3.242   2.622  20.066  0.00  0.00    -0.376 OA
ATOM     31  C   UNL     1      -3.098   0.821  21.529  0.00  0.00    +0.059 A 
ATOM     32  C   UNL     1      -2.913   1.597  22.700  0.00  0.00    +0.025 A 
ENDROOT
BRANCH   8   2
ATOM      1  C   UNL     1      -1.888   0.978  26.339  0.00  0.00    +0.179 C 
ATOM      2  N   UNL     1      -2.497   1.722  25.167  0.00  0.00    -0.301 N 
ATOM      3  C   UNL     1      -2.438   3.222  25.155  0.00  0.00    +0.179 C 
ATOM      4  C   UNL     1      -1.814   3.939  26.401  0.00  0.00    +0.155 C 
ATOM      5  N   UNL     1      -1.719   3.128  27.627  0.00  0.00    +0.236 N 
ATOM      6  H   UNL     1      -2.656   2.910  27.927  0.00  0.00    +0.203 HD
ATOM      7  C   UNL     1      -1.095   3.889  28.712  0.00  0.00    +0.190 C 
ATOM     33  C   UNL     1      -1.051   1.838  27.307  0.00  0.00    +0.155 C 
ENDBRANCH   8   2
BRANCH  14  15
ATOM     15  C   UNL     1      -3.577   1.011  17.807  0.00  0.00    +0.118 A 
ATOM     16  C   UNL     1      -4.901   1.166  17.350  0.00  0.00    -0.007 A 
ATOM     17  C   UNL     1      -6.052   0.747  18.210  0.00  0.00    +0.085 C 
ATOM     18  C   UNL     1      -5.112   1.692  16.056  0.00  0.00    -0.008 A 
ATOM     19  C   UNL     1      -4.053   2.067  15.241  0.00  0.00    -0.003 A 
ATOM     20  C   UNL     1      -2.719   1.948  15.726  0.00  0.00    +0.035 A 
ATOM     28  C   UNL     1      -2.494   1.395  17.006  0.00  0.00    +0.042 A 
BRANCH  20  21
ATOM     21  C   UNL     1      -1.493   2.291  14.938  0.00  0.00    +0.198 C 
ATOM     22  N   UNL     1      -1.561   3.111  13.835  0.00  0.00    -0.284 N 
ATOM     23  H   UNL     1      -2.464   3.477  13.609  0.00  0.00    +0.185 HD
ATOM     27  O   UNL     1      -0.479   1.773  15.302  0.00  0.00    -0.388 OA
BRANCH  22  24
ATOM     24  C   UNL     1      -0.481   3.500  12.972  0.00  0.00    +0.097 C 
ATOM     25  C   UNL     1       0.379   2.476  12.329  0.00  0.00    +0.030 C 
ATOM     26  C   UNL     1      -0.600   3.254  11.487  0.00  0.00    +0.030 C 
ENDBRANCH  22  24
ENDBRANCH  20  21
ENDBRANCH  14  15
TORSDOF 4
