REMARK  Name = 4btk_ligand
REMARK  7 active torsions:
REMARK  status: ('A' for Active; 'I' for Inactive)
REMARK    1  A    between atoms: C6_6  and  N12_11
REMARK    2  A    between atoms: C8_8  and  O26_19
REMARK    3  A    between atoms: C9_9  and  O31_21
REMARK    4  A    between atoms: N12_11  and  C14_12
REMARK    5  A    between atoms: C16_14  and  O21_18
REMARK    6  A    between atoms: O26_19  and  C27_20
REMARK    7  A    between atoms: O31_21  and  C32_22
REMARK                            x       y       z     vdW  Elec       q    Type
REMARK                         _______ _______ _______ _____ _____    ______ ____
ROOT
ATOM      1  N   UNL     1      64.906  19.227  25.525  0.00  0.00    -0.261 NA
ATOM      2  C   UNL     1      64.245  20.259  24.987  0.00  0.00    +0.151 A 
ATOM     13  C   UNL     1      64.890  21.187  24.181  0.00  0.00    +0.040 A 
ATOM     14  C   UNL     1      64.220  22.252  23.610  0.00  0.00    +0.038 A 
ATOM     15  C   UNL     1      64.907  23.151  22.809  0.00  0.00    +0.132 A 
ATOM     18  C   UNL     1      66.258  22.988  22.548  0.00  0.00    +0.132 A 
ATOM     21  C   UNL     1      66.901  21.902  23.105  0.00  0.00    +0.033 A 
ATOM     22  C   UNL     1      66.241  21.006  23.920  0.00  0.00    +0.027 A 
ATOM     23  N   UNL     1      66.908  19.988  24.460  0.00  0.00    -0.305 NA
ATOM     24  C   UNL     1      66.205  19.156  25.228  0.00  0.00    +0.155 A 
ENDROOT
BRANCH   2   3
ATOM      3  N   UNL     1      62.868  20.417  25.258  0.00  0.00    -0.251 N 
ATOM      4  H   UNL     1      62.392  21.235  24.851  0.00  0.00    +0.221 HD
BRANCH   3   5
ATOM      5  C   UNL     1      62.097  19.537  26.045  0.00  0.00    +0.059 A 
ATOM      6  C   UNL     1      62.284  18.166  26.104  0.00  0.00    -0.003 A 
ATOM      7  C   UNL     1      61.485  17.359  26.891  0.00  0.00    -0.023 A 
ATOM      8  C   UNL     1      60.459  17.915  27.633  0.00  0.00    +0.001 A 
ATOM      9  C   UNL     1      60.282  19.282  27.562  0.00  0.00    +0.079 A 
ATOM     12  C   UNL     1      61.073  20.089  26.779  0.00  0.00    +0.036 A 
BRANCH   9  10
ATOM     10  O   UNL     1      59.270  19.887  28.249  0.00  0.00    -0.336 OA
ATOM     11  H   UNL     1      59.295  20.823  28.088  0.00  0.00    +0.248 HD
ENDBRANCH   9  10
ENDBRANCH   3   5
ENDBRANCH   2   3
BRANCH  15  16
ATOM     16  O   UNL     1      64.226  24.201  22.203  0.00  0.00    -0.320 OA
ATOM     17  C   UNL     1      63.482  24.922  23.196  0.00  0.00    +0.231 C 
ENDBRANCH  15  16
BRANCH  18  19
ATOM     19  O   UNL     1      66.903  23.928  21.719  0.00  0.00    -0.316 OA
ATOM     20  C   UNL     1      68.322  23.816  21.677  0.00  0.00    +0.234 C 
ENDBRANCH  18  19
TORSDOF 5
