REMARK  Name = 5D4
REMARK  7 active torsions:
REMARK  status: ('A' for Active; 'I' for Inactive)
REMARK    1  A    between atoms: N1_4  and  C7_5
REMARK    2  A    between atoms: C7_5  and  C6_6
REMARK    3  A    between atoms: C6_6  and  C5_7
REMARK    4  A    between atoms: C5_7  and  C4_8
REMARK    5  A    between atoms: C4_8  and  C3_9
REMARK    6  A    between atoms: C3_9  and  C2_10
REMARK    7  A    between atoms: C2_10  and  N_11
REMARK                            x       y       z     vdW  Elec       q    Type
REMARK                         _______ _______ _______ _____ _____    ______ ____
ROOT
ATOM      6  C   UNL     1      14.897 -39.757  33.301  0.00  0.00    +0.002 C 
ENDROOT
BRANCH   6   5
ATOM      5  C   UNL     1      13.550 -39.618  34.057  0.00  0.00    +0.023 C 
BRANCH   5   4
ATOM      4  C   UNL     1      12.409 -38.915  33.285  0.00  0.00    +0.115 C 
BRANCH   4   3
ATOM      1  O   UNL     1      12.178 -36.176  34.043  0.00  0.00    -0.273 OA
ATOM      2  C   UNL     1      12.652 -36.480  32.977  0.00  0.00    +0.242 C 
ATOM      3  N   UNL     1      12.815 -37.722  32.555  0.00  0.00    -0.205 NA
ATOM     14  C   UNL     1      13.048 -35.406  32.015  0.00  0.00    +0.096 C 
ENDBRANCH   4   3
ENDBRANCH   5   4
ENDBRANCH   6   5
BRANCH   6   7
ATOM      7  C   UNL     1      15.334 -41.215  33.021  0.00  0.00    +0.002 C 
BRANCH   7   8
ATOM      8  C   UNL     1      16.627 -41.297  32.184  0.00  0.00    +0.023 C 
BRANCH   8   9
ATOM      9  C   UNL     1      16.864 -42.685  31.598  0.00  0.00    +0.115 C 
BRANCH   9  10
ATOM     10  N   UNL     1      16.889 -42.790  30.149  0.00  0.00    -0.205 NA
ATOM     11  C   UNL     1      16.063 -42.228  29.201  0.00  0.00    +0.242 C 
ATOM     12  C   UNL     1      14.983 -41.174  29.427  0.00  0.00    +0.096 C 
ATOM     13  O   UNL     1      16.155 -42.615  28.044  0.00  0.00    -0.273 OA
ENDBRANCH   9  10
ENDBRANCH   8   9
ENDBRANCH   7   8
ENDBRANCH   6   7
TORSDOF 7
