REMARK  Name = 43S
REMARK  1 active torsions:
REMARK  status: ('A' for Active; 'I' for Inactive)
REMARK    1  A    between atoms: C4_1  and  C5_2
REMARK                            x       y       z     vdW  Elec       q    Type
REMARK                         _______ _______ _______ _____ _____    ______ ____
ROOT
ATOM      1  C   UNL     1      -7.109  15.925  -0.029  0.00  0.00    +0.096 C 
ATOM      2  C   UNL     1      -6.527  16.962   0.715  0.00  0.00    +0.212 C 
ATOM      3  N   UNL     1      -7.014  17.837   1.722  0.00  0.00    -0.239 NA
ATOM      4  C   UNL     1      -5.944  18.647   1.955  0.00  0.00    +0.184 C 
ATOM      5  N   UNL     1      -4.835  18.353   1.179  0.00  0.00    -0.164 NA
ATOM      6  C   UNL     1      -5.156  17.287   0.401  0.00  0.00    +0.213 C 
ATOM      7  N   UNL     1      -4.351  16.674  -0.512  0.00  0.00    -0.352 NA
ATOM      8  C   UNL     1      -5.054  15.666  -1.173  0.00  0.00    +0.311 C 
ATOM      9  N   UNL     1      -4.308  14.958  -2.140  0.00  0.00    -0.074 NA
ATOM     20  N   UNL     1      -6.409  15.258  -0.987  0.00  0.00    -0.202 NA
ENDROOT
BRANCH   1  10
ATOM     10  C   UNL     1      -8.476  15.506   0.203  0.00  0.00    +0.051 A 
ATOM     11  C   UNL     1      -9.141  15.577   1.394  0.00  0.00    +0.147 A 
ATOM     12  O   UNL     1      -8.579  15.860   2.567  0.00  0.00    -0.450 OA
ATOM     13  C   UNL     1      -9.580  15.769   3.616  0.00  0.00    +0.180 A 
ATOM     14  C   UNL     1     -10.954  15.404   2.968  0.00  0.00    +0.044 A 
ATOM     15  C   UNL     1     -10.515  15.168   1.532  0.00  0.00    +0.038 A 
ATOM     16  C   UNL     1     -11.185  14.612   0.450  0.00  0.00    +0.010 A 
ATOM     17  C   UNL     1     -10.465  14.476  -0.714  0.00  0.00    +0.035 A 
ATOM     18 BR   UNL     1     -11.286  13.613  -2.267  0.00  0.00    -0.049 Br
ATOM     19  C   UNL     1      -9.179  14.906  -0.885  0.00  0.00    +0.011 A 
ENDBRANCH   1  10
TORSDOF 1
