REMARK  Name = 24Y
REMARK  3 active torsions:
REMARK  status: ('A' for Active; 'I' for Inactive)
REMARK    1  A    between atoms: C7_8  and  C6_9
REMARK    2  A    between atoms: C12_11  and  C13_12
REMARK    3  A    between atoms: N1_19  and  C5_20
REMARK                            x       y       z     vdW  Elec       q    Type
REMARK                         _______ _______ _______ _____ _____    ______ ____
ROOT
ATOM      5  C   UNL     1      36.162  25.025  11.234  0.00  0.00    +0.339 C 
ATOM      6  N   UNL     1      36.027  24.119  12.222  0.00  0.00    -0.039 NA
ATOM      7  C   UNL     1      36.770  22.977  11.808  0.00  0.00    +0.384 C 
ATOM     14  N   UNL     1      37.308  23.162  10.602  0.00  0.00    +0.086 NA
ATOM     15  N   UNL     1      36.941  24.389  10.204  0.00  0.00    -0.062 N 
ENDROOT
BRANCH   5   4
ATOM      1 CL   UNL     1      32.584  28.377  12.799  0.00  0.00    -0.078 Cl
ATOM      2  C   UNL     1      33.946  27.909  11.934  0.00  0.00    +0.109 C 
ATOM      3  C   UNL     1      34.492  26.642  12.040  0.00  0.00    +0.002 C 
ATOM      4  C   UNL     1      35.647  26.354  11.220  0.00  0.00    +0.135 C 
ATOM     23  C   UNL     1      36.175  27.386  10.350  0.00  0.00    +0.073 C 
ATOM     24  N   UNL     1      35.604  28.593  10.255  0.00  0.00    -0.178 NA
ATOM     25  C   UNL     1      34.458  28.973  11.043  0.00  0.00    +0.279 C 
ATOM     26  O   UNL     1      33.986  30.106  10.888  0.00  0.00    -0.267 OA
ENDBRANCH   5   4
BRANCH  15  16
ATOM     16  C   UNL     1      37.289  24.876   8.890  0.00  0.00    +0.171 A 
ATOM     17  N   UNL     1      38.563  25.397   8.899  0.00  0.00    -0.226 NA
ATOM     18  C   UNL     1      39.042  25.884   7.728  0.00  0.00    +0.100 A 
ATOM     19  C   UNL     1      38.297  25.851   6.557  0.00  0.00    +0.021 A 
ATOM     20  C   UNL     1      37.000  25.304   6.554  0.00  0.00    +0.000 A 
ATOM     21  C   UNL     1      36.447  24.810   7.737  0.00  0.00    +0.013 A 
ATOM     22  C   UNL     1      35.046  24.330   7.724  0.00  0.00    +0.034 C 
ENDBRANCH  15  16
BRANCH   7   8
ATOM      8  C   UNL     1      36.827  21.701  12.532  0.00  0.00    +0.088 A 
ATOM      9  C   UNL     1      35.965  21.489  13.563  0.00  0.00    +0.008 A 
ATOM     10  C   UNL     1      35.975  20.277  14.308  0.00  0.00    +0.000 A 
ATOM     11  C   UNL     1      36.854  19.299  13.962  0.00  0.00    +0.000 A 
ATOM     12  C   UNL     1      37.704  19.506  12.884  0.00  0.00    +0.000 A 
ATOM     13  C   UNL     1      37.691  20.652  12.152  0.00  0.00    +0.008 A 
ENDBRANCH   7   8
TORSDOF 3
