REMARK  Name = 3miy_ligand
REMARK  11 active torsions:
REMARK  status: ('A' for Active; 'I' for Inactive)
REMARK    1  A    between atoms: C4_1  and  C14_13
REMARK    2  A    between atoms: C13_5  and  C3_11
REMARK    3  A    between atoms: C22_10  and  C19_16
REMARK    4  A    between atoms: C12_12  and  C18_15
REMARK    5  A    between atoms: N25_19  and  C171_23
REMARK    6  A    between atoms: C171_23  and  C181_24
REMARK    7  A    between atoms: C181_24  and  N4_25
REMARK    8  A    between atoms: N4_25  and  C191_26
REMARK    9  A    between atoms: N4_25  and  C201_27
REMARK   10  A    between atoms: C191_26  and  C221_29
REMARK   11  A    between atoms: C201_27  and  C211_28
REMARK                            x       y       z     vdW  Elec       q    Type
REMARK                         _______ _______ _______ _____ _____    ______ ____
ROOT
ATOM      1  C   UNL     1      10.561 -11.635  -2.836  0.00  0.00    +0.145 C 
ATOM      2  C   UNL     1       9.345 -11.588  -1.949  0.00  0.00    +0.072 A 
ATOM      3  N   UNL     1       8.087 -11.554  -2.419  0.00  0.00    -0.270 N 
ATOM      4  H   UNL     1       7.823 -11.559  -3.415  0.00  0.00    +0.231 HD
ATOM      5  C   UNL     1       7.206 -11.512  -1.363  0.00  0.00    +0.064 A 
ATOM     19  C   UNL     1       7.942 -11.512  -0.190  0.00  0.00    -0.027 A 
ATOM     20  C   UNL     1       7.361 -11.477   1.205  0.00  0.00    +0.074 C 
ATOM     21  C   UNL     1       9.310 -11.565  -0.557  0.00  0.00    +0.057 A 
ENDROOT
BRANCH   5   6
ATOM      6  C   UNL     1       5.795 -11.462  -1.424  0.00  0.00    +0.035 C 
ATOM      7  C   UNL     1       5.005 -11.470  -2.561  0.00  0.00    +0.030 C 
ATOM      8  C   UNL     1       5.346 -11.542  -3.998  0.00  0.00    +0.205 C 
ATOM      9  O   UNL     1       6.454 -11.645  -4.499  0.00  0.00    -0.391 OA
ATOM     10  N   UNL     1       4.197 -11.479  -4.694  0.00  0.00    -0.244 N 
ATOM     11  H   UNL     1       4.144 -11.499  -5.692  0.00  0.00    +0.223 HD
ATOM     12  C   UNL     1       3.093 -11.383  -3.858  0.00  0.00    +0.061 A 
ATOM     13  C   UNL     1       1.727 -11.309  -4.125  0.00  0.00    -0.000 A 
ATOM     14  C   UNL     1       0.818 -11.226  -3.083  0.00  0.00    +0.005 A 
ATOM     15  C   UNL     1       1.257 -11.220  -1.764  0.00  0.00    +0.110 A 
ATOM     16  F   UNL     1       0.361 -11.137  -0.756  0.00  0.00    -0.198 F 
ATOM     17  C   UNL     1       2.610 -11.298  -1.479  0.00  0.00    +0.007 A 
ATOM     18  C   UNL     1       3.530 -11.389  -2.525  0.00  0.00    -0.011 A 
ENDBRANCH   5   6
BRANCH  21  22
ATOM     22  C   UNL     1      10.469 -11.592   0.373  0.00  0.00    +0.177 C 
ATOM     23  O   UNL     1      10.371 -11.087   1.477  0.00  0.00    -0.405 OA
ATOM     24  N   UNL     1      11.628 -12.185   0.004  0.00  0.00    -0.287 N 
ATOM     25  H   UNL     1      11.693 -12.602  -0.902  0.00  0.00    +0.183 HD
BRANCH  24  26
ATOM     26  C   UNL     1      12.794 -12.233   0.897  0.00  0.00    +0.184 C 
BRANCH  26  27
ATOM     27  C   UNL     1      13.629 -10.961   0.720  0.00  0.00    +0.155 C 
BRANCH  27  28
ATOM     28  N   UNL     1      14.591 -11.147  -0.381  0.00  0.00    +0.236 N 
ATOM     29  H   UNL     1      14.564 -12.133  -0.587  0.00  0.00    +0.203 HD
BRANCH  28  30
ATOM     30  C   UNL     1      15.971 -10.869   0.044  0.00  0.00    +0.128 C 
ATOM     31  C   UNL     1      16.778 -12.171   0.037  0.00  0.00    +0.060 C 
ENDBRANCH  28  30
BRANCH  28  32
ATOM     32  C   UNL     1      14.244 -10.484  -1.656  0.00  0.00    +0.128 C 
ATOM     33  C   UNL     1      13.442  -9.188  -1.478  0.00  0.00    +0.060 C 
ENDBRANCH  28  32
ENDBRANCH  27  28
ENDBRANCH  26  27
ENDBRANCH  24  26
ENDBRANCH  21  22
TORSDOF 7
