REMARK  Name = 08J
REMARK  1 active torsions:
REMARK  status: ('A' for Active; 'I' for Inactive)
REMARK    1  A    between atoms: CAO_16  and  CAT_17
REMARK                            x       y       z     vdW  Elec       q    Type
REMARK                         _______ _______ _______ _____ _____    ______ ____
ROOT
ATOM      1  C   UNL     1      76.140  -4.326  13.820  0.00  0.00    +0.033 A 
ATOM      2  C   UNL     1      76.487  -4.518  15.163  0.00  0.00    +0.003 A 
ATOM      3  C   UNL     1      77.562  -3.790  15.708  0.00  0.00    +0.000 A 
ATOM      4  C   UNL     1      78.286  -2.875  14.912  0.00  0.00    +0.001 A 
ATOM      5  C   UNL     1      77.971  -2.694  13.571  0.00  0.00    +0.018 A 
ATOM      6  C   UNL     1      75.046  -5.114  13.335  0.00  0.00    +0.080 C 
ATOM     14  N   UNL     1      75.079  -5.607  12.081  0.00  0.00    -0.264 NA
ATOM     15  C   UNL     1      76.194  -5.556  11.140  0.00  0.00    +0.171 C 
ATOM     16  C   UNL     1      76.435  -4.082  10.819  0.00  0.00    +0.086 A 
ATOM     17  N   UNL     1      76.710  -3.132  11.722  0.00  0.00    -0.295 N 
ATOM     18  C   UNL     1      76.840  -1.965  11.040  0.00  0.00    +0.124 A 
ATOM     19  C   UNL     1      77.201  -0.512  11.535  0.00  0.00    +0.072 C 
ATOM     20  N   UNL     1      76.600  -2.225   9.758  0.00  0.00    -0.229 NA
ATOM     21  C   UNL     1      76.367  -3.530   9.616  0.00  0.00    +0.115 A 
ATOM     22  C   UNL     1      76.891  -3.393  13.029  0.00  0.00    +0.066 A 
ENDROOT
BRANCH   6   7
ATOM      7  C   UNL     1      73.784  -5.290  13.972  0.00  0.00    +0.045 A 
ATOM      8  C   UNL     1      73.187  -4.208  14.623  0.00  0.00    +0.004 A 
ATOM      9  C   UNL     1      71.935  -4.322  15.242  0.00  0.00    +0.000 A 
ATOM     10  C   UNL     1      71.231  -5.530  15.209  0.00  0.00    +0.002 A 
ATOM     11  C   UNL     1      71.794  -6.624  14.552  0.00  0.00    +0.030 A 
ATOM     12  C   UNL     1      73.052  -6.507  13.932  0.00  0.00    +0.142 A 
ATOM     13  F   UNL     1      73.510  -7.613  13.315  0.00  0.00    -0.204 F 
ENDBRANCH   6   7
TORSDOF 1
