REMARK  Name = 3jvs_ligand
REMARK  8 active torsions:
REMARK  status: ('A' for Active; 'I' for Inactive)
REMARK    1  A    between atoms: N1_2  and  C2_4
REMARK    2  A    between atoms: N2_5  and  N3_8
REMARK    3  A    between atoms: N4_11  and  C16_24
REMARK    4  A    between atoms: C12_20  and  C13_21
REMARK    5  A    between atoms: C18_26  and  C19_27
REMARK    6  A    between atoms: C19_27  and  C20_28
REMARK    7  A    between atoms: C19_27  and  C21_29
REMARK    8  A    between atoms: C19_27  and  C22_30
REMARK                            x       y       z     vdW  Elec       q    Type
REMARK                         _______ _______ _______ _____ _____    ______ ____
ROOT
ATOM     16  N   UNL     1      29.137  -3.804  18.606  0.00  0.00    -0.177 N 
ATOM     17  H   UNL     1      28.428  -3.110  18.728  0.00  0.00    +0.216 HD
ATOM     18  C   UNL     1      29.547  -4.611  19.622  0.00  0.00    +0.246 C 
ATOM     32  O   UNL     1      30.434  -5.459  19.401  0.00  0.00    -0.371 OA
ENDROOT
BRANCH  16  14
ATOM     11  N   UNL     1      31.494  -2.422  17.781  0.00  0.00    -0.212 N 
ATOM     12  H   UNL     1      31.032  -2.288  18.658  0.00  0.00    +0.231 HD
ATOM     13  C   UNL     1      30.916  -3.351  16.964  0.00  0.00    +0.313 C 
ATOM     14  N   UNL     1      29.793  -4.018  17.347  0.00  0.00    -0.162 N 
ATOM     15  H   UNL     1      29.405  -4.692  16.719  0.00  0.00    +0.217 HD
ATOM     33  O   UNL     1      31.389  -3.621  15.852  0.00  0.00    -0.387 OA
BRANCH  11  10
ATOM      1  C   UNL     1      33.993  -2.124  17.638  0.00  0.00    +0.011 A 
ATOM      2  C   UNL     1      34.274  -3.517  17.902  0.00  0.00    +0.008 A 
ATOM      3  C   UNL     1      35.637  -3.993  17.949  0.00  0.00    -0.007 A 
ATOM      4  C   UNL     1      36.735  -3.078  17.732  0.00  0.00    -0.005 A 
ATOM      5  C   UNL     1      36.476  -1.676  17.465  0.00  0.00    -0.002 A 
ATOM      6  C   UNL     1      35.136  -1.187  17.415  0.00  0.00    -0.032 A 
ATOM      7  C   UNL     1      34.899   0.211  17.150  0.00  0.00    -0.031 A 
ATOM      8  C   UNL     1      33.526   0.702  17.101  0.00  0.00    -0.025 A 
ATOM      9  C   UNL     1      32.412  -0.211  17.318  0.00  0.00    +0.001 A 
ATOM     10  C   UNL     1      32.624  -1.631  17.588  0.00  0.00    +0.081 A 
ENDBRANCH  11  10
ENDBRANCH  16  14
BRANCH  18  19
ATOM     19  C   UNL     1      28.951  -4.490  20.951  0.00  0.00    +0.086 A 
ATOM     20  C   UNL     1      29.735  -4.682  22.130  0.00  0.00    +0.068 A 
ATOM     21  C   UNL     1      29.139  -4.565  23.440  0.00  0.00    +0.058 A 
ATOM     22  C   UNL     1      27.709  -4.243  23.595  0.00  0.00    -0.005 A 
ATOM     27  C   UNL     1      26.943  -4.057  22.348  0.00  0.00    +0.224 A 
ATOM     31  C   UNL     1      27.580  -4.181  21.071  0.00  0.00    +0.110 A 
BRANCH  22  23
ATOM     23  C   UNL     1      27.122  -4.133  25.024  0.00  0.00    -0.040 C 
ATOM     24  C   UNL     1      26.812  -5.570  25.486  0.00  0.00    -0.041 C 
ATOM     25  C   UNL     1      25.795  -3.327  25.291  0.00  0.00    -0.041 C 
ATOM     26  C   UNL     1      28.026  -3.363  26.017  0.00  0.00    -0.041 C 
ENDBRANCH  22  23
BRANCH  27  28
ATOM     28  N   UNL     1      25.645  -3.809  22.368  0.00  0.00    +0.333 N 
ATOM     29  O   UNL     1      25.168  -2.548  22.031  0.00  0.00    +0.188 OA
ATOM     30  O   UNL     1      24.819  -4.761  22.699  0.00  0.00    +0.188 OA
ENDBRANCH  27  28
ENDBRANCH  18  19
TORSDOF 5
