REMARK  Name = 2xno_ligand
REMARK  13 active torsions:
REMARK  status: ('A' for Active; 'I' for Inactive)
REMARK    1  A    between atoms: C01_1  and  N02_2
REMARK    2  A    between atoms: C05_5  and  O06_6
REMARK    3  A    between atoms: O06_6  and  C07_7
REMARK    4  A    between atoms: N13_13  and  C14_14
REMARK    5  A    between atoms: C14_14  and  C15_15
REMARK    6  A    between atoms: C14_14  and  S33_33
REMARK    7  A    between atoms: C16_16  and  O17_17
REMARK    8  A    between atoms: C16_16  and  C29_29
REMARK    9  A    between atoms: O17_17  and  C18_18
REMARK   10  A    between atoms: C18_18  and  C19_19
REMARK   11  A    between atoms: C24_24  and  C25_25
REMARK   12  A    between atoms: C29_29  and  C30_30
REMARK   13  A    between atoms: C29_29  and  S33_33
REMARK                            x       y       z     vdW  Elec       q    Type
REMARK                         _______ _______ _______ _____ _____    ______ ____
ROOT
ATOM     12  S   UNL     1     -23.158   6.774  16.555  0.00  0.00    -0.098 S 
ENDROOT
BRANCH  12  11
ATOM     11  C   UNL     1     -24.578   7.194  17.323  0.00  0.00    +0.189 C 
ATOM     32  C   UNL     1     -25.341   8.330  16.519  0.00  0.00    +0.055 C 
BRANCH  11  10
ATOM      7  C   UNL     1     -26.972   9.697  20.197  0.00  0.00    +0.080 A 
ATOM      8  C   UNL     1     -26.214   9.027  19.156  0.00  0.00    +0.033 A 
ATOM      9  C   UNL     1     -25.765   7.655  19.360  0.00  0.00    +0.078 A 
ATOM     10  N   UNL     1     -25.093   6.779  18.514  0.00  0.00    -0.229 N 
ATOM     33  C   UNL     1     -24.857   5.587  19.207  0.00  0.00    +0.235 A 
ATOM     34  N   UNL     1     -25.498   5.705  20.443  0.00  0.00    -0.313 NA
ATOM     35  C   UNL     1     -26.062   6.986  20.544  0.00  0.00    +0.024 A 
ATOM     36  C   UNL     1     -26.827   7.645  21.579  0.00  0.00    -0.012 A 
ATOM     37  C   UNL     1     -27.284   9.035  21.389  0.00  0.00    +0.003 A 
BRANCH   7   6
ATOM      6  O   UNL     1     -27.406  10.997  19.906  0.00  0.00    -0.321 OA
BRANCH   6   5
ATOM      1  C   UNL     1     -29.666  14.877  23.153  0.00  0.00    -0.131 C 
ATOM      2  N   UNL     1     -28.990  14.329  21.992  0.00  0.00    +0.401 NA
ATOM      3  C   UNL     1     -29.735  13.234  21.373  0.00  0.00    -0.107 C 
ATOM      4  C   UNL     1     -29.092  11.844  21.641  0.00  0.00    +0.014 C 
ATOM      5  C   UNL     1     -27.672  11.777  21.051  0.00  0.00    +0.141 C 
ATOM     38  C   UNL     1     -26.884  13.077  21.267  0.00  0.00    +0.014 C 
ATOM     39  C   UNL     1     -27.576  14.028  22.278  0.00  0.00    -0.107 C 
ENDBRANCH   6   5
ENDBRANCH   7   6
ENDBRANCH  11  10
ENDBRANCH  12  11
BRANCH  12  13
ATOM     13  C   UNL     1     -23.140   7.791  15.094  0.00  0.00    +0.188 C 
BRANCH  13  14
ATOM     14  C   UNL     1     -22.071   7.682  14.035  0.00  0.00    +0.189 C 
ATOM     15  O   UNL     1     -21.220   6.811  14.149  0.00  0.00    -0.396 OA
ATOM     16  N   UNL     1     -22.258   8.339  12.776  0.00  0.00    -0.300 N 
ATOM     17  H   UNL     1     -22.968   9.066  12.680  0.00  0.00    +0.181 HD
ATOM     18  H   UNL     1     -21.682   8.080  11.975  0.00  0.00    +0.181 HD
ENDBRANCH  13  14
BRANCH  13  19
ATOM     19  C   UNL     1     -24.395   8.693  15.069  0.00  0.00    +0.200 C 
BRANCH  19  20
ATOM     20  O   UNL     1     -24.815   9.711  14.194  0.00  0.00    -0.358 OA
BRANCH  20  21
ATOM     21  C   UNL     1     -25.947  10.464  14.558  0.00  0.00    +0.258 C 
BRANCH  21  22
ATOM     22  C   UNL     1     -25.815  11.557  15.616  0.00  0.00    +0.017 A 
ATOM     23  C   UNL     1     -26.984  12.050  16.450  0.00  0.00    +0.051 A 
ATOM     28  C   UNL     1     -26.749  13.090  17.452  0.00  0.00    +0.044 A 
ATOM     29  C   UNL     1     -25.469  13.645  17.644  0.00  0.00    +0.026 A 
ATOM     30  C   UNL     1     -24.304  13.166  16.815  0.00  0.00    +0.043 A 
ATOM     31  C   UNL     1     -24.530  12.133  15.822  0.00  0.00    +0.037 A 
BRANCH  23  24
ATOM     24  C   UNL     1     -28.387  11.531  16.328  0.00  0.00    +0.371 C 
ATOM     25  F   UNL     1     -28.811  11.519  15.064  0.00  0.00    -0.226 F 
ATOM     26  F   UNL     1     -29.227  12.302  17.029  0.00  0.00    -0.226 F 
ATOM     27  F   UNL     1     -28.437  10.297  16.838  0.00  0.00    -0.226 F 
ENDBRANCH  23  24
ENDBRANCH  21  22
ENDBRANCH  20  21
ENDBRANCH  19  20
ENDBRANCH  13  19
ENDBRANCH  12  13
TORSDOF 11
