REMARK  Name = 3RAW
REMARK  2 active torsions:
REMARK  status: ('A' for Active; 'I' for Inactive)
REMARK    1  A    between atoms: C_6  and  N_7
REMARK    2  A    between atoms: C_14  and  C_15
REMARK                            x       y       z     vdW  Elec       q    Type
REMARK                         _______ _______ _______ _____ _____    ______ ____
ROOT
ATOM      3  N   UNL     1      59.519  62.721  50.249  0.00  0.00    -0.206 N 
ATOM      4  H   UNL     1      58.991  62.382  49.382  0.00  0.00    +0.251 HD
ATOM      5  C   UNL     1      58.771  63.123  51.271  0.00  0.00    +0.382 C 
ATOM      6  N   UNL     1      57.454  63.326  51.120  0.00  0.00    -0.169 N 
ATOM      7  H   UNL     1      56.889  63.166  50.226  0.00  0.00    +0.254 HD
ATOM      8  C   UNL     1      56.987  63.754  52.261  0.00  0.00    +0.341 C 
ATOM      9  O   UNL     1      55.776  64.026  52.414  0.00  0.00    -0.248 OA
ATOM     10  C   UNL     1      58.081  63.804  53.175  0.00  0.00    +0.216 C 
ATOM     11  C   UNL     1      57.913  64.199  54.498  0.00  0.00    +0.034 C 
ATOM     21  N   UNL     1      59.159  63.411  52.507  0.00  0.00    -0.070 NA
ENDROOT
BRANCH  11  12
ATOM     12  C   UNL     1      58.883  64.167  55.510  0.00  0.00    +0.012 C 
ATOM     13  C   UNL     1      58.440  64.366  56.801  0.00  0.00    +0.011 C 
ATOM     14  C   UNL     1      59.334  64.339  57.864  0.00  0.00    +0.037 C 
ATOM     15  C   UNL     1      60.683  64.166  57.629  0.00  0.00    +0.140 C 
ATOM     16  O   UNL     1      61.728  64.138  58.483  0.00  0.00    -0.334 OA
ATOM     17  C   UNL     1      62.847  63.678  57.767  0.00  0.00    +0.309 C 
ATOM     18  O   UNL     1      62.507  63.858  56.360  0.00  0.00    -0.334 OA
ATOM     19  C   UNL     1      61.151  64.008  56.333  0.00  0.00    +0.141 C 
ATOM     20  C   UNL     1      60.245  63.998  55.290  0.00  0.00    +0.045 C 
ENDBRANCH  11  12
BRANCH   3   2
ATOM      1  C   UNL     1      61.412  61.871  49.188  0.00  0.00    +0.040 A 
ATOM      2  C   UNL     1      60.838  62.691  50.178  0.00  0.00    +0.092 A 
ATOM     22  C   UNL     1      61.665  63.385  51.052  0.00  0.00    +0.040 A 
ATOM     23  C   UNL     1      63.049  63.226  50.915  0.00  0.00    +0.003 A 
ATOM     24  C   UNL     1      63.613  62.407  49.932  0.00  0.00    +0.000 A 
ATOM     25  C   UNL     1      62.793  61.725  49.038  0.00  0.00    +0.003 A 
ENDBRANCH   3   2
TORSDOF 2
