REMARK  Name = 4o6e_ligand
REMARK  5 active torsions:
REMARK  status: ('A' for Active; 'I' for Inactive)
REMARK    1  A    between atoms: C6_3  and  C7_4
REMARK    2  A    between atoms: C7_4  and  C9_13
REMARK    3  A    between atoms: C7_4  and  N11_15
REMARK    4  A    between atoms: C9_13  and  O10_14
REMARK    5  A    between atoms: N24_24  and  C25_25
REMARK                            x       y       z     vdW  Elec       q    Type
REMARK                         _______ _______ _______ _____ _____    ______ ____
ROOT
ATOM      9  N   UNL     1      14.623   7.284  12.923  0.00  0.00    -0.257 N 
ATOM     10  H   UNL     1      15.447   7.421  12.374  0.00  0.00    +0.188 HD
ATOM     11  C   UNL     1      14.766   6.657  14.113  0.00  0.00    +0.264 C 
ATOM     12  N   UNL     1      16.028   6.316  14.494  0.00  0.00    -0.243 N 
ATOM     13  C   UNL     1      17.203   6.701  13.661  0.00  0.00    +0.229 C 
ATOM     14  C   UNL     1      18.437   5.899  13.995  0.00  0.00    +0.056 A 
ATOM     15  N   UNL     1      19.540   6.123  13.278  0.00  0.00    -0.260 NA
ATOM     16  C   UNL     1      20.654   5.440  13.522  0.00  0.00    +0.176 A 
ATOM     17  N   UNL     1      21.798   5.696  12.802  0.00  0.00    -0.291 N 
ATOM     18  H   UNL     1      22.678   5.258  13.111  0.00  0.00    +0.184 HD
ATOM     25  N   UNL     1      20.733   4.534  14.496  0.00  0.00    -0.272 NA
ATOM     26  C   UNL     1      19.668   4.265  15.239  0.00  0.00    +0.088 A 
ATOM     27  C   UNL     1      18.482   4.964  15.014  0.00  0.00    +0.001 A 
ATOM     28  C   UNL     1      17.291   4.591  15.851  0.00  0.00    +0.090 C 
ATOM     29  C   UNL     1      16.256   5.709  15.826  0.00  0.00    +0.154 C 
ATOM     30  O   UNL     1      13.784   6.385  14.809  0.00  0.00    -0.400 OA
ENDROOT
BRANCH  17  19
ATOM     19  C   UNL     1      21.830   6.559  11.618  0.00  0.00    +0.101 C 
ATOM     20  C   UNL     1      21.112   5.865  10.437  0.00  0.00    +0.056 C 
ATOM     21  C   UNL     1      21.324   6.682   9.149  0.00  0.00    +0.162 C 
ATOM     22  O   UNL     1      22.735   6.899   8.972  0.00  0.00    -0.380 OA
ATOM     23  C   UNL     1      23.411   7.633  10.005  0.00  0.00    +0.162 C 
ATOM     24  C   UNL     1      23.322   6.823  11.306  0.00  0.00    +0.056 C 
ENDBRANCH  17  19
BRANCH   9   8
ATOM      8  CA  UNL     1      13.358   7.778  12.374  0.00  0.00    +0.170 C 
BRANCH   8   7
ATOM      1  C   UNL     1      14.398  11.405  12.861  0.00  0.00    +0.067 A 
ATOM      2 CL   UNL     1      15.715  12.435  12.369  0.00  0.00    -0.074 Cl
ATOM      3  C   UNL     1      13.377  11.878  13.683  0.00  0.00    +0.139 A 
ATOM      4  F   UNL     1      13.392  13.165  14.104  0.00  0.00    -0.188 F 
ATOM      5  C   UNL     1      12.326  11.031  14.039  0.00  0.00    +0.025 A 
ATOM      6  C   UNL     1      12.314   9.705  13.611  0.00  0.00    -0.005 A 
ATOM      7  C   UNL     1      13.323   9.237  12.776  0.00  0.00    -0.019 A 
ATOM     34  C   UNL     1      14.383  10.083  12.444  0.00  0.00    +0.009 A 
ENDBRANCH   8   7
BRANCH   8  31
ATOM     31  C   UNL     1      13.390   7.541  10.863  0.00  0.00    +0.197 C 
BRANCH  31  32
ATOM     32  O   UNL     1      12.168   8.007  10.302  0.00  0.00    -0.391 OA
ATOM     33  H   UNL     1      12.177   7.864   9.363  0.00  0.00    +0.210 HD
ENDBRANCH  31  32
ENDBRANCH   8  31
ENDBRANCH   9   8
TORSDOF 5
