REMARK  Name = 7KA
REMARK  4 active torsions:
REMARK  status: ('A' for Active; 'I' for Inactive)
REMARK    1  A    between atoms: C3_3  and  C17_17
REMARK    2  A    between atoms: N4_4  and  C11_11
REMARK    3  A    between atoms: C17_17  and  N19_18
REMARK    4  A    between atoms: C25_24  and  C26_25
REMARK                            x       y       z     vdW  Elec       q    Type
REMARK                         _______ _______ _______ _____ _____    ______ ____
ROOT
ATOM      1  N   UNL     1      38.448  14.064  31.665  0.00  0.00    -0.223 NA
ATOM      2  N   UNL     1      37.492  14.149  32.683  0.00  0.00    -0.150 NA
ATOM      3  C   UNL     1      37.759  14.649  33.845  0.00  0.00    +0.167 C 
ATOM     16  N   UNL     1      39.025  15.129  34.141  0.00  0.00    -0.259 N 
ATOM     23  C   UNL     1      40.022  15.076  33.216  0.00  0.00    +0.283 C 
ATOM     24  O   UNL     1      41.139  15.492  33.452  0.00  0.00    -0.265 OA
ATOM     25  C   UNL     1      39.732  14.508  31.904  0.00  0.00    +0.139 C 
ATOM     26  C   UNL     1      40.473  14.313  30.761  0.00  0.00    +0.026 C 
ATOM     27  C   UNL     1      39.615  13.729  29.828  0.00  0.00    +0.022 C 
ATOM     28  C   UNL     1      38.394  13.591  30.406  0.00  0.00    +0.101 C 
ENDROOT
BRANCH  16  17
ATOM     17  C   UNL     1      39.334  15.712  35.375  0.00  0.00    +0.068 A 
ATOM     18  C   UNL     1      40.005  15.014  36.376  0.00  0.00    +0.018 A 
ATOM     19  C   UNL     1      40.296  15.658  37.568  0.00  0.00    +0.002 A 
ATOM     20  C   UNL     1      39.926  16.984  37.758  0.00  0.00    +0.000 A 
ATOM     21  C   UNL     1      39.261  17.679  36.763  0.00  0.00    +0.002 A 
ATOM     22  C   UNL     1      38.972  17.045  35.569  0.00  0.00    +0.018 A 
ENDBRANCH  16  17
BRANCH   3   4
ATOM      4  C   UNL     1      36.628  14.650  34.842  0.00  0.00    +0.153 C 
ATOM      5  C   UNL     1      36.644  13.312  35.579  0.00  0.00    +0.032 C 
BRANCH   4   6
ATOM      6  N   UNL     1      35.365  14.805  34.107  0.00  0.00    -0.214 NA
ATOM      7  C   UNL     1      34.872  16.066  33.797  0.00  0.00    +0.162 A 
ATOM      8  N   UNL     1      35.622  17.148  34.040  0.00  0.00    -0.207 NA
ATOM      9  C   UNL     1      35.197  18.372  33.770  0.00  0.00    +0.201 A 
ATOM     10  N   UNL     1      34.007  18.601  33.232  0.00  0.00    -0.205 NA
ATOM     11  C   UNL     1      33.183  17.594  32.941  0.00  0.00    +0.184 A 
ATOM     12  N   UNL     1      31.950  17.879  32.393  0.00  0.00    -0.106 NA
ATOM     13  C   UNL     1      33.586  16.260  33.217  0.00  0.00    +0.136 A 
BRANCH  13  14
ATOM     14  C   UNL     1      32.687  15.192  32.896  0.00  0.00    +0.106 C 
ATOM     15  N   UNL     1      31.986  14.328  32.655  0.00  0.00    -0.191 NA
ENDBRANCH  13  14
ENDBRANCH   4   6
ENDBRANCH   3   4
TORSDOF 4
