REMARK  Name = 6QAQ
REMARK  1 active torsions:
REMARK  status: ('A' for Active; 'I' for Inactive)
REMARK    1  A    between atoms: C2_1  and  C3_2
REMARK                            x       y       z     vdW  Elec       q    Type
REMARK                         _______ _______ _______ _____ _____    ______ ____
ROOT
ATOM      3  C   UNL     1       2.152   5.790  49.463  0.00  0.00    +0.000 A 
ATOM      4  C   UNL     1       2.650   4.449  49.531  0.00  0.00    -0.100 A 
ATOM      5  C   UNL     1       2.091   3.765  50.568  0.00  0.00    -0.100 A 
ATOM      6  S   UNL     1       0.978   4.677  51.448  0.00  0.00    +0.000 S 
ATOM      7  C   UNL     1       1.243   6.024  50.449  0.00  0.00    -0.100 A 
ENDROOT
BRANCH   3   1
ATOM      1  C   UNL     1       2.570   6.821  48.451  0.00  0.00    +0.100 C 
ATOM      2  N   UNL     1       2.006   6.572  47.103  0.00  0.00    -0.250 NA
ENDBRANCH   3   1
TORSDOF 1
