REMARK  Name = 2UW9
REMARK  3 active torsions:
REMARK  status: ('A' for Active; 'I' for Inactive)
REMARK    1  A    between atoms: C_5  and  C_8
REMARK    2  A    between atoms: C_8  and  C_14
REMARK    3  A    between atoms: C_17  and  C_20
REMARK                            x       y       z     vdW  Elec       q    Type
REMARK                         _______ _______ _______ _____ _____    ______ ____
ROOT
ATOM      6  C   UNL     1      43.243  30.217 111.465  0.00  0.00    +0.023 C 
ATOM     19  C   UNL     1      44.418  29.247 111.673  0.00  0.00    +0.031 C 
ATOM     20  C   UNL     1      44.848  29.125 113.123  0.00  0.00    +0.082 C 
ATOM     21  N   UNL     1      43.665  28.737 113.940  0.00  0.00    -0.316 NA
ATOM     22  H   UNL     1      43.206  27.866 113.521  0.00  0.00    +0.122 HD
ATOM     23  C   UNL     1      42.700  29.867 113.930  0.00  0.00    +0.082 C 
ATOM     24  C   UNL     1      42.159  29.894 112.517  0.00  0.00    +0.031 C 
ENDROOT
BRANCH   6   5
ATOM      1 CL   UNL     1      40.957  28.801 106.059  0.00  0.00    -0.084 Cl
ATOM      2  C   UNL     1      41.604  29.221 107.610  0.00  0.00    +0.041 A 
ATOM      3  C   UNL     1      42.944  29.555 107.739  0.00  0.00    +0.020 A 
ATOM      4  C   UNL     1      43.467  29.872 108.976  0.00  0.00    +0.006 A 
ATOM      5  C   UNL     1      42.651  29.883 110.095  0.00  0.00    -0.037 A 
ATOM     25  C   UNL     1      41.312  29.520 109.963  0.00  0.00    +0.006 A 
ATOM     26  C   UNL     1      40.793  29.196 108.729  0.00  0.00    +0.020 A 
ENDBRANCH   6   5
BRANCH   6   7
ATOM      7  C   UNL     1      43.643  31.705 111.549  0.00  0.00    -0.037 A 
ATOM      8  C   UNL     1      42.683  32.616 111.962  0.00  0.00    +0.005 A 
ATOM      9  C   UNL     1      42.975  33.953 112.074  0.00  0.00    +0.009 A 
ATOM     10  C   UNL     1      44.231  34.433 111.772  0.00  0.00    -0.015 A 
ATOM     17  C   UNL     1      45.204  33.535 111.351  0.00  0.00    +0.009 A 
ATOM     18  C   UNL     1      44.911  32.183 111.237  0.00  0.00    +0.005 A 
BRANCH  10  11
ATOM     11  C   UNL     1      44.499  35.869 111.930  0.00  0.00    +0.019 A 
ATOM     12  C   UNL     1      43.545  36.896 111.989  0.00  0.00    +0.142 A 
ATOM     13  N   UNL     1      44.213  38.063 112.185  0.00  0.00    -0.182 NA
ATOM     14  N   UNL     1      45.557  37.843 112.275  0.00  0.00    -0.284 N 
ATOM     15  H   UNL     1      46.323  38.575 112.426  0.00  0.00    +0.188 HD
ATOM     16  C   UNL     1      45.718  36.512 112.134  0.00  0.00    +0.113 A 
ENDBRANCH  10  11
ENDBRANCH   6   7
TORSDOF 3
