REMARK  Name = 4bck_ligand
REMARK  7 active torsions:
REMARK  status: ('A' for Active; 'I' for Inactive)
REMARK    1  A    between atoms: C7A_1  and  N6A_2
REMARK    2  A    between atoms: C1A_5  and  C8A_6
REMARK    3  A    between atoms: C5A_7  and  C4_8
REMARK    4  A    between atoms: N7_11  and  C1B_12
REMARK    5  A    between atoms: C3B_14  and  S7B_15
REMARK    6  A    between atoms: S7B_15  and  N9B_17
REMARK    7  A    between atoms: C5_24  and  C8_25
REMARK                            x       y       z     vdW  Elec       q    Type
REMARK                         _______ _______ _______ _____ _____    ______ ____
ROOT
ATOM      7  C   UNL     1       7.774  22.783  24.237  0.00  0.00    +0.069 A 
ATOM      8  C   UNL     1       9.080  23.058  23.896  0.00  0.00    +0.120 A 
ATOM     11  C   UNL     1       9.755  24.066  24.548  0.00  0.00    +0.132 A 
ATOM     12  N   UNL     1       9.147  24.801  25.515  0.00  0.00    -0.253 NA
ATOM     13  C   UNL     1       7.851  24.543  25.845  0.00  0.00    +0.203 A 
ATOM     14  N   UNL     1       7.176  25.305  26.885  0.00  0.00    -0.240 N 
ATOM     15  H   UNL     1       7.549  25.308  27.845  0.00  0.00    +0.221 HD
ATOM     28  N   UNL     1       7.182  23.528  25.210  0.00  0.00    -0.258 NA
ENDROOT
BRANCH   7   6
ATOM      1  C   UNL     1       3.530  18.859  21.371  0.00  0.00    +0.175 C 
ATOM      2  N   UNL     1       3.744  20.187  21.902  0.00  0.00    -0.280 N 
ATOM      3  H   UNL     1       2.993  20.890  21.849  0.00  0.00    +0.195 HD
ATOM      4  C   UNL     1       5.009  20.526  22.506  0.00  0.00    +0.193 A 
ATOM      5  S   UNL     1       5.428  21.997  23.068  0.00  0.00    +0.021 S 
ATOM      6  C   UNL     1       6.920  21.707  23.589  0.00  0.00    +0.069 A 
ATOM     29  C   UNL     1       7.226  20.326  23.358  0.00  0.00    +0.011 A 
ATOM     30  C   UNL     1       8.494  19.631  23.692  0.00  0.00    +0.107 C 
ATOM     31  N   UNL     1       6.076  19.649  22.710  0.00  0.00    -0.286 NA
ENDBRANCH   7   6
BRANCH  14  16
ATOM     16  C   UNL     1       5.973  26.064  26.569  0.00  0.00    +0.069 A 
ATOM     17  C   UNL     1       5.795  27.339  27.091  0.00  0.00    +0.017 A 
ATOM     18  C   UNL     1       4.632  28.065  26.802  0.00  0.00    -0.010 A 
ATOM     19  C   UNL     1       3.644  27.511  25.988  0.00  0.00    +0.008 A 
ATOM     20  C   UNL     1       3.812  26.238  25.468  0.00  0.00    +0.099 A 
ATOM     27  C   UNL     1       4.975  25.508  25.763  0.00  0.00    +0.045 A 
BRANCH  20  21
ATOM     21  S   UNL     1       2.551  25.531  24.434  0.00  0.00    +0.063 S 
ATOM     22  O   UNL     1       1.250  25.946  24.884  0.00  0.00    -0.151 OA
ATOM     26  O   UNL     1       2.631  24.089  24.459  0.00  0.00    -0.151 OA
BRANCH  21  23
ATOM     23  N   UNL     1       2.839  26.081  22.914  0.00  0.00    -0.261 NA
ATOM     24  H   UNL     1       3.611  26.692  22.741  0.00  0.00    +0.164 HD
ATOM     25  H   UNL     1       2.242  25.805  22.161  0.00  0.00    +0.164 HD
ENDBRANCH  21  23
ENDBRANCH  20  21
ENDBRANCH  14  16
BRANCH   8   9
ATOM      9  C   UNL     1       9.807  22.287  22.837  0.00  0.00    +0.089 C 
ATOM     10  N   UNL     1      10.378  21.708  22.031  0.00  0.00    -0.343 NA
ENDBRANCH   8   9
TORSDOF 5
