REMARK  Name = 6NY4
REMARK  5 active torsions:
REMARK  status: ('A' for Active; 'I' for Inactive)
REMARK    1  A    between atoms: C8_2  and  C2_4
REMARK    2  A    between atoms: N2_8  and  C4_9
REMARK    3  A    between atoms: C4_9  and  C6_10
REMARK    4  A    between atoms: C4_9  and  C5_13
REMARK    5  A    between atoms: C10_17  and  C12_20
REMARK                            x       y       z     vdW  Elec       q    Type
REMARK                         _______ _______ _______ _____ _____    ______ ____
ROOT
ATOM      3  C   UNK A   0      -0.567 -13.017  -3.791  0.00  0.00    +0.000 A 
ATOM      4  C   UNK A   0      -0.151 -14.350  -4.046  0.00  0.00    +0.050 A 
ATOM      5  C   UNK A   0      -1.064 -15.396  -3.711  0.00  0.00    +0.150 A 
ATOM      6  N   UNK A   0      -2.328 -15.021  -3.275  0.00  0.00    -0.200 N 
ATOM      7  C   UNK A   0      -3.079 -16.128  -2.952  0.00  0.00    -0.050 A 
ATOM      8  C   UNK A   0      -2.310 -17.246  -3.145  0.00  0.00    +0.100 A 
ATOM     15  N   UNK A   0      -2.783 -13.737  -3.081  0.00  0.00    -0.350 NA
ATOM     16  C   UNK A   0      -1.028 -16.790  -3.627  0.00  0.00    -0.200 A 
ATOM     17  N   THR A   1       0.989 -14.451  -4.640  0.00  0.00    -0.150 NA
ATOM     24  C   UNK A   0      -1.840 -12.823  -3.325  0.00  0.00    +0.000 A 
ENDROOT
BRANCH   8   9
ATOM      9  C   UNK A   0      -2.736 -18.657  -2.918  0.00  0.00    +0.000 A 
ATOM     10  C   UNK A   0      -4.023 -18.948  -2.448  0.00  0.00    -0.130 A 
ATOM     11  C   UNK A   0      -4.436 -20.264  -2.285  0.00  0.00    -0.130 A 
ATOM     12  C   UNK A   0      -3.577 -21.308  -2.580  0.00  0.00    -0.130 A 
ATOM     13  C   UNK A   0      -2.289 -21.035  -3.024  0.00  0.00    -0.130 A 
ATOM     14  C   UNK A   0      -1.869 -19.719  -3.193  0.00  0.00    -0.130 A 
ENDBRANCH   8   9
BRANCH   3   2
ATOM      1  O   UNK A   0       1.382 -11.923  -4.585  0.00  0.00    -0.550 OA
ATOM      2  C   UNK A   0       0.270 -11.804  -4.060  0.00  0.00    +0.600 C 
ATOM     25  N   UNK A   0      -0.243 -10.610  -3.755  0.00  0.00    -0.550 NA
ENDBRANCH   3   2
BRANCH  17  18
ATOM     18  CA  THR A   1       1.566 -15.715  -5.097  0.00  0.00    +0.050 C 
BRANCH  18  21
ATOM     21  CB  THR A   1       2.391 -15.480  -6.366  0.00  0.00    +0.200 C 
ATOM     22  OG1 THR A   1       3.246 -14.364  -6.129  0.00  0.00    -0.650 OA
ATOM     23  CG2 THR A   1       1.553 -15.188  -7.595  0.00  0.00    -0.150 C 
ENDBRANCH  18  21
BRANCH  18  19
ATOM     19  C   THR A   1       2.455 -16.296  -4.012  0.00  0.00    +0.150 C 
ATOM     20  O   THR A   1       2.837 -17.620  -4.357  0.00  0.00    -0.650 OA
ENDBRANCH  18  19
ENDBRANCH  17  18
TORSDOF 5
