REMARK  Name = 2xkc_ligand
REMARK  10 active torsions:
REMARK  status: ('A' for Active; 'I' for Inactive)
REMARK    1  A    between atoms: CAD_1  and  CAT_2
REMARK    2  A    between atoms: CBA_4  and  CAS_5
REMARK    3  A    between atoms: CAV_10  and  CBB_11
REMARK    4  A    between atoms: CAX_17  and  CAW_18
REMARK    5  A    between atoms: CAY_21  and  OAP_22
REMARK    6  A    between atoms: OAP_22  and  CAA_23
REMARK    7  A    between atoms: CBC_24  and  OAR_25
REMARK    8  A    between atoms: OAR_25  and  CAC_26
REMARK    9  A    between atoms: CAZ_27  and  OAQ_28
REMARK   10  A    between atoms: OAQ_28  and  CAB_29
REMARK                            x       y       z     vdW  Elec       q    Type
REMARK                         _______ _______ _______ _____ _____    ______ ____
ROOT
ATOM      7  C   UNL     1      24.823  -7.065  18.014  0.00  0.00    +0.098 A 
ATOM      8  C   UNL     1      24.627  -5.721  18.606  0.00  0.00    +0.148 A 
ATOM      9  N   UNL     1      25.001  -5.484  19.837  0.00  0.00    -0.261 NA
ATOM     10  C   UNL     1      25.568  -6.471  20.574  0.00  0.00    +0.117 A 
ATOM     11  C   UNL     1      25.753  -7.772  20.002  0.00  0.00    +0.054 A 
ATOM     24  N   UNL     1      24.006  -4.672  17.822  0.00  0.00    -0.314 N 
ATOM     25  H   UNL     1      23.715  -4.857  16.862  0.00  0.00    +0.181 HD
ATOM     26  H   UNL     1      23.860  -3.749  18.230  0.00  0.00    +0.181 HD
ATOM     27  N   UNL     1      25.366  -8.019  18.726  0.00  0.00    -0.279 NA
ENDROOT
BRANCH   7   6
ATOM      1  C   UNL     1      21.177  -7.275  14.533  0.00  0.00    +0.091 C 
ATOM      2  C   UNL     1      22.650  -7.428  14.904  0.00  0.00    -0.031 A 
ATOM      3  C   UNL     1      23.617  -7.792  13.904  0.00  0.00    +0.012 A 
ATOM      4  C   UNL     1      24.978  -7.924  14.260  0.00  0.00    +0.010 A 
ATOM      5  C   UNL     1      25.376  -7.707  15.548  0.00  0.00    +0.002 A 
ATOM      6  C   UNL     1      24.377  -7.331  16.578  0.00  0.00    -0.003 A 
ATOM     31  C   UNL     1      23.061  -7.202  16.236  0.00  0.00    +0.009 A 
BRANCH   3  28
ATOM     28  C   UNL     1      23.185  -8.045  12.460  0.00  0.00    +0.059 C 
ATOM     29  O   UNL     1      22.482  -7.063  11.750  0.00  0.00    -0.563 OA
ATOM     30  O   UNL     1      23.581  -9.006  11.891  0.00  0.00    -0.563 OA
ENDBRANCH   3  28
ENDBRANCH   7   6
BRANCH  11  12
ATOM     12  C   UNL     1      26.403  -8.883  20.822  0.00  0.00    -0.029 A 
ATOM     13  C   UNL     1      26.460 -10.264  20.282  0.00  0.00    +0.002 A 
ATOM     14  C   UNL     1      27.056 -11.257  21.006  0.00  0.00    +0.114 A 
ATOM     15  C   UNL     1      27.625 -10.961  22.264  0.00  0.00    +0.150 A 
ATOM     16  C   UNL     1      27.581  -9.621  22.778  0.00  0.00    +0.114 A 
ATOM     23  C   UNL     1      26.968  -8.595  22.029  0.00  0.00    +0.002 A 
BRANCH  16  17
ATOM     17  O   UNL     1      28.137  -9.324  24.024  0.00  0.00    -0.328 OA
ATOM     18  C   UNL     1      27.536  -9.834  25.179  0.00  0.00    +0.228 C 
ENDBRANCH  16  17
BRANCH  15  19
ATOM     19  O   UNL     1      28.240 -11.979  22.999  0.00  0.00    -0.327 OA
ATOM     20  C   UNL     1      29.572 -12.310  22.728  0.00  0.00    +0.226 C 
ENDBRANCH  15  19
BRANCH  14  21
ATOM     21  O   UNL     1      27.088 -12.569  20.515  0.00  0.00    -0.328 OA
ATOM     22  C   UNL     1      26.684 -12.838  19.201  0.00  0.00    +0.228 C 
ENDBRANCH  14  21
ENDBRANCH  11  12
TORSDOF 6
