REMARK  Name = 1oir_ligand
REMARK  11 active torsions:
REMARK  status: ('A' for Active; 'I' for Inactive)
REMARK    1  A    between atoms: C10_1  and  C9_2
REMARK    2  A    between atoms: C7_10  and  C11_11
REMARK    3  A    between atoms: N17_17  and  C18_18
REMARK    4  A    between atoms: C21_23  and  O24_24
REMARK    5  A    between atoms: O24_24  and  C25_25
REMARK    6  A    between atoms: C25_25  and  C26_26
REMARK    7  A    between atoms: C26_26  and  O31_27
REMARK    8  A    between atoms: C26_26  and  C27_28
REMARK    9  A    between atoms: C27_28  and  N28_29
REMARK   10  A    between atoms: N28_29  and  C30_30
REMARK   11  A    between atoms: N28_29  and  C29_31
REMARK                            x       y       z     vdW  Elec       q    Type
REMARK                         _______ _______ _______ _____ _____    ______ ____
ROOT
ATOM      4  C   UNL     1       0.194  28.981   7.654  0.00  0.00    +0.111 A 
ATOM      5  N   UNL     1       1.354  28.431   7.230  0.00  0.00    -0.234 NA
ATOM      6  C   UNL     1       2.208  29.139   6.479  0.00  0.00    +0.229 A 
ATOM      7  N   UNL     1       3.363  28.596   6.017  0.00  0.00    -0.240 N 
ATOM      8  H   UNL     1       3.993  29.258   5.542  0.00  0.00    +0.221 HD
ATOM     25  N   UNL     1       1.908  30.436   6.181  0.00  0.00    -0.219 NA
ATOM     26  C   UNL     1       0.786  31.035   6.609  0.00  0.00    +0.145 A 
ATOM     27  C   UNL     1      -0.121  30.306   7.371  0.00  0.00    +0.110 A 
ENDROOT
BRANCH   4   3
ATOM      1  C   UNL     1      -2.302  29.869   9.688  0.00  0.00    +0.231 C 
ATOM      2  C   UNL     1      -1.766  28.494   9.424  0.00  0.00    +0.177 A 
ATOM      3  C   UNL     1      -0.658  28.122   8.488  0.00  0.00    +0.163 A 
ATOM     28  N   UNL     1      -0.527  26.690   8.619  0.00  0.00    -0.274 N 
ATOM     29  C   UNL     1       0.290  25.820   8.002  0.00  0.00    +0.087 A 
ATOM     30  C   UNL     1       0.148  24.468   8.342  0.00  0.00    +0.033 A 
ATOM     31  C   UNL     1      -0.828  24.066   9.270  0.00  0.00    +0.032 A 
ATOM     32  C   UNL     1      -1.670  24.994   9.881  0.00  0.00    +0.079 A 
ATOM     33  C   UNL     1      -1.502  26.323   9.549  0.00  0.00    +0.173 A 
ATOM     34  N   UNL     1      -2.233  27.386  10.004  0.00  0.00    -0.192 N 
ATOM     35  H   UNL     1      -3.010  27.340  10.678  0.00  0.00    +0.266 HD
ENDBRANCH   4   3
BRANCH   7   9
ATOM      9  C   UNL     1       3.822  27.314   6.082  0.00  0.00    +0.062 A 
ATOM     10  C   UNL     1       3.721  26.470   7.201  0.00  0.00    +0.011 A 
ATOM     11  C   UNL     1       4.260  25.170   7.152  0.00  0.00    +0.014 A 
ATOM     12  C   UNL     1       4.891  24.682   5.999  0.00  0.00    +0.084 A 
ATOM     23  C   UNL     1       5.003  25.539   4.904  0.00  0.00    +0.014 A 
ATOM     24  C   UNL     1       4.470  26.831   4.948  0.00  0.00    +0.011 A 
BRANCH  12  13
ATOM     13  O   UNL     1       5.445  23.397   5.984  0.00  0.00    -0.320 OA
BRANCH  13  14
ATOM     14  C   UNL     1       5.075  22.224   5.228  0.00  0.00    +0.228 C 
BRANCH  14  15
ATOM     15  C   UNL     1       6.301  21.308   5.010  0.00  0.00    +0.190 C 
BRANCH  15  21
ATOM     21  O   UNL     1       7.467  21.935   5.546  0.00  0.00    -0.384 OA
ATOM     22  H   UNL     1       7.345  22.085   6.476  0.00  0.00    +0.210 HD
ENDBRANCH  15  21
BRANCH  15  16
ATOM     16  C   UNL     1       6.176  19.911   5.652  0.00  0.00    +0.165 C 
BRANCH  16  17
ATOM     17  N   UNL     1       5.259  18.970   4.986  0.00  0.00    +0.233 N 
ATOM     18  H   UNL     1       4.679  19.466   4.327  0.00  0.00    +0.203 HD
ATOM     19  C   UNL     1       4.441  18.264   5.968  0.00  0.00    +0.190 C 
ATOM     20  C   UNL     1       6.029  17.925   4.322  0.00  0.00    +0.190 C 
ENDBRANCH  16  17
ENDBRANCH  15  16
ENDBRANCH  14  15
ENDBRANCH  13  14
ENDBRANCH  12  13
ENDBRANCH   7   9
TORSDOF 8
