REMARK  Name = 4Z3V
REMARK  4 active torsions:
REMARK  status: ('A' for Active; 'I' for Inactive)
REMARK    1  A    between atoms: C_1  and  C_2
REMARK    2  A    between atoms: C_10  and  C_11
REMARK    3  A    between atoms: C_16  and  N_17
REMARK    4  A    between atoms: C_18  and  C_22
REMARK                            x       y       z     vdW  Elec       q    Type
REMARK                         _______ _______ _______ _____ _____    ______ ____
ROOT
ATOM      4  C   UNL     1     -22.356  -7.866   2.857  0.00  0.00    +0.010 A 
ATOM      5  C   UNL     1     -21.247  -7.099   2.406  0.00  0.00    +0.103 A 
ATOM      6  N   UNL     1     -20.336  -6.659   3.283  0.00  0.00    -0.148 NA
ATOM      7  N   UNL     1     -19.308  -5.982   2.900  0.00  0.00    -0.142 NA
ATOM      8  C   UNL     1     -19.079  -5.645   1.621  0.00  0.00    +0.169 A 
ATOM     14  C   UNL     1     -19.970  -6.037   0.606  0.00  0.00    +0.067 A 
ATOM     18  C   UNL     1     -21.100  -6.808   1.027  0.00  0.00    +0.026 A 
ATOM     19  C   UNL     1     -22.053  -7.270   0.098  0.00  0.00    +0.012 A 
ATOM     20  C   UNL     1     -23.107  -8.025   0.559  0.00  0.00    +0.001 A 
ATOM     21  C   UNL     1     -23.270  -8.318   1.908  0.00  0.00    +0.010 A 
ENDROOT
BRANCH   4   3
ATOM      1  C   UNL     1     -20.646  -9.934   4.190  0.00  0.00    +0.044 C 
ATOM      2  C   UNL     1     -21.707  -9.160   4.952  0.00  0.00    -0.042 A 
ATOM      3  C   UNL     1     -22.514  -8.182   4.306  0.00  0.00    -0.011 A 
ATOM     22  C   UNL     1     -23.482  -7.489   5.020  0.00  0.00    +0.036 A 
ATOM     23  C   UNL     1     -23.646  -7.759   6.375  0.00  0.00    +0.066 A 
ATOM     24  N   UNL     1     -24.498  -7.247   7.331  0.00  0.00    -0.277 N 
ATOM     25  H   UNL     1     -25.241  -6.493   7.176  0.00  0.00    +0.189 HD
ATOM     26  N   UNL     1     -24.216  -7.889   8.537  0.00  0.00    -0.181 NA
ATOM     27  C   UNL     1     -23.255  -8.761   8.379  0.00  0.00    +0.142 A 
ATOM     28  C   UNL     1     -22.841  -8.733   7.018  0.00  0.00    +0.020 A 
ATOM     29  C   UNL     1     -21.862  -9.440   6.285  0.00  0.00    +0.015 A 
ENDBRANCH   4   3
BRANCH   8   9
ATOM      9  C   UNL     1     -17.843  -4.889   1.347  0.00  0.00    +0.264 C 
ATOM     10  O   UNL     1     -17.645  -4.356   0.261  0.00  0.00    -0.269 OA
ATOM     11  N   UNL     1     -16.907  -4.841   2.324  0.00  0.00    -0.324 N 
ATOM     12  H   UNL     1     -15.996  -4.303   2.166  0.00  0.00    +0.145 HD
ATOM     13  H   UNL     1     -17.079  -5.341   3.254  0.00  0.00    +0.145 HD
ENDBRANCH   8   9
BRANCH  14  15
ATOM     15  N   UNL     1     -19.768  -5.730  -0.727  0.00  0.00    -0.356 N 
ATOM     16  H   UNL     1     -18.916  -5.152  -1.020  0.00  0.00    +0.142 HD
ATOM     17  H   UNL     1     -20.463  -6.070  -1.466  0.00  0.00    +0.142 HD
ENDBRANCH  14  15
TORSDOF 3
