REMARK  Name = 2pe0_ligand
REMARK  3 active torsions:
REMARK  status: ('A' for Active; 'I' for Inactive)
REMARK    1  A    between atoms: C9_6  and  O12_14
REMARK    2  A    between atoms: C19_9  and  C20_10
REMARK    3  A    between atoms: C19_9  and  C21_11
REMARK                            x       y       z     vdW  Elec       q    Type
REMARK                         _______ _______ _______ _____ _____    ______ ____
ROOT
ATOM      1  C   UNL     1      -8.157  41.329  44.330  0.00  0.00    +0.201 C 
ATOM      2  N   UNL     1      -9.172  42.043  43.845  0.00  0.00    -0.248 N 
ATOM      3  H   UNL     1     -10.101  41.703  43.697  0.00  0.00    +0.220 HD
ATOM      4  C   UNL     1      -8.752  43.287  43.588  0.00  0.00    +0.054 A 
ATOM      5  C   UNL     1      -9.433  44.408  43.079  0.00  0.00    -0.008 A 
ATOM      6  C   UNL     1      -8.754  45.624  42.896  0.00  0.00    -0.006 A 
ATOM      7  C   UNL     1      -7.391  45.724  43.221  0.00  0.00    +0.066 A 
ATOM     10  C   UNL     1      -6.704  44.613  43.732  0.00  0.00    -0.006 A 
ATOM     11  C   UNL     1      -7.378  43.383  43.922  0.00  0.00    -0.019 A 
ATOM     12  O   UNL     1      -8.266  40.156  44.667  0.00  0.00    -0.395 OA
ATOM     13  C   UNL     1      -7.000  42.115  44.404  0.00  0.00    +0.037 C 
ATOM     14  C   UNL     1      -5.687  41.728  44.896  0.00  0.00    -0.003 C 
ATOM     21  C   UNL     1      -4.561  42.782  45.001  0.00  0.00    +0.109 C 
ENDROOT
BRANCH  14  15
ATOM     15  C   UNL     1      -5.362  40.409  45.317  0.00  0.00    +0.073 A 
ATOM     16  N   UNL     1      -6.146  39.329  45.301  0.00  0.00    -0.279 N 
ATOM     17  H   UNL     1      -7.119  39.300  44.965  0.00  0.00    +0.234 HD
ATOM     18  C   UNL     1      -5.463  38.296  45.790  0.00  0.00    +0.122 A 
ATOM     19  C   UNL     1      -4.248  38.725  46.113  0.00  0.00    -0.032 A 
ATOM     20  C   UNL     1      -4.184  40.024  45.823  0.00  0.00    -0.019 A 
ENDBRANCH  14  15
BRANCH   7   8
ATOM      8  O   UNL     1      -6.731  46.891  43.020  0.00  0.00    -0.344 OA
ATOM      9  H   UNL     1      -5.825  46.792  43.289  0.00  0.00    +0.243 HD
ENDBRANCH   7   8
TORSDOF 2
