REMARK  Name = 3tei_ligand
REMARK  11 active torsions:
REMARK  status: ('A' for Active; 'I' for Inactive)
REMARK    1  A    between atoms: PG_1  and  N3B_8
REMARK    2  A    between atoms: PB_5  and  N3B_8
REMARK    3  A    between atoms: PB_5  and  O3A_12
REMARK    4  A    between atoms: PA_9  and  O3A_12
REMARK    5  A    between atoms: PA_9  and  O5'_13
REMARK    6  A    between atoms: O5'_13  and  C5'_14
REMARK    7  A    between atoms: C5'_14  and  C4'_15
REMARK    8  A    between atoms: C3'_17  and  O3'_18
REMARK    9  A    between atoms: C2'_19  and  O2'_20
REMARK   10  A    between atoms: C1'_21  and  N9_22
REMARK   11  A    between atoms: C6_26  and  N6_27
REMARK                            x       y       z     vdW  Elec       q    Type
REMARK                         _______ _______ _______ _____ _____    ______ ____
ROOT
ATOM      9  C   UNL     1       0.367   1.804   7.596  0.00  0.00    +0.184 C 
ATOM     10  C   UNL     1       0.589   1.918   9.064  0.00  0.00    +0.180 C 
ATOM     11  C   UNL     1      -0.434   2.789   9.541  0.00  0.00    +0.206 C 
ATOM     12  C   UNL     1      -0.749   3.623   8.377  0.00  0.00    +0.301 C 
ATOM     29  O   UNL     1      -0.453   2.853   7.216  0.00  0.00    -0.336 OA
ENDROOT
BRANCH  12  13
ATOM     13  N   UNL     1      -2.101   4.223   8.281  0.00  0.00    -0.192 N 
ATOM     14  C   UNL     1      -2.391   5.530   8.536  0.00  0.00    +0.161 A 
ATOM     15  N   UNL     1      -1.660   6.602   8.922  0.00  0.00    -0.271 NA
ATOM     16  C   UNL     1      -2.245   7.798   9.097  0.00  0.00    +0.153 A 
ATOM     17  N   UNL     1      -3.555   7.979   8.905  0.00  0.00    -0.270 NA
ATOM     18  C   UNL     1      -4.323   6.952   8.517  0.00  0.00    +0.130 A 
ATOM     22  C   UNL     1      -3.760   5.679   8.321  0.00  0.00    +0.105 A 
ATOM     23  N   UNL     1      -4.239   4.465   7.938  0.00  0.00    -0.296 NA
ATOM     24  C   UNL     1      -3.233   3.588   7.917  0.00  0.00    +0.247 A 
BRANCH  18  19
ATOM     19  N   UNL     1      -5.730   7.159   8.302  0.00  0.00    -0.315 N 
ATOM     20  H   UNL     1      -6.326   6.374   8.004  0.00  0.00    +0.182 HD
ATOM     21  H   UNL     1      -6.141   8.092   8.446  0.00  0.00    +0.182 HD
ENDBRANCH  18  19
ENDBRANCH  12  13
BRANCH  11  25
ATOM     25  O   UNL     1       0.011   3.573  10.586  0.00  0.00    -0.384 OA
ATOM     26  H   UNL     1       0.744   4.103  10.294  0.00  0.00    +0.210 HD
ENDBRANCH  11  25
BRANCH  10  27
ATOM     27  O   UNL     1       1.862   2.419   9.322  0.00  0.00    -0.386 OA
ATOM     28  H   UNL     1       1.990   2.486  10.261  0.00  0.00    +0.210 HD
ENDBRANCH  10  27
BRANCH   9   8
ATOM      8  C   UNL     1      -0.285   0.526   7.291  0.00  0.00    +0.242 C 
BRANCH   8   7
ATOM      7  O   UNL     1      -1.543   0.226   7.884  0.00  0.00    -0.248 OA
BRANCH   7   6
ATOM      6  P   UNL     1      -2.751  -0.219   6.977  0.00  0.00    +0.295 P 
ATOM     30  O   UNL     1      -2.827   0.741   5.838  0.00  0.00    -0.613 OA
ATOM     31  O   UNL     1      -4.098  -0.200   7.745  0.00  0.00    -0.613 OA
BRANCH   6   5
ATOM      5  O   UNL     1      -2.429  -1.594   6.296  0.00  0.00    -0.143 OA
BRANCH   5   4
ATOM      4  P   UNL     1      -2.944  -2.956   6.912  0.00  0.00    +0.254 P 
ATOM     32  O   UNL     1      -2.042  -4.256   6.803  0.00  0.00    -0.626 OA
ATOM     33  O   UNL     1      -4.403  -2.917   6.254  0.00  0.00    -0.626 OA
BRANCH   4   2
ATOM      2  N   UNL     1      -3.410  -2.394   8.500  0.00  0.00    -0.180 NA
ATOM      3  H   UNL     1      -4.200  -1.821   8.718  0.00  0.00    +0.213 HD
BRANCH   2   1
ATOM      1  P   UNL     1      -2.302  -2.987   9.574  0.00  0.00    +0.180 P 
ATOM     34  O   UNL     1      -2.685  -4.527   9.875  0.00  0.00    -0.545 OA
ATOM     35  O   UNL     1      -2.455  -2.178  10.914  0.00  0.00    -0.545 OA
ATOM     36  O   UNL     1      -0.899  -2.864   9.015  0.00  0.00    -0.545 OA
ENDBRANCH   2   1
ENDBRANCH   4   2
ENDBRANCH   5   4
ENDBRANCH   6   5
ENDBRANCH   7   6
ENDBRANCH   8   7
ENDBRANCH   9   8
TORSDOF 11
