REMARK  Name = 4eok_ligand
REMARK  6 active torsions:
REMARK  status: ('A' for Active; 'I' for Inactive)
REMARK    1  A    between atoms: C10_3  and  C11_4
REMARK    2  A    between atoms: C10_3  and  O6_17
REMARK    3  A    between atoms: C20_11  and  S23_26
REMARK    4  A    between atoms: N26_14  and  S23_26
REMARK    5  A    between atoms: C6_16  and  O6_17
REMARK    6  A    between atoms: N2_23  and  C17_24
REMARK                            x       y       z     vdW  Elec       q    Type
REMARK                         _______ _______ _______ _____ _____    ______ ____
ROOT
ATOM      1  C   UNL     1      10.840  27.048  25.136  0.00  0.00    +0.179 A 
ATOM      2  N   UNL     1      10.446  28.130  25.870  0.00  0.00    -0.249 N 
ATOM      3  H   UNL     1      11.092  28.426  26.615  0.00  0.00    +0.216 HD
ATOM     16  N   UNL     1      12.156  26.695  25.138  0.00  0.00    -0.257 NA
ATOM     17  C   UNL     1      12.539  25.613  24.419  0.00  0.00    +0.145 A 
ATOM     18  N   UNL     1      13.758  25.066  24.254  0.00  0.00    -0.240 N 
ATOM     19  H   UNL     1      14.640  25.394  24.673  0.00  0.00    +0.238 HD
ATOM     20  C   UNL     1      13.601  23.994  23.426  0.00  0.00    +0.235 A 
ATOM     21  N   UNL     1      12.300  23.848  23.053  0.00  0.00    -0.302 NA
ATOM     22  C   UNL     1      11.585  24.828  23.637  0.00  0.00    +0.104 A 
ATOM     23  C   UNL     1      10.268  25.239  23.674  0.00  0.00    +0.176 A 
ATOM     32  N   UNL     1       9.936  26.323  24.420  0.00  0.00    -0.240 NA
ENDROOT
BRANCH   2   4
ATOM      4  C   UNL     1       9.304  28.871  25.743  0.00  0.00    +0.064 A 
ATOM      5  C   UNL     1       8.860  29.618  26.835  0.00  0.00    +0.017 A 
ATOM      6  C   UNL     1       7.707  30.403  26.756  0.00  0.00    +0.016 A 
ATOM      7  C   UNL     1       6.966  30.457  25.573  0.00  0.00    +0.096 A 
ATOM     14  C   UNL     1       7.413  29.712  24.480  0.00  0.00    +0.016 A 
ATOM     15  C   UNL     1       8.569  28.933  24.562  0.00  0.00    +0.017 A 
BRANCH   7   8
ATOM      8  S   UNL     1       5.631  31.359  25.452  0.00  0.00    +0.061 S 
ATOM      9  O   UNL     1       5.325  32.022  26.749  0.00  0.00    -0.152 OA
ATOM     10  O   UNL     1       5.855  32.403  24.425  0.00  0.00    -0.152 OA
BRANCH   8  11
ATOM     11  N   UNL     1       4.441  30.505  25.051  0.00  0.00    -0.262 NA
ATOM     12  H   UNL     1       4.558  29.523  24.902  0.00  0.00    +0.163 HD
ATOM     13  H   UNL     1       3.541  30.925  24.936  0.00  0.00    +0.163 HD
ENDBRANCH   8  11
ENDBRANCH   7   8
ENDBRANCH   2   4
BRANCH  23  24
ATOM     24  O   UNL     1       9.316  24.563  22.971  0.00  0.00    -0.293 OA
BRANCH  24  25
ATOM     25  C   UNL     1       8.046  25.175  22.785  0.00  0.00    +0.206 C 
BRANCH  25  26
ATOM     26  C   UNL     1       7.178  24.310  21.893  0.00  0.00    +0.021 C 
ATOM     27  C   UNL     1       5.724  24.651  22.218  0.00  0.00    +0.006 C 
ATOM     28  C   UNL     1       4.736  24.076  21.204  0.00  0.00    +0.000 C 
ATOM     29  C   UNL     1       5.112  24.501  19.785  0.00  0.00    +0.000 C 
ATOM     30  C   UNL     1       6.545  24.085  19.436  0.00  0.00    +0.000 C 
ATOM     31  C   UNL     1       7.557  24.629  20.442  0.00  0.00    +0.006 C 
ENDBRANCH  25  26
ENDBRANCH  24  25
ENDBRANCH  23  24
TORSDOF 6
