REMARK  Name = 3E8D
REMARK  15 active torsions:
REMARK  status: ('A' for Active; 'I' for Inactive)
REMARK    1  A    between atoms: C_3  and  C_30
REMARK    2  A    between atoms: C_6  and  C_7
REMARK    3  A    between atoms: C_6  and  N_29
REMARK    4  A    between atoms: C_8  and  N_31
REMARK    5  A    between atoms: C_9  and  C_10
REMARK    6  A    between atoms: C_9  and  O_16
REMARK    7  A    between atoms: C_9  and  C_17
REMARK    8  A    between atoms: C_9  and  C_18
REMARK    9  A    between atoms: C_11  and  C_23
REMARK   10  A    between atoms: C_11  and  C_26
REMARK   11  A    between atoms: C_19  and  C_20
REMARK   12  A    between atoms: C_21  and  O_22
REMARK   13  A    between atoms: O_22  and  C_23
REMARK   14  A    between atoms: C_23  and  C_24
REMARK   15  A    between atoms: C_26  and  N_27
REMARK                            x       y       z     vdW  Elec       q    Type
REMARK                         _______ _______ _______ _____ _____    ______ ____
ROOT
ATOM      1  N   UNL     1      30.024 -23.521  -6.019  0.00  0.00    -0.221 NA
ATOM      2  C   UNL     1      29.262 -24.295  -6.827  0.00  0.00    +0.215 C 
ATOM      3  C   UNL     1      29.569 -24.393  -8.184  0.00  0.00    +0.094 C 
ATOM      4  C   UNL     1      30.654 -23.687  -8.697  0.00  0.00    +0.073 C 
ATOM      5  N   UNL     1      31.161 -23.603  -9.940  0.00  0.00    -0.323 N 
ATOM      8  C   UNL     1      32.217 -22.775  -9.818  0.00  0.00    +0.164 C 
ATOM     18  N   UNL     1      32.400 -22.326  -8.564  0.00  0.00    -0.227 NA
ATOM     19  C   UNL     1      31.419 -22.894  -7.834  0.00  0.00    +0.111 C 
ATOM     33  C   UNL     1      31.087 -22.825  -6.480  0.00  0.00    +0.210 C 
ENDROOT
BRANCH   8   9
ATOM      9  C   UNL     1      33.077 -22.365 -10.853  0.00  0.00    +0.160 C 
ATOM     10  N   UNL     1      32.957 -22.764 -12.136  0.00  0.00    -0.189 NA
ATOM     11  H   UNL     1      32.231 -23.416 -12.575  0.00  0.00    +0.210 HD
ATOM     12  O   UNL     1      34.061 -22.082 -12.759  0.00  0.00    -0.266 OA
ATOM     13  N   UNL     1      34.833 -21.284 -11.849  0.00  0.00    -0.036 NA
ATOM     14  C   UNL     1      34.169 -21.510 -10.699  0.00  0.00    +0.188 C 
BRANCH  14  15
ATOM     15  N   UNL     1      34.569 -20.924  -9.544  0.00  0.00    -0.339 NA
ATOM     16  H   UNL     1      35.425 -20.282  -9.538  0.00  0.00    +0.144 HD
ATOM     17  H   UNL     1      34.029 -21.103  -8.638  0.00  0.00    +0.144 HD
ENDBRANCH  14  15
ENDBRANCH   8   9
BRANCH   5   6
ATOM      6  C   UNL     1      30.623 -24.311 -11.111  0.00  0.00    +0.121 C 
ATOM      7  C   UNL     1      29.549 -23.504 -11.800  0.00  0.00    +0.027 C 
ENDBRANCH   5   6
BRANCH  33  34
ATOM     34  C   UNL     1      31.760 -22.109  -5.644  0.00  0.00    -0.059 C 
ATOM     35  C   UNL     1      32.355 -21.514  -4.809  0.00  0.00    -0.065 C 
BRANCH  35  36
ATOM     36  C   UNL     1      32.971 -20.735  -3.714  0.00  0.00    +0.121 C 
ATOM     37  C   UNL     1      32.478 -19.292  -3.769  0.00  0.00    +0.055 C 
ATOM     40  C   UNL     1      34.493 -20.783  -3.821  0.00  0.00    +0.055 C 
BRANCH  36  38
ATOM     38  O   UNL     1      32.585 -21.298  -2.454  0.00  0.00    -0.377 OA
ATOM     39  H   UNL     1      32.916 -22.293  -2.398  0.00  0.00    +0.211 HD
ENDBRANCH  36  38
ENDBRANCH  35  36
ENDBRANCH  33  34
BRANCH   2  20
ATOM     20  O   UNL     1      28.207 -24.966  -6.253  0.00  0.00    -0.468 OA
BRANCH  20  21
ATOM     21  C   UNL     1      27.201 -25.691  -6.965  0.00  0.00    +0.206 C 
BRANCH  21  22
ATOM     22  C   UNL     1      26.307 -24.756  -7.683  0.00  0.00    -0.007 A 
ATOM     23  C   UNL     1      25.733 -23.685  -7.000  0.00  0.00    +0.007 A 
ATOM     24  C   UNL     1      24.887 -22.805  -7.668  0.00  0.00    +0.000 A 
ATOM     25  C   UNL     1      24.619 -23.004  -9.018  0.00  0.00    +0.000 A 
ATOM     26  C   UNL     1      25.189 -24.075  -9.699  0.00  0.00    +0.000 A 
ATOM     27  C   UNL     1      26.035 -24.953  -9.034  0.00  0.00    +0.007 A 
ENDBRANCH  21  22
BRANCH  21  28
ATOM     28  C   UNL     1      26.365 -26.492  -5.973  0.00  0.00    +0.064 C 
BRANCH  28  29
ATOM     29  C   UNL     1      27.098 -27.756  -5.540  0.00  0.00    +0.081 C 
BRANCH  29  30
ATOM     30  N   UNL     1      26.543 -28.237  -4.285  0.00  0.00    -0.330 NA
ATOM     31  H   UNL     1      26.657 -27.485  -3.532  0.00  0.00    +0.118 HD
ATOM     32  H   UNL     1      25.504 -28.456  -4.415  0.00  0.00    +0.118 HD
ENDBRANCH  29  30
ENDBRANCH  28  29
ENDBRANCH  21  28
ENDBRANCH  20  21
ENDBRANCH   2  20
TORSDOF 12
