REMARK  Name = 4FKG
REMARK  4 active torsions:
REMARK  status: ('A' for Active; 'I' for Inactive)
REMARK    1  A    between atoms: N_3  and  C_18
REMARK    2  A    between atoms: C_14  and  C_16
REMARK    3  A    between atoms: C_15  and  C_17
REMARK    4  A    between atoms: C_19  and  C_20
REMARK                            x       y       z     vdW  Elec       q    Type
REMARK                         _______ _______ _______ _____ _____    ______ ____
ROOT
ATOM      8  N   UNL     1       2.691  -6.326 -29.421  0.00  0.00    -0.267 N 
ATOM      9  H   UNL     1       3.322  -6.035 -30.235  0.00  0.00    +0.157 HD
ATOM     10  C   UNL     1       2.953  -7.510 -28.840  0.00  0.00    +0.249 C 
ATOM     20  O   UNL     1       2.266  -8.007 -27.947  0.00  0.00    -0.270 OA
ENDROOT
BRANCH   8   7
ATOM      1  N   UNL     1       0.742  -3.606 -28.981  0.00  0.00    -0.177 NA
ATOM      2  C   UNL     1       0.012  -4.486 -28.270  0.00  0.00    +0.068 A 
ATOM      6  C   UNL     1       0.610  -5.686 -28.312  0.00  0.00    +0.068 A 
ATOM      7  C   UNL     1       1.710  -5.472 -29.076  0.00  0.00    +0.121 A 
ATOM     21  N   UNL     1       1.741  -4.185 -29.463  0.00  0.00    -0.264 N 
ATOM     22  H   UNL     1       2.491  -3.733 -30.078  0.00  0.00    +0.190 HD
BRANCH   2   3
ATOM      3  C   UNL     1      -1.314  -4.040 -27.631  0.00  0.00    +0.040 C 
ATOM      4  C   UNL     1      -2.470  -5.054 -27.622  0.00  0.00    +0.010 C 
ATOM      5  C   UNL     1      -1.772  -4.676 -26.312  0.00  0.00    +0.010 C 
ENDBRANCH   2   3
ENDBRANCH   8   7
BRANCH  10  11
ATOM     11  C   UNL     1       4.097  -8.323 -29.461  0.00  0.00    +0.037 A 
ATOM     12  C   UNL     1       4.444  -8.196 -30.819  0.00  0.00    +0.013 A 
ATOM     13  C   UNL     1       5.456  -8.983 -31.372  0.00  0.00    +0.010 A 
ATOM     14  C   UNL     1       6.118  -9.913 -30.572  0.00  0.00    -0.003 A 
ATOM     18  C   UNL     1       5.776 -10.055 -29.221  0.00  0.00    +0.010 A 
ATOM     19  C   UNL     1       4.775  -9.255 -28.659  0.00  0.00    +0.013 A 
BRANCH  14  15
ATOM     15  C   UNL     1       7.201 -10.807 -31.201  0.00  0.00    +0.072 C 
ATOM     16  O   UNL     1       7.818 -11.587 -30.449  0.00  0.00    -0.545 OA
ATOM     17  O   UNL     1       7.369 -10.743 -32.438  0.00  0.00    -0.545 OA
ENDBRANCH  14  15
ENDBRANCH  10  11
TORSDOF 4
