REMARK  Name = 4A06
REMARK  3 active torsions:
REMARK  status: ('A' for Active; 'I' for Inactive)
REMARK    1  A    between atoms: C_1  and  C_15
REMARK    2  A    between atoms: C_14  and  C_16
REMARK    3  A    between atoms: C_15  and  C_16
REMARK                            x       y       z     vdW  Elec       q    Type
REMARK                         _______ _______ _______ _____ _____    ______ ____
ROOT
ATOM      4  C   UNL     1      15.779  -4.349 -13.952  0.00  0.00    +0.109 A 
ATOM      5  N   UNL     1      15.333  -3.976 -12.733  0.00  0.00    -0.342 N 
ATOM      6  H   UNL     1      14.343  -3.636 -12.511  0.00  0.00    +0.167 HD
ATOM      7  C   UNL     1      16.328  -4.100 -11.848  0.00  0.00    +0.066 A 
ATOM      8  C   UNL     1      17.490  -4.608 -12.606  0.00  0.00    +0.090 A 
ATOM      9  C   UNL     1      18.685  -4.844 -11.946  0.00  0.00    +0.050 A 
ATOM     10  C   UNL     1      18.761  -4.595 -10.581  0.00  0.00    +0.043 A 
ATOM     11 CL   UNL     1      20.304  -4.905  -9.730  0.00  0.00    -0.084 Cl
ATOM     12  C   UNL     1      17.670  -4.110  -9.864  0.00  0.00    +0.022 A 
ATOM     13  C   UNL     1      16.451  -3.860 -10.487  0.00  0.00    +0.029 A 
ATOM     14  N   UNL     1      17.077  -4.739 -13.883  0.00  0.00    -0.232 NA
ENDROOT
BRANCH   4   3
ATOM      3  C   UNL     1      14.944  -4.351 -15.210  0.00  0.00    +0.079 C 
BRANCH   3   2
ATOM      2  C   UNL     1      13.596  -4.972 -14.869  0.00  0.00    +0.042 C 
BRANCH   2   1
ATOM      1  C   UNL     1      13.840  -6.389 -14.535  0.00  0.00    -0.047 A 
ATOM     15  C   UNL     1      14.854  -7.065 -15.199  0.00  0.00    +0.005 A 
ATOM     16  C   UNL     1      15.102  -8.396 -14.901  0.00  0.00    +0.020 A 
ATOM     17  C   UNL     1      14.339  -9.049 -13.937  0.00  0.00    +0.041 A 
ATOM     18 CL   UNL     1      14.676 -10.776 -13.568  0.00  0.00    -0.084 Cl
ATOM     19  C   UNL     1      13.323  -8.369 -13.268  0.00  0.00    +0.020 A 
ATOM     20  C   UNL     1      13.074  -7.034 -13.569  0.00  0.00    +0.005 A 
ENDBRANCH   2   1
ENDBRANCH   3   2
ENDBRANCH   4   3
TORSDOF 3
