REMARK  Name = 4XEY
REMARK  8 active torsions:
REMARK  status: ('A' for Active; 'I' for Inactive)
REMARK    1  A    between atoms: C_2  and  C_3
REMARK    2  A    between atoms: N_4  and  C_16
REMARK    3  A    between atoms: C_7  and  C_8
REMARK    4  A    between atoms: C_9  and  N_18
REMARK    5  A    between atoms: C_12  and  C_13
REMARK    6  A    between atoms: C_16  and  C_17
REMARK    7  A    between atoms: C_17  and  O_33
REMARK    8  A    between atoms: N_22  and  C_23
REMARK                            x       y       z     vdW  Elec       q    Type
REMARK                         _______ _______ _______ _____ _____    ______ ____
ROOT
ATOM      1  C   UNL     1     -44.670 -17.100   1.276  0.00  0.00    +0.105 A 
ATOM      2  N   UNL     1     -45.368 -15.963   0.966  0.00  0.00    -0.339 N 
ATOM      3  H   UNL     1     -46.359 -15.992   0.564  0.00  0.00    +0.167 HD
ATOM      4  C   UNL     1     -44.720 -14.807   1.203  0.00  0.00    +0.173 A 
ATOM      5  S   UNL     1     -43.098 -15.092   1.862  0.00  0.00    -0.045 S 
ATOM      6  N   UNL     1     -45.336 -13.619   0.926  0.00  0.00    -0.204 NA
ATOM     24  C   UNL     1     -43.393 -16.830   1.782  0.00  0.00    +0.093 A 
ENDROOT
BRANCH   6   7
ATOM      7  C   UNL     1     -44.805 -12.363   1.131  0.00  0.00    +0.161 A 
ATOM      8  N   UNL     1     -43.642 -12.184   1.785  0.00  0.00    -0.213 NA
ATOM      9  C   UNL     1     -43.064 -10.978   2.006  0.00  0.00    +0.130 A 
ATOM     10  N   UNL     1     -43.670  -9.868   1.559  0.00  0.00    -0.218 NA
ATOM     11  C   UNL     1     -44.834  -9.999   0.902  0.00  0.00    +0.127 A 
ATOM     12  N   UNL     1     -45.383  -8.820   0.484  0.00  0.00    -0.313 N 
ATOM     13  C   UNL     1     -44.477  -7.650   0.461  0.00  0.00    +0.122 C 
ATOM     14  C   UNL     1     -44.945  -6.693  -0.628  0.00  0.00    +0.103 C 
ATOM     15  N   UNL     1     -46.387  -6.527  -0.490  0.00  0.00    -0.297 NA
ATOM     16  C   UNL     1     -47.162  -7.296   0.484  0.00  0.00    +0.103 C 
ATOM     21  C   UNL     1     -46.817  -8.757   0.331  0.00  0.00    +0.122 C 
ATOM     22  C   UNL     1     -41.753 -10.854   2.748  0.00  0.00    +0.088 C 
ATOM     23  C   UNL     1     -45.448 -11.235   0.663  0.00  0.00    +0.091 A 
BRANCH  15  17
ATOM     17  C   UNL     1     -47.166  -5.814  -1.499  0.00  0.00    +0.112 C 
BRANCH  17  18
ATOM     18  C   UNL     1     -46.421  -4.518  -1.787  0.00  0.00    +0.171 C 
BRANCH  18  19
ATOM     19  O   UNL     1     -46.427  -3.749  -0.567  0.00  0.00    -0.394 OA
ATOM     20  H   UNL     1     -47.418  -3.552  -0.282  0.00  0.00    +0.209 HD
ENDBRANCH  18  19
ENDBRANCH  17  18
ENDBRANCH  15  17
ENDBRANCH   6   7
BRANCH  24  25
ATOM     25  C   UNL     1     -42.307 -17.720   2.277  0.00  0.00    +0.256 C 
ATOM     26  O   UNL     1     -41.301 -17.165   2.682  0.00  0.00    -0.269 OA
ATOM     27  N   UNL     1     -42.455 -19.058   2.248  0.00  0.00    -0.280 N 
ATOM     28  H   UNL     1     -43.332 -19.479   1.804  0.00  0.00    +0.155 HD
BRANCH  27  29
ATOM     29  C   UNL     1     -41.499 -19.894   2.779  0.00  0.00    +0.055 A 
ATOM     30  C   UNL     1     -40.350 -20.264   2.060  0.00  0.00    +0.062 A 
ATOM     31 CL   UNL     1     -40.109 -19.674   0.390  0.00  0.00    -0.082 Cl
ATOM     32  C   UNL     1     -39.356 -21.101   2.592  0.00  0.00    +0.022 A 
ATOM     33  C   UNL     1     -39.480 -21.596   3.889  0.00  0.00    +0.002 A 
ATOM     34  C   UNL     1     -40.612 -21.232   4.612  0.00  0.00    +0.005 A 
ATOM     35  C   UNL     1     -41.601 -20.394   4.067  0.00  0.00    -0.028 A 
ATOM     36  C   UNL     1     -42.788 -20.073   4.943  0.00  0.00    +0.045 C 
ENDBRANCH  27  29
ENDBRANCH  24  25
TORSDOF 6
