REMARK  Name = 4py1_ligand
REMARK  8 active torsions:
REMARK  status: ('A' for Active; 'I' for Inactive)
REMARK    1  A    between atoms: C7_4  and  S_19
REMARK    2  A    between atoms: C16_10  and  O1_17
REMARK    3  A    between atoms: C17_11  and  O2_12
REMARK    4  A    between atoms: O2_12  and  C12_13
REMARK    5  A    between atoms: C15_16  and  O1_17
REMARK    6  A    between atoms: C10_18  and  S_19
REMARK    7  A    between atoms: C5_22  and  C3_23
REMARK    8  A    between atoms: N1_25  and  C1_26
REMARK                            x       y       z     vdW  Elec       q    Type
REMARK                         _______ _______ _______ _____ _____    ______ ____
ROOT
ATOM      1  N   UNL     1       9.365 -11.398  16.279  0.00  0.00    -0.269 NA
ATOM      2  C   UNL     1       8.708 -10.254  15.868  0.00  0.00    +0.173 A 
ATOM      9  N   UNL     1       9.280  -9.876  14.667  0.00  0.00    -0.112 N 
ATOM     10  N   UNL     1       8.942  -8.841  13.897  0.00  0.00    -0.134 NA
ATOM     11  C   UNL     1       9.632  -8.628  12.807  0.00  0.00    +0.141 A 
ATOM     23  C   UNL     1      10.748  -9.505  12.426  0.00  0.00    +0.068 A 
ATOM     24  C   UNL     1      11.096 -10.591  13.214  0.00  0.00    +0.085 A 
ATOM     25  C   UNL     1      10.335 -10.818  14.398  0.00  0.00    +0.177 A 
ATOM     26  N   UNL     1      10.341 -11.733  15.401  0.00  0.00    -0.274 NA
ENDROOT
BRANCH   2   3
ATOM      3  C   UNL     1       7.653  -9.560  16.504  0.00  0.00    +0.051 A 
ATOM      4  C   UNL     1       6.829  -8.498  16.021  0.00  0.00    +0.174 A 
ATOM      5  N   UNL     1       5.987  -8.217  17.071  0.00  0.00    -0.205 N 
ATOM      6  C   UNL     1       4.898  -7.249  17.097  0.00  0.00    +0.244 C 
ATOM      7  N   UNL     1       6.239  -8.996  18.182  0.00  0.00    -0.213 NA
ATOM      8  C   UNL     1       7.251  -9.808  17.842  0.00  0.00    +0.079 A 
ENDBRANCH   2   3
BRANCH  11  12
ATOM     12  S   UNL     1       9.085  -7.166  11.855  0.00  0.00    -0.023 S 
BRANCH  12  13
ATOM     13  C   UNL     1       7.732  -6.357  12.747  0.00  0.00    +0.054 A 
ATOM     14  C   UNL     1       7.855  -5.820  14.089  0.00  0.00    +0.094 A 
ATOM     17  C   UNL     1       6.739  -5.265  14.766  0.00  0.00    +0.003 A 
ATOM     18  C   UNL     1       5.516  -5.217  14.166  0.00  0.00    -0.002 A 
ATOM     19  C   UNL     1       5.331  -5.679  12.859  0.00  0.00    +0.074 A 
ATOM     22  C   UNL     1       6.433  -6.249  12.125  0.00  0.00    +0.020 A 
BRANCH  14  15
ATOM     15  O   UNL     1       9.054  -5.763  14.754  0.00  0.00    -0.331 OA
ATOM     16  C   UNL     1       8.943  -5.488  16.150  0.00  0.00    +0.227 C 
ENDBRANCH  14  15
BRANCH  19  20
ATOM     20  O   UNL     1       3.981  -5.466  12.547  0.00  0.00    -0.330 OA
ATOM     21  C   UNL     1       3.343  -5.842  11.376  0.00  0.00    +0.229 C 
ENDBRANCH  19  20
ENDBRANCH  12  13
ENDBRANCH  11  12
TORSDOF 5
