REMARK  Name = 4fl1_ligand
REMARK  11 active torsions:
REMARK  status: ('A' for Active; 'I' for Inactive)
REMARK    1  A    between atoms: PG_1  and  N3B_8
REMARK    2  A    between atoms: PB_5  and  N3B_8
REMARK    3  A    between atoms: PB_5  and  O3A_12
REMARK    4  A    between atoms: PA_9  and  O3A_12
REMARK    5  A    between atoms: PA_9  and  O5'_13
REMARK    6  A    between atoms: O5'_13  and  C5'_14
REMARK    7  A    between atoms: C5'_14  and  C4'_15
REMARK    8  A    between atoms: C3'_17  and  O3'_18
REMARK    9  A    between atoms: C2'_19  and  O2'_20
REMARK   10  A    between atoms: C1'_21  and  N9_22
REMARK   11  A    between atoms: C6_26  and  N6_27
REMARK                            x       y       z     vdW  Elec       q    Type
REMARK                         _______ _______ _______ _____ _____    ______ ____
ROOT
ATOM      9  C   UNL     1       0.162   2.437  11.453  0.00  0.00    +0.184 C 
ATOM     10  C   UNL     1       0.110   2.987  12.895  0.00  0.00    +0.180 C 
ATOM     11  C   UNL     1       0.170   1.682  13.725  0.00  0.00    +0.206 C 
ATOM     12  C   UNL     1       1.156   0.820  12.881  0.00  0.00    +0.301 C 
ATOM     29  O   UNL     1       1.072   1.314  11.518  0.00  0.00    -0.336 OA
ENDROOT
BRANCH  12  13
ATOM     13  N   UNL     1       2.533   0.873  13.411  0.00  0.00    -0.192 N 
ATOM     14  C   UNL     1       3.002   0.158  14.485  0.00  0.00    +0.161 A 
ATOM     15  N   UNL     1       2.453  -0.766  15.289  0.00  0.00    -0.271 NA
ATOM     16  C   UNL     1       3.141  -1.291  16.274  0.00  0.00    +0.153 A 
ATOM     17  N   UNL     1       4.404  -0.986  16.500  0.00  0.00    -0.270 NA
ATOM     18  C   UNL     1       5.047  -0.075  15.757  0.00  0.00    +0.130 A 
ATOM     22  C   UNL     1       4.347   0.539  14.685  0.00  0.00    +0.105 A 
ATOM     23  N   UNL     1       4.628   1.484  13.745  0.00  0.00    -0.296 NA
ATOM     24  C   UNL     1       3.555   1.697  13.016  0.00  0.00    +0.247 A 
BRANCH  18  19
ATOM     19  N   UNL     1       6.357   0.241  16.086  0.00  0.00    -0.315 N 
ATOM     20  H   UNL     1       6.868   0.951  15.542  0.00  0.00    +0.182 HD
ATOM     21  H   UNL     1       6.819  -0.235  16.874  0.00  0.00    +0.182 HD
ENDBRANCH  18  19
ENDBRANCH  12  13
BRANCH  11  25
ATOM     25  O   UNL     1      -1.126   1.061  13.774  0.00  0.00    -0.384 OA
ATOM     26  H   UNL     1      -1.746   1.657  14.177  0.00  0.00    +0.210 HD
ENDBRANCH  11  25
BRANCH  10  27
ATOM     27  O   UNL     1      -1.088   3.727  13.131  0.00  0.00    -0.386 OA
ATOM     28  H   UNL     1      -1.840   3.162  12.997  0.00  0.00    +0.210 HD
ENDBRANCH  10  27
BRANCH   9   8
ATOM      8  C   UNL     1       0.680   3.468  10.446  0.00  0.00    +0.242 C 
BRANCH   8   7
ATOM      7  O   UNL     1       2.027   3.853  10.763  0.00  0.00    -0.248 OA
BRANCH   7   6
ATOM      6  P   UNL     1       2.454   5.399  10.884  0.00  0.00    +0.295 P 
ATOM     30  O   UNL     1       1.324   6.193  11.591  0.00  0.00    -0.613 OA
ATOM     31  O   UNL     1       3.769   5.572  11.689  0.00  0.00    -0.613 OA
BRANCH   6   5
ATOM      5  O   UNL     1       2.622   5.951   9.377  0.00  0.00    -0.143 OA
BRANCH   5   4
ATOM      4  P   UNL     1       1.787   7.015   8.497  0.00  0.00    +0.254 P 
ATOM     32  O   UNL     1       1.501   8.256   9.381  0.00  0.00    -0.626 OA
ATOM     33  O   UNL     1       2.681   7.438   7.305  0.00  0.00    -0.626 OA
BRANCH   4   2
ATOM      2  N   UNL     1       0.367   6.288   7.932  0.00  0.00    -0.180 NA
ATOM      3  H   UNL     1       0.395   5.551   7.257  0.00  0.00    +0.213 HD
BRANCH   2   1
ATOM      1  P   UNL     1      -1.103   6.857   8.553  0.00  0.00    +0.180 P 
ATOM     34  O   UNL     1      -2.263   5.909   8.081  0.00  0.00    -0.545 OA
ATOM     35  O   UNL     1      -1.384   8.312   8.027  0.00  0.00    -0.545 OA
ATOM     36  O   UNL     1      -1.131   6.856  10.119  0.00  0.00    -0.545 OA
ENDBRANCH   2   1
ENDBRANCH   4   2
ENDBRANCH   5   4
ENDBRANCH   6   5
ENDBRANCH   7   6
ENDBRANCH   8   7
ENDBRANCH   9   8
TORSDOF 11
