REMARK  Name = 6FB
REMARK  0 active torsions:
REMARK  status: ('A' for Active; 'I' for Inactive)
REMARK                            x       y       z     vdW  Elec       q    Type
REMARK                         _______ _______ _______ _____ _____    ______ ____
ROOT
ATOM      1  C   UNL     1      -6.315  29.297  -8.283  0.00  0.00    +0.004 A 
ATOM      2  C   UNL     1      -6.256  30.653  -7.998  0.00  0.00    +0.053 A 
ATOM      3  C   UNL     1      -6.123  31.248  -6.733  0.00  0.00    +0.249 C 
ATOM      4  N   UNL     1      -6.125  32.545  -6.502  0.00  0.00    -0.088 NA
ATOM      5  C   UNL     1      -6.282  33.336  -7.571  0.00  0.00    +0.478 C 
ATOM      6  N   UNL     1      -6.265  34.653  -7.354  0.00  0.00    +0.147 NA
ATOM      7  N   UNL     1      -6.397  32.923  -8.839  0.00  0.00    -0.035 NA
ATOM      8  C   UNL     1      -6.363  31.573  -9.059  0.00  0.00    +0.148 A 
ATOM      9  C   UNL     1      -6.471  31.098 -10.364  0.00  0.00    +0.035 A 
ATOM     10  C   UNL     1      -6.499  29.736 -10.640  0.00  0.00    +0.006 A 
ATOM     11  C   UNL     1      -6.510  29.235 -11.960  0.00  0.00    +0.021 A 
ATOM     12  C   UNL     1      -6.509  27.889 -12.159  0.00  0.00    +0.099 A 
ATOM     13  N   UNL     1      -6.532  26.986 -11.171  0.00  0.00    -0.242 NA
ATOM     14  C   UNL     1      -6.475  27.450  -9.916  0.00  0.00    +0.099 A 
ATOM     15  C   UNL     1      -6.447  28.820  -9.578  0.00  0.00    +0.019 A 
ENDROOT
TORSDOF 0
