REMARK  Name = 4U41
REMARK  3 active torsions:
REMARK  status: ('A' for Active; 'I' for Inactive)
REMARK    1  A    between atoms: C_1  and  N_13
REMARK    2  A    between atoms: C_3  and  C_4
REMARK    3  A    between atoms: C_9  and  C_10
REMARK                            x       y       z     vdW  Elec       q    Type
REMARK                         _______ _______ _______ _____ _____    ______ ____
ROOT
ATOM     14  N   UNL     1     -17.594  -7.306  29.259  0.00  0.00    -0.315 N 
ATOM     15  C   UNL     1     -18.277  -7.728  30.495  0.00  0.00    +0.116 C 
ATOM     16  C   UNL     1     -19.428  -8.678  30.205  0.00  0.00    +0.052 C 
ATOM     17  C   UNL     1     -20.415  -7.949  29.308  0.00  0.00    +0.012 C 
ATOM     18  C   UNL     1     -19.703  -7.865  27.958  0.00  0.00    +0.020 C 
ATOM     27  C   UNL     1     -18.464  -6.977  28.109  0.00  0.00    +0.106 C 
ENDROOT
BRANCH  14   1
ATOM      1  C   UNL     1     -16.837  -6.185  29.572  0.00  0.00    +0.122 A 
ATOM      2  N   UNL     1     -16.130  -6.189  30.683  0.00  0.00    -0.227 NA
ATOM      3  C   UNL     1     -15.398  -5.130  31.025  0.00  0.00    +0.131 A 
ATOM      4  C   UNL     1     -14.621  -5.118  32.208  0.00  0.00    +0.146 A 
ATOM      5  N   UNL     1     -14.619  -6.206  33.050  0.00  0.00    -0.341 N 
ATOM      6  H   UNL     1     -14.029  -6.191  33.943  0.00  0.00    +0.144 HD
ATOM      7  H   UNL     1     -15.207  -7.068  32.812  0.00  0.00    +0.144 HD
ATOM      8  N   UNL     1     -13.910  -4.033  32.485  0.00  0.00    -0.219 NA
ATOM      9  C   UNL     1     -13.923  -2.971  31.694  0.00  0.00    +0.224 A 
ATOM     10  N   UNL     1     -14.618  -2.931  30.580  0.00  0.00    -0.234 NA
ATOM     11  C   UNL     1     -15.368  -3.977  30.203  0.00  0.00    +0.094 A 
ATOM     12  C   UNL     1     -16.128  -3.965  29.014  0.00  0.00    +0.033 A 
ATOM     13  C   UNL     1     -16.862  -5.075  28.712  0.00  0.00    +0.046 A 
ENDBRANCH  14   1
BRANCH  16  19
ATOM     19  C   UNL     1     -20.056  -9.195  31.475  0.00  0.00    +0.024 C 
ATOM     20  N   UNL     1     -20.499 -10.422  31.601  0.00  0.00    -0.284 N 
ATOM     21  H   UNL     1     -20.483 -11.178  30.844  0.00  0.00    +0.166 HD
ATOM     22  N   UNL     1     -20.998 -10.568  32.905  0.00  0.00    -0.239 NA
ATOM     23  H   UNL     1     -21.396 -11.372  33.274  0.00  0.00    +0.144 HD
ATOM     24  C   UNL     1     -20.816  -9.403  33.559  0.00  0.00    +0.134 C 
ATOM     25  C   UNL     1     -20.234  -8.531  32.706  0.00  0.00    -0.039 C 
ATOM     26  C   UNL     1     -19.867  -7.109  33.060  0.00  0.00    +0.042 C 
ENDBRANCH  16  19
TORSDOF 2
