REMARK  Name = 6HHG
REMARK  8 active torsions:
REMARK  status: ('A' for Active; 'I' for Inactive)
REMARK    1  A    between atoms: CBK_6  and  CBN_7
REMARK    2  A    between atoms: CBO_17  and  CBL_18
REMARK    3  A    between atoms: CBH_23  and  CAZ_24
REMARK    4  A    between atoms: CAZ_24  and  NBT_25
REMARK    5  A    between atoms: CBS_30  and  NBD_31
REMARK    6  A    between atoms: NBB_34  and  CBJ_35
REMARK    7  A    between atoms: CBM_41  and  NBC_42
REMARK    8  A    between atoms: CBF_43  and  CAF_45
REMARK                            x       y       z     vdW  Elec       q    Type
REMARK                         _______ _______ _______ _____ _____    ______ ____
ROOT
ATOM      5  C   UNL     1      15.621 -14.383  -9.894  0.00  0.00    +0.000 A 
ATOM      6  C   UNL     1      15.971 -14.702 -11.202  0.00  0.00    -0.130 A 
ATOM      7  C   UNL     1      15.096 -14.426 -12.250  0.00  0.00    -0.130 A 
ATOM      8  C   UNL     1      13.857 -13.846 -11.992  0.00  0.00    +0.000 A 
ATOM     32  C   UNL     1      13.501 -13.537 -10.686  0.00  0.00    -0.130 A 
ATOM     33  C   UNL     1      14.373 -13.816  -9.642  0.00  0.00    -0.130 A 
ENDROOT
BRANCH   5   4
ATOM      3  C   UNL     1      16.920 -13.753  -7.876  0.00  0.00    +0.000 A 
ATOM      4  C   UNL     1      16.497 -14.679  -8.847  0.00  0.00    +0.100 A 
ATOM     34  N   UNL     1      16.929 -15.951  -8.781  0.00  0.00    -0.480 NA
ATOM     35  C   UNL     1      17.762 -16.378  -7.820  0.00  0.00    +0.380 A 
ATOM     36  C   UNL     1      18.186 -17.701  -7.790  0.00  0.00    -0.100 A 
ATOM     37  C   UNL     1      19.051 -18.132  -6.789  0.00  0.00    +0.000 A 
ATOM     38  N   UNL     1      19.480 -17.299  -5.857  0.00  0.00    -0.400 NA
ATOM     39  C   UNL     1      19.073 -15.958  -5.855  0.00  0.00    +0.600 A 
ATOM     40  O   UNL     1      19.485 -15.201  -4.978  0.00  0.00    -0.550 OA
ATOM     41  C   UNL     1      18.209 -15.501  -6.845  0.00  0.00    +0.000 A 
ATOM     42  C   UNL     1      17.784 -14.181  -6.874  0.00  0.00    -0.130 A 
BRANCH   3   2
ATOM      1  C   UNL     1      16.704 -11.581  -8.956  0.00  0.00    -0.130 A 
ATOM      2  C   UNL     1      16.542 -12.408  -7.845  0.00  0.00    +0.000 A 
ATOM     43  C   UNL     1      16.032 -11.879  -6.668  0.00  0.00    -0.130 A 
ATOM     44  C   UNL     1      15.657 -10.542  -6.605  0.00  0.00    -0.130 A 
ATOM     45  C   UNL     1      15.805  -9.722  -7.718  0.00  0.00    -0.130 A 
ATOM     46  C   UNL     1      16.328 -10.245  -8.896  0.00  0.00    -0.130 A 
ENDBRANCH   3   2
ENDBRANCH   5   4
BRANCH   8   9
ATOM      9  C   UNL     1      12.967 -13.560 -13.023  0.00  0.00    +0.100 C 
BRANCH   9  10
ATOM     10  N   UNL     1      12.845 -14.674 -13.978  0.00  0.00    -0.600 NA
ATOM     11  C   UNL     1      12.156 -14.167 -15.171  0.00  0.00    +0.100 C 
ATOM     12  C   UNL     1      12.013 -15.262 -16.218  0.00  0.00    -0.100 C 
ATOM     13  C   UNL     1      11.209 -16.411 -15.635  0.00  0.00    +0.050 C 
ATOM     30  C   UNL     1      11.901 -16.926 -14.379  0.00  0.00    -0.100 C 
ATOM     31  C   UNL     1      12.053 -15.777 -13.392  0.00  0.00    +0.100 C 
BRANCH  13  14
ATOM     14  N   UNL     1      11.135 -17.465 -16.655  0.00  0.00    -0.400 NA
ATOM     15  C   UNL     1      10.009 -17.723 -17.331  0.00  0.00    +0.650 C 
ATOM     16  N   UNL     1      10.076 -18.697 -18.259  0.00  0.00    -0.350 NA
ATOM     29  O   UNL     1       8.975 -17.101 -17.087  0.00  0.00    -0.550 OA
BRANCH  16  17
ATOM     17  C   UNL     1       8.994 -19.024 -18.974  0.00  0.00    +0.050 A 
ATOM     18  C   UNL     1       8.614 -20.359 -19.046  0.00  0.00    -0.130 A 
ATOM     19  C   UNL     1       7.500 -20.737 -19.789  0.00  0.00    -0.130 A 
ATOM     20  C   UNL     1       6.763 -19.780 -20.476  0.00  0.00    +0.200 A 
ATOM     21  C   UNL     1       7.146 -18.447 -20.407  0.00  0.00    +0.050 A 
ATOM     27 CL   UNL     1       5.382 -20.251 -21.396  0.00  0.00    -0.200 Cl
ATOM     28  C   UNL     1       8.263 -18.065 -19.675  0.00  0.00    -0.130 A 
BRANCH  21  22
ATOM     22  N   UNL     1       6.406 -17.574 -21.088  0.00  0.00    -0.350 NA
ATOM     23  C   UNL     1       5.728 -16.638 -20.400  0.00  0.00    +0.600 C 
ATOM     26  O   UNL     1       5.726 -16.535 -19.174  0.00  0.00    -0.550 OA
BRANCH  23  24
ATOM     24  C   UNL     1       4.913 -15.676 -21.270  0.00  0.00    -0.100 C 
ATOM     25  C   UNL     1       4.125 -14.604 -20.520  0.00  0.00    -0.100 C 
ENDBRANCH  23  24
ENDBRANCH  21  22
ENDBRANCH  16  17
ENDBRANCH  13  14
ENDBRANCH   9  10
ENDBRANCH   8   9
TORSDOF 8
