REMARK  Name = 5NKI
REMARK  14 active torsions:
REMARK  status: ('A' for Active; 'I' for Inactive)
REMARK    1  A    between atoms: N_6  and  C_7
REMARK    2  A    between atoms: C_10  and  S_11
REMARK    3  A    between atoms: S_11  and  C_14
REMARK    4  A    between atoms: C_16  and  N_17
REMARK    5  A    between atoms: C_22  and  C_23
REMARK    6  A    between atoms: N_25  and  C_26
REMARK    7  A    between atoms: C_32  and  C_33
REMARK    8  A    between atoms: N_39  and  C_40
REMARK    9  A    between atoms: C_43  and  S_44
REMARK   10  A    between atoms: S_44  and  C_47
REMARK   11  A    between atoms: C_49  and  N_50
REMARK   12  A    between atoms: C_55  and  C_56
REMARK   13  A    between atoms: N_58  and  C_59
REMARK   14  A    between atoms: C_65  and  C_66
REMARK                            x       y       z     vdW  Elec       q    Type
REMARK                         _______ _______ _______ _____ _____    ______ ____
ROOT
ATOM      8  N   UNL     1     -99.427 -13.680  43.450  0.00  0.00    -0.294 N 
ATOM      9  H   UNL     1     -99.575 -13.345  42.445  0.00  0.00    +0.154 HD
ATOM     10  C   UNL     1    -100.497 -14.159  44.111  0.00  0.00    +0.163 A 
ATOM     11  N   UNL     1    -101.763 -13.981  43.684  0.00  0.00    -0.232 NA
ATOM     12  C   UNL     1    -102.706 -14.540  44.479  0.00  0.00    +0.133 A 
ATOM     13  C   UNL     1    -102.210 -15.201  45.536  0.00  0.00    +0.095 A 
ATOM     26  S   UNL     1    -100.564 -15.080  45.516  0.00  0.00    -0.048 S 
ENDROOT
BRANCH   8   7
ATOM      3  C   UNL     1     -95.799 -13.315  43.520  0.00  0.00    +0.033 A 
ATOM      4  C   UNL     1     -95.526 -13.363  44.884  0.00  0.00    +0.050 A 
ATOM      5  C   UNL     1     -96.572 -13.519  45.785  0.00  0.00    +0.091 A 
ATOM      6  C   UNL     1     -97.878 -13.618  45.326  0.00  0.00    +0.050 A 
ATOM      7  C   UNL     1     -98.174 -13.591  43.964  0.00  0.00    +0.036 A 
ATOM     31  C   UNL     1     -97.115 -13.423  43.076  0.00  0.00    +0.046 A 
BRANCH   3   2
ATOM      1  C   UNL     1     -93.383 -13.210  43.105  0.00  0.00    +0.133 C 
ATOM      2  N   UNL     1     -94.791 -13.160  42.642  0.00  0.00    -0.325 N 
ATOM     32  C   UNL     1     -95.067 -12.890  41.221  0.00  0.00    +0.133 C 
ATOM     33  C   UNL     1     -94.012 -13.525  40.320  0.00  0.00    +0.178 C 
ATOM     34  O   UNL     1     -92.694 -13.182  40.772  0.00  0.00    -0.377 OA
ATOM     35  C   UNL     1     -92.465 -13.812  42.043  0.00  0.00    +0.178 C 
ENDBRANCH   3   2
BRANCH   5  27
ATOM     27  S   UNL     1     -96.280 -13.588  47.507  0.00  0.00    -0.006 S 
ATOM     28  C   UNL     1     -96.855 -15.153  48.129  0.00  0.00    +0.200 C 
ATOM     29  O   UNL     1     -97.055 -12.460  48.190  0.00  0.00    -0.170 OA
ATOM     30  O   UNL     1     -94.783 -13.450  47.787  0.00  0.00    -0.170 OA
ENDBRANCH   5  27
ENDBRANCH   8   7
BRANCH  13  14
ATOM     14  C   UNL     1    -102.901 -15.842  46.496  0.00  0.00    +0.257 C 
ATOM     15  N   UNL     1    -104.234 -15.983  46.326  0.00  0.00    -0.280 N 
ATOM     16  H   UNL     1    -104.715 -15.636  45.435  0.00  0.00    +0.155 HD
ATOM     25  O   UNL     1    -102.313 -16.241  47.499  0.00  0.00    -0.269 OA
BRANCH  15  17
ATOM     17  C   UNL     1    -104.945 -16.576  47.316  0.00  0.00    +0.055 A 
ATOM     18  C   UNL     1    -105.485 -15.767  48.320  0.00  0.00    -0.028 A 
ATOM     19  C   UNL     1    -105.303 -14.387  48.324  0.00  0.00    +0.045 C 
ATOM     20  C   UNL     1    -106.225 -16.348  49.347  0.00  0.00    +0.005 A 
ATOM     21  C   UNL     1    -106.427 -17.723  49.374  0.00  0.00    +0.002 A 
ATOM     22  C   UNL     1    -105.890 -18.523  48.371  0.00  0.00    +0.022 A 
ATOM     23  C   UNL     1    -105.144 -17.962  47.335  0.00  0.00    +0.062 A 
ATOM     24 CL   UNL     1    -104.513 -19.030  46.117  0.00  0.00    -0.082 Cl
ENDBRANCH  15  17
ENDBRANCH  13  14
TORSDOF 5
