REMARK  Name = 5owh
REMARK  3 active torsions:
REMARK  status: ('A' for Active; 'I' for Inactive)
REMARK    1  A    between atoms: C14_7  and  C15_10
REMARK    2  A    between atoms: C14_7  and  N7_13
REMARK    3  A    between atoms: C16_8  and  C15_10
REMARK                            x       y       z     vdW  Elec       q    Type
REMARK                         _______ _______ _______ _____ _____    ______ ____
ROOT
ATOM      1  C   UNL     1      19.421  -2.341  18.817  0.00  0.00    +0.105 A 
ATOM      2  C   UNL     1      19.101  -2.576  17.457  0.00  0.00    +0.061 A 
ATOM      3 BR   UNL     1      19.935  -1.496  16.079  0.00  0.00    -0.047 Br
ATOM      4  C   UNL     1      18.197  -3.575  17.116  0.00  0.00    +0.049 A 
ATOM      5 BR   UNL     1      17.765  -3.895  15.253  0.00  0.00    -0.048 Br
ATOM      6  C   UNL     1      17.601  -4.346  18.114  0.00  0.00    +0.049 A 
ATOM      7 BR   UNL     1      16.340  -5.740  17.632  0.00  0.00    -0.048 Br
ATOM      8  C   UNL     1      17.912  -4.117  19.452  0.00  0.00    +0.059 A 
ATOM      9 BR   UNL     1      17.068  -5.208  20.815  0.00  0.00    -0.047 Br
ATOM     10  N   UNL     1      20.254  -1.445  19.411  0.00  0.00    -0.235 NA
ATOM     11  C   UNL     1      20.188  -1.642  20.714  0.00  0.00    +0.200 A 
ATOM     12  N   UNL     1      19.345  -2.627  20.981  0.00  0.00    -0.330 N 
ATOM     17  C   UNL     1      18.838  -3.095  19.805  0.00  0.00    +0.085 A 
ENDROOT
BRANCH  12  13
ATOM     13  C   UNL     1      19.040  -3.100  22.318  0.00  0.00    +0.125 C 
BRANCH  13  14
ATOM     14  C   UNL     1      18.877  -1.899  23.251  0.00  0.00    +0.037 C 
BRANCH  14  15
ATOM     15  C   UNL     1      20.164  -1.581  24.010  0.00  0.00    +0.079 C 
ATOM     16  N   UNL     1      19.935  -0.571  25.026  0.00  0.00    -0.094 NA
ENDBRANCH  14  15
ENDBRANCH  13  14
ENDBRANCH  12  13
TORSDOF 3
