REMARK  Name = 5OMH
REMARK  1 active torsions:
REMARK  status: ('A' for Active; 'I' for Inactive)
REMARK    1  A    between atoms: NAM_16  and  CAN_17
REMARK                            x       y       z     vdW  Elec       q    Type
REMARK                         _______ _______ _______ _____ _____    ______ ____
ROOT
ATOM      1  C   UNL     1      -0.395  -4.209 -20.778  0.00  0.00    -0.150 C 
ATOM      2  C   UNL     1      -1.381  -3.046 -20.560  0.00  0.00    +0.050 A 
ATOM      3  C   UNL     1      -2.120  -2.847 -19.487  0.00  0.00    +0.100 A 
ATOM      4  C   UNL     1      -2.814  -1.719 -19.727  0.00  0.00    +0.200 A 
ATOM      5  N   UNL     1      -2.489  -1.354 -20.990  0.00  0.00    -0.200 N 
ATOM     13  C   UNL     1      -3.727  -1.292 -18.827  0.00  0.00    +0.000 A 
ATOM     14  C   UNL     1      -4.867  -0.600 -19.258  0.00  0.00    -0.130 A 
ATOM     15  C   UNL     1      -5.856  -0.204 -18.344  0.00  0.00    -0.130 A 
ATOM     16  C   UNL     1      -5.746  -0.551 -16.996  0.00  0.00    -0.130 A 
ATOM     17  C   UNL     1      -4.649  -1.274 -16.554  0.00  0.00    -0.130 A 
ATOM     18  C   UNL     1      -3.668  -1.649 -17.467  0.00  0.00    +0.060 A 
ATOM     19  S   UNL     1      -2.373  -2.507 -16.979  0.00  0.00    +1.360 S 
ATOM     20  O   UNL     1      -1.203  -1.529 -16.910  0.00  0.00    -0.650 OA
ATOM     21  O   UNL     1      -2.567  -3.232 -15.636  0.00  0.00    -0.650 OA
ATOM     22  N   UNL     1      -2.204  -3.536 -18.270  0.00  0.00    -0.420 NA
ATOM     23  N   UNL     1      -1.638  -2.095 -21.442  0.00  0.00    -0.100 NA
ENDROOT
BRANCH   5   6
ATOM      6  C   UNL     1      -2.801  -0.290 -21.705  0.00  0.00    +0.000 A 
ATOM      7  C   UNL     1      -3.054  -0.348 -23.084  0.00  0.00    -0.130 A 
ATOM      8  C   UNL     1      -3.265   0.836 -23.802  0.00  0.00    -0.130 A 
ATOM      9  C   UNL     1      -3.215   2.067 -23.149  0.00  0.00    -0.130 A 
ATOM     10  C   UNL     1      -2.948   2.106 -21.781  0.00  0.00    +0.200 A 
ATOM     11 CL   UNL     1      -2.891   3.606 -20.987  0.00  0.00    -0.200 Cl
ATOM     12  C   UNL     1      -2.713   0.940 -21.053  0.00  0.00    -0.130 A 
ENDBRANCH   5   6
TORSDOF 1
