REMARK  Name = 4WAG
REMARK  7 active torsions:
REMARK  status: ('A' for Active; 'I' for Inactive)
REMARK    1  A    between atoms: C_2  and  C_9
REMARK    2  A    between atoms: C_5  and  O_7
REMARK    3  A    between atoms: C_6  and  O_8
REMARK    4  A    between atoms: O_7  and  C_22
REMARK    5  A    between atoms: O_8  and  C_21
REMARK    6  A    between atoms: C_10  and  C_18
REMARK    7  A    between atoms: C_14  and  N_20
REMARK                            x       y       z     vdW  Elec       q    Type
REMARK                         _______ _______ _______ _____ _____    ______ ____
ROOT
ATOM     11  C   UNL     1      35.167  23.164 -11.550  0.00  0.00    +0.096 A 
ATOM     12  N   UNL     1      34.225  24.028 -11.926  0.00  0.00    -0.209 N 
ATOM     13  N   UNL     1      34.204  24.855 -13.051  0.00  0.00    -0.153 NA
ATOM     14  C   UNL     1      33.160  25.669 -13.258  0.00  0.00    +0.152 A 
ATOM     15 CL   UNL     1      33.139  26.725 -14.703  0.00  0.00    -0.060 Cl
ATOM     16  C   UNL     1      32.114  25.684 -12.350  0.00  0.00    +0.068 A 
ATOM     17  C   UNL     1      32.157  24.854 -11.241  0.00  0.00    +0.072 A 
ATOM     21  C   UNL     1      33.237  24.017 -11.035  0.00  0.00    +0.176 A 
ATOM     22  N   UNL     1      33.513  23.130 -10.050  0.00  0.00    -0.229 NA
ATOM     23  C   UNL     1      34.702  22.552 -10.297  0.00  0.00    +0.067 A 
ATOM     24  C   UNL     1      35.393  21.513  -9.467  0.00  0.00    +0.068 C 
ENDROOT
BRANCH  11  10
ATOM      1  C   UNL     1      37.617  22.708 -11.836  0.00  0.00    +0.059 A 
ATOM      2  C   UNL     1      38.720  22.527 -12.658  0.00  0.00    +0.162 A 
ATOM      5  C   UNL     1      38.594  22.608 -14.030  0.00  0.00    +0.162 A 
ATOM      8  C   UNL     1      37.370  22.870 -14.594  0.00  0.00    +0.050 A 
ATOM      9  C   UNL     1      36.274  23.039 -13.778  0.00  0.00    +0.014 A 
ATOM     10  C   UNL     1      36.381  22.981 -12.399  0.00  0.00    +0.006 A 
BRANCH   2   3
ATOM      3  O   UNL     1      39.930  22.273 -12.095  0.00  0.00    -0.491 OA
ATOM      4  C   UNL     1      40.976  23.215 -12.251  0.00  0.00    +0.277 C 
ENDBRANCH   2   3
BRANCH   5   6
ATOM      6  O   UNL     1      39.646  22.445 -14.878  0.00  0.00    -0.491 OA
ATOM      7  C   UNL     1      39.791  23.410 -15.915  0.00  0.00    +0.277 C 
ENDBRANCH   5   6
ENDBRANCH  11  10
BRANCH  17  18
ATOM     18  N   UNL     1      31.141  24.862 -10.355  0.00  0.00    -0.355 N 
ATOM     19  H   UNL     1      30.302  25.508 -10.509  0.00  0.00    +0.142 HD
ATOM     20  H   UNL     1      31.174  24.223  -9.498  0.00  0.00    +0.142 HD
ENDBRANCH  17  18
TORSDOF 4
