REMARK  Name = 5BVF
REMARK  7 active torsions:
REMARK  status: ('A' for Active; 'I' for Inactive)
REMARK    1  A    between atoms: C_2  and  C_4
REMARK    2  A    between atoms: C_11  and  C_12
REMARK    3  A    between atoms: C_11  and  C_18
REMARK    4  A    between atoms: C_11  and  N_24
REMARK    5  A    between atoms: C_18  and  O_33
REMARK    6  A    between atoms: C_19  and  N_32
REMARK    7  A    between atoms: C_21  and  O_27
REMARK                            x       y       z     vdW  Elec       q    Type
REMARK                         _______ _______ _______ _____ _____    ______ ____
ROOT
ATOM      1  O   UNL     1      10.137  -2.892  14.320  0.00  0.00    -0.268 OA
ATOM      2  C   UNL     1      10.824  -3.544  15.095  0.00  0.00    +0.264 C 
ATOM      3  C   UNL     1      12.230  -3.133  15.220  0.00  0.00    +0.105 A 
ATOM      4  N   UNL     1      12.855  -3.066  16.375  0.00  0.00    -0.342 N 
ATOM      5  C   UNL     1      12.254  -3.320  17.698  0.00  0.00    +0.123 C 
ATOM      6  C   UNL     1      11.829  -4.791  17.900  0.00  0.00    +0.041 C 
ATOM      7  C   UNL     1      11.384  -5.423  16.560  0.00  0.00    +0.110 C 
ATOM      8  C   UNL     1      14.103  -2.735  16.235  0.00  0.00    +0.096 A 
ATOM      9  C   UNL     1      14.322  -2.517  14.930  0.00  0.00    +0.019 A 
ATOM     25  C   UNL     1      13.070  -2.787  14.225  0.00  0.00    +0.042 A 
ATOM     26  N   UNL     1      10.393  -4.640  15.799  0.00  0.00    -0.287 N 
ENDROOT
BRANCH   9  10
ATOM     10  C   UNL     1      15.619  -1.948  14.422  0.00  0.00    +0.077 A 
ATOM     11  N   UNL     1      16.745  -2.264  15.095  0.00  0.00    -0.215 NA
ATOM     12  C   UNL     1      17.943  -1.774  14.726  0.00  0.00    +0.216 A 
ATOM     13  N   UNL     1      19.050  -2.114  15.423  0.00  0.00    -0.311 N 
ATOM     14  H   UNL     1      19.963  -1.582  15.253  0.00  0.00    +0.149 HD
ATOM     22  N   UNL     1      18.022  -0.951  13.679  0.00  0.00    -0.223 NA
ATOM     23  C   UNL     1      16.934  -0.616  12.955  0.00  0.00    +0.116 A 
ATOM     24  C   UNL     1      15.686  -1.121  13.301  0.00  0.00    +0.048 A 
BRANCH  13  15
ATOM     15  C   UNL     1      19.020  -3.202  16.410  0.00  0.00    +0.076 C 
ATOM     16  C   UNL     1      20.419  -3.866  16.520  0.00  0.00    +0.025 C 
ATOM     17  C   UNL     1      20.482  -4.456  17.951  0.00  0.00    +0.033 C 
ATOM     18  C   UNL     1      19.218  -3.911  18.690  0.00  0.00    +0.116 C 
ATOM     21  C   UNL     1      18.823  -2.669  17.851  0.00  0.00    +0.053 C 
BRANCH  18  19
ATOM     19  O   UNL     1      19.502  -3.523  20.052  0.00  0.00    -0.392 OA
ATOM     20  H   UNL     1      20.295  -2.835  20.062  0.00  0.00    +0.210 HD
ENDBRANCH  18  19
ENDBRANCH  13  15
ENDBRANCH   9  10
BRANCH  26  27
ATOM     27  C   UNL     1       8.964  -4.966  15.813  0.00  0.00    +0.132 C 
BRANCH  27  31
ATOM     31  C   UNL     1       8.674  -6.034  14.750  0.00  0.00    -0.024 A 
ATOM     32  C   UNL     1       9.693  -6.628  13.985  0.00  0.00    +0.006 A 
ATOM     33  C   UNL     1       9.401  -7.596  13.013  0.00  0.00    +0.002 A 
ATOM     34  C   UNL     1       8.072  -7.987  12.815  0.00  0.00    +0.020 A 
ATOM     35  C   UNL     1       7.070  -7.401  13.595  0.00  0.00    +0.041 A 
ATOM     36 CL   UNL     1       5.408  -7.869  13.387  0.00  0.00    -0.084 Cl
ATOM     37  C   UNL     1       7.356  -6.436  14.556  0.00  0.00    +0.025 A 
ENDBRANCH  27  31
BRANCH  27  28
ATOM     28  C   UNL     1       8.395  -5.492  17.162  0.00  0.00    +0.183 C 
BRANCH  28  29
ATOM     29  O   UNL     1       8.759  -4.580  18.208  0.00  0.00    -0.393 OA
ATOM     30  H   UNL     1       9.805  -4.513  18.267  0.00  0.00    +0.209 HD
ENDBRANCH  28  29
ENDBRANCH  27  28
ENDBRANCH  26  27
TORSDOF 7
