REMARK  Name = 4j53_ligand
REMARK  8 active torsions:
REMARK  status: ('A' for Active; 'I' for Inactive)
REMARK    1  A    between atoms: C6_2  and  C5_11
REMARK    2  A    between atoms: N8_3  and  C9_4
REMARK    3  A    between atoms: N12_7  and  C13_8
REMARK    4  A    between atoms: C3_13  and  O2_14
REMARK    5  A    between atoms: O2_14  and  C1_15
REMARK    6  A    between atoms: C19_19  and  N20_20
REMARK    7  A    between atoms: N25_25  and  C26_26
REMARK    8  A    between atoms: N33_31  and  C34_36
REMARK                            x       y       z     vdW  Elec       q    Type
REMARK                         _______ _______ _______ _____ _____    ______ ____
ROOT
ATOM      7  N   UNL     1      44.910  11.333  32.653  0.00  0.00    -0.253 N 
ATOM      8  H   UNL     1      44.428  10.804  31.912  0.00  0.00    +0.213 HD
ATOM      9  C   UNL     1      44.114  11.897  33.606  0.00  0.00    +0.179 A 
ATOM     10  N   UNL     1      44.583  12.608  34.652  0.00  0.00    -0.250 NA
ATOM     11  C   UNL     1      43.749  13.180  35.553  0.00  0.00    +0.145 A 
ATOM     12  N   UNL     1      44.267  13.924  36.649  0.00  0.00    -0.285 N 
ATOM     18  C   UNL     1      44.021  13.151  37.875  0.00  0.00    +0.214 C 
ATOM     19  C   UNL     1      42.629  13.316  38.484  0.00  0.00    +0.346 C 
ATOM     20  F   UNL     1      42.306  12.135  38.979  0.00  0.00    -0.200 F 
ATOM     21  F   UNL     1      42.716  14.189  39.474  0.00  0.00    -0.200 F 
ATOM     22  C   UNL     1      41.498  13.786  37.592  0.00  0.00    +0.290 C 
ATOM     23  O   UNL     1      40.576  14.363  38.164  0.00  0.00    -0.334 OA
ATOM     24  N   UNL     1      41.405  13.586  36.265  0.00  0.00    -0.217 N 
ATOM     25  C   UNL     1      40.236  14.119  35.547  0.00  0.00    +0.208 C 
ATOM     26  C   UNL     1      42.369  12.984  35.418  0.00  0.00    +0.130 A 
ATOM     27  C   UNL     1      41.917  12.254  34.324  0.00  0.00    +0.093 A 
ATOM     28  N   UNL     1      42.782  11.728  33.467  0.00  0.00    -0.286 NA
ENDROOT
BRANCH   7   6
ATOM      3  C   UNL     1      49.081  11.298  32.336  0.00  0.00    +0.062 A 
ATOM      4  C   UNL     1      48.470  12.133  33.281  0.00  0.00    +0.132 A 
ATOM      5  C   UNL     1      47.083  12.171  33.391  0.00  0.00    +0.043 A 
ATOM      6  C   UNL     1      46.270  11.388  32.568  0.00  0.00    +0.097 A 
ATOM     29  C   UNL     1      46.874  10.557  31.628  0.00  0.00    +0.116 A 
ATOM     32  F   UNL     1      49.181  12.922  34.112  0.00  0.00    -0.190 F 
ATOM     33  C   UNL     1      48.271  10.516  31.507  0.00  0.00    +0.030 A 
BRANCH   3   2
ATOM      1  O   UNL     1      51.058  11.352  31.074  0.00  0.00    -0.393 OA
ATOM      2  C   UNL     1      50.581  11.208  32.179  0.00  0.00    +0.193 C 
ATOM     34  N   UNL     1      51.345  10.945  33.246  0.00  0.00    -0.285 N 
ATOM     35  H   UNL     1      50.881  10.813  34.122  0.00  0.00    +0.184 HD
BRANCH  34  36
ATOM     36  C   UNL     1      52.808  10.834  33.234  0.00  0.00    +0.107 C 
ATOM     37  C   UNL     1      53.186   9.545  33.956  0.00  0.00    +0.078 C 
ATOM     38  C   UNL     1      54.701   9.471  34.133  0.00  0.00    +0.133 C 
ATOM     39  N   UNL     1      55.196  10.610  34.933  0.00  0.00    +0.233 N 
ATOM     40  H   UNL     1      54.760  10.583  35.841  0.00  0.00    +0.203 HD
ATOM     41  C   UNL     1      56.662  10.509  35.101  0.00  0.00    +0.190 C 
ATOM     42  C   UNL     1      54.858  11.887  34.281  0.00  0.00    +0.133 C 
ATOM     43  C   UNL     1      53.357  12.010  34.040  0.00  0.00    +0.078 C 
ENDBRANCH  34  36
ENDBRANCH   3   2
BRANCH  29  30
ATOM     30  O   UNL     1      46.067   9.788  30.816  0.00  0.00    -0.327 OA
ATOM     31  C   UNL     1      46.323   8.408  30.541  0.00  0.00    +0.227 C 
ENDBRANCH  29  30
ENDBRANCH   7   6
BRANCH  12  13
ATOM     13  C   UNL     1      45.707  14.313  36.521  0.00  0.00    +0.097 C 
ATOM     14  C   UNL     1      46.738  13.249  36.928  0.00  0.00    +0.028 C 
ATOM     15  C   UNL     1      47.623  13.828  38.024  0.00  0.00    +0.002 C 
ATOM     16  C   UNL     1      47.304  15.308  38.136  0.00  0.00    +0.002 C 
ATOM     17  C   UNL     1      46.010  15.546  37.376  0.00  0.00    +0.028 C 
ENDBRANCH  12  13
TORSDOF 5
