REMARK  Name = 4LRM
REMARK  5 active torsions:
REMARK  status: ('A' for Active; 'I' for Inactive)
REMARK    1  A    between atoms: C_7  and  N_8
REMARK    2  A    between atoms: N_8  and  C_9
REMARK    3  A    between atoms: C_18  and  N_19
REMARK    4  A    between atoms: C_20  and  C_22
REMARK    5  A    between atoms: C_22  and  C_23
REMARK                            x       y       z     vdW  Elec       q    Type
REMARK                         _______ _______ _______ _____ _____    ______ ____
ROOT
ATOM      5  C   UNL     1      48.744 360.493  33.101  0.00  0.00    +0.134 A 
ATOM      6  N   UNL     1      48.296 360.849  34.315  0.00  0.00    -0.220 NA
ATOM      7  C   UNL     1      49.020 360.559  35.468  0.00  0.00    +0.224 A 
ATOM      8  N   UNL     1      50.188 359.905  35.392  0.00  0.00    -0.235 NA
ATOM      9  C   UNL     1      50.699 359.511  34.170  0.00  0.00    +0.076 A 
ATOM     10  C   UNL     1      51.959 358.808  34.076  0.00  0.00    +0.030 A 
ATOM     11  C   UNL     1      52.463 358.417  32.836  0.00  0.00    +0.025 A 
ATOM     12  C   UNL     1      51.738 358.709  31.642  0.00  0.00    +0.034 A 
ATOM     19  C   UNL     1      50.505 359.397  31.741  0.00  0.00    +0.036 A 
ATOM     20  C   UNL     1      49.996 359.791  33.008  0.00  0.00    +0.042 A 
ENDROOT
BRANCH  12  13
ATOM     13  N   UNL     1      52.257 358.298  30.324  0.00  0.00    -0.285 N 
ATOM     14  H   UNL     1      52.847 357.424  30.503  0.00  0.00    +0.155 HD
ATOM     15  C   UNL     1      51.402 357.974  29.177  0.00  0.00    +0.217 C 
ATOM     18  O   UNL     1      50.209 358.015  29.250  0.00  0.00    -0.276 OA
BRANCH  15  16
ATOM     16  C   UNL     1      52.009 357.567  27.847  0.00  0.00    +0.093 C 
ATOM     17  C   UNL     1      51.640 356.173  27.311  0.00  0.00    +0.013 C 
ENDBRANCH  15  16
ENDBRANCH  12  13
BRANCH   5   3
ATOM      3  N   UNL     1      47.991 360.796  31.884  0.00  0.00    -0.299 N 
ATOM      4  H   UNL     1      48.717 360.897  31.104  0.00  0.00    +0.154 HD
BRANCH   3   2
ATOM      1  C   UNL     1      47.413 363.121  32.469  0.00  0.00    +0.038 A 
ATOM      2  C   UNL     1      47.114 361.950  31.770  0.00  0.00    +0.033 A 
ATOM     21  C   UNL     1      45.989 361.906  30.964  0.00  0.00    +0.023 A 
ATOM     22  C   UNL     1      45.145 363.024  30.863  0.00  0.00    +0.003 A 
ATOM     23  C   UNL     1      45.449 364.189  31.576  0.00  0.00    +0.015 A 
ATOM     24  C   UNL     1      46.573 364.236  32.368  0.00  0.00    +0.020 A 
ATOM     25 BR   UNL     1      47.033 365.816  33.367  0.00  0.00    -0.050 Br
ENDBRANCH   3   2
ENDBRANCH   5   3
TORSDOF 4
