REMARK  Name = 3U2Z
REMARK  7 active torsions:
REMARK  status: ('A' for Active; 'I' for Inactive)
REMARK    1  A    between atoms: O_1  and  C_2
REMARK    2  A    between atoms: N_4  and  C_5
REMARK    3  A    between atoms: C_8  and  S_9
REMARK    4  A    between atoms: S_9  and  C_10
REMARK    5  A    between atoms: N_17  and  C_18
REMARK    6  A    between atoms: C_18  and  C_19
REMARK    7  A    between atoms: C_24  and  N_25
REMARK                            x       y       z     vdW  Elec       q    Type
REMARK                         _______ _______ _______ _____ _____    ______ ____
ROOT
ATOM      3  C   UNL     1      11.401   4.716  14.022  0.00  0.00    +0.469 A 
ATOM      4  N   UNL     1      12.365   4.481  15.013  0.00  0.00    -0.039 N 
ATOM     15  N   UNL     1      12.386   3.436  15.662  0.00  0.00    -0.001 NA
ATOM     16  C   UNL     1      11.478   2.490  15.478  0.00  0.00    +0.199 A 
ATOM     17  C   UNL     1      10.468   2.627  14.536  0.00  0.00    +0.101 A 
ATOM     18  C   UNL     1       9.410   1.824  14.146  0.00  0.00    +0.100 A 
ATOM     19  S   UNL     1       8.652   0.330  14.404  0.00  0.00    -0.073 S 
ATOM     20  C   UNL     1       7.483   0.586  13.269  0.00  0.00    +0.083 A 
ATOM     24  C   UNL     1       7.650   1.775  12.666  0.00  0.00    +0.103 A 
ATOM     25  C   UNL     1       8.717   2.485  13.124  0.00  0.00    +0.225 A 
ATOM     26  N   UNL     1       9.360   3.645  12.946  0.00  0.00    -0.184 N 
ATOM     27  C   UNL     1       8.922   4.672  11.930  0.00  0.00    +0.440 C 
ATOM     28  C   UNL     1      10.411   3.769  13.767  0.00  0.00    +0.332 A 
ENDROOT
BRANCH  20  21
ATOM     21  S   UNL     1       6.243  -0.577  13.005  0.00  0.00    +0.058 S 
ATOM     22  O   UNL     1       5.061   0.159  12.440  0.00  0.00    -0.252 OA
ATOM     23  C   UNL     1       5.754  -0.948  14.679  0.00  0.00    +0.128 C 
ENDBRANCH  20  21
BRANCH   3   1
ATOM      1  O   UNL     1      11.451   5.765  13.410  0.00  0.00    -0.453 OA
ATOM      2  H   UNL     1      11.568   5.568  12.385  0.00  0.00    +0.298 HD
ENDBRANCH   3   1
BRANCH   4   5
ATOM      5  C   UNL     1      13.433   5.487  15.216  0.00  0.00    +0.427 C 
BRANCH   5   6
ATOM      6  C   UNL     1      14.434   5.105  14.094  0.00  0.00    +0.021 A 
ATOM      7  C   UNL     1      15.176   3.938  14.231  0.00  0.00    +0.010 A 
ATOM      8  C   UNL     1      16.051   3.548  13.252  0.00  0.00    +0.002 A 
ATOM      9  C   UNL     1      16.171   4.325  12.090  0.00  0.00    +0.023 A 
ATOM     10  C   UNL     1      15.417   5.485  11.933  0.00  0.00    +0.025 A 
ATOM     14  C   UNL     1      14.541   5.884  12.935  0.00  0.00    +0.032 A 
BRANCH  10  11
ATOM     11  N   UNL     1      15.543   6.235  10.843  0.00  0.00    -0.358 N 
ATOM     12  H   UNL     1      16.214   5.939  10.064  0.00  0.00    +0.142 HD
ATOM     13  H   UNL     1      14.973   7.135  10.744  0.00  0.00    +0.142 HD
ENDBRANCH  10  11
ENDBRANCH   5   6
ENDBRANCH   4   5
TORSDOF 5
