REMARK  Name = 7CT
REMARK  4 active torsions:
REMARK  status: ('A' for Active; 'I' for Inactive)
REMARK    1  A    between atoms: N_6  and  S_15
REMARK    2  A    between atoms: C1_13  and  S_15
REMARK    3  A    between atoms: N_21  and  S_30
REMARK    4  A    between atoms: C1_28  and  S_30
REMARK                            x       y       z     vdW  Elec       q    Type
REMARK                         _______ _______ _______ _____ _____    ______ ____
ROOT
ATOM      3  C   UNL     1      14.828 -26.393 -19.220  0.00  0.00    +0.124 A 
ATOM      4  C   UNL     1      15.690 -26.885 -18.191  0.00  0.00    +0.022 A 
ATOM      5  C   UNL     1      16.377 -25.924 -17.400  0.00  0.00    +0.020 A 
ATOM      6  C   UNL     1      17.200 -26.411 -16.356  0.00  0.00    +0.099 A 
ATOM      7  N   UNL     1      17.373 -27.700 -16.079  0.00  0.00    -0.242 NA
ATOM      8  C   UNL     1      16.719 -28.592 -16.845  0.00  0.00    +0.099 A 
ATOM      9  C   UNL     1      16.214 -24.543 -17.681  0.00  0.00    +0.002 A 
ATOM     10  C   UNL     1      15.400 -24.131 -18.695  0.00  0.00    +0.001 A 
ATOM     11  C   UNL     1      15.899 -28.256 -17.880  0.00  0.00    +0.022 A 
ATOM     12  C   UNL     1      14.691 -25.050 -19.454  0.00  0.00    +0.020 A 
ENDROOT
BRANCH   3   2
ATOM      1  O   UNL     1      14.566 -28.669 -20.516  0.00  0.00    -0.152 OA
ATOM      2  S   UNL     1      13.838 -27.486 -20.204  0.00  0.00    +0.077 S 
ATOM     15  O   UNL     1      13.275 -26.703 -21.257  0.00  0.00    -0.152 OA
BRANCH   2  13
ATOM     13  N   UNL     1      12.634 -27.948 -19.239  0.00  0.00    -0.076 NA
ATOM     14  C   UNL     1      11.623 -26.970 -18.856  0.00  0.00    +0.136 C 
ENDBRANCH   2  13
ENDBRANCH   3   2
TORSDOF 2
