REMARK  Name = 4ZP5
REMARK  3 active torsions:
REMARK  status: ('A' for Active; 'I' for Inactive)
REMARK    1  A    between atoms: C_1  and  C_14
REMARK    2  A    between atoms: C_8  and  C_9
REMARK    3  A    between atoms: C_15  and  C_17
REMARK                            x       y       z     vdW  Elec       q    Type
REMARK                         _______ _______ _______ _____ _____    ______ ____
ROOT
ATOM      1  C   UNL     1      75.740  52.208  18.496  0.00  0.00    +0.156 A 
ATOM      9  O   UNL     1      75.523  51.354  19.510  0.00  0.00    -0.435 OA
ATOM     10  C   UNL     1      74.522  51.837  20.257  0.00  0.00    +0.228 A 
ATOM     11  N   UNL     1      74.123  52.985  19.740  0.00  0.00    -0.217 NA
ATOM     23  C   UNL     1      74.850  53.238  18.638  0.00  0.00    +0.161 A 
ENDROOT
BRANCH   1   2
ATOM      2  C   UNL     1      76.778  51.983  17.472  0.00  0.00    +0.019 A 
ATOM      3  C   UNL     1      77.379  50.714  17.404  0.00  0.00    +0.013 A 
ATOM      4  C   UNL     1      78.378  50.470  16.482  0.00  0.00    +0.021 A 
ATOM      5  C   UNL     1      78.794  51.490  15.636  0.00  0.00    +0.041 A 
ATOM      6 CL   UNL     1      80.059  51.183  14.491  0.00  0.00    -0.084 Cl
ATOM      7  C   UNL     1      78.214  52.752  15.706  0.00  0.00    +0.021 A 
ATOM      8  C   UNL     1      77.210  53.013  16.627  0.00  0.00    +0.013 A 
ENDBRANCH   1   2
BRANCH  10  12
ATOM     12  C   UNL     1      74.041  51.131  21.458  0.00  0.00    +0.037 A 
ATOM     13  C   UNL     1      73.342  51.788  22.480  0.00  0.00    +0.014 A 
ATOM     14  C   UNL     1      72.943  51.085  23.595  0.00  0.00    +0.014 A 
ATOM     15  C   UNL     1      73.254  49.718  23.717  0.00  0.00    +0.036 A 
ATOM     21  C   UNL     1      73.966  49.065  22.701  0.00  0.00    +0.014 A 
ATOM     22  C   UNL     1      74.355  49.764  21.586  0.00  0.00    +0.014 A 
BRANCH  15  16
ATOM     16  C   UNL     1      72.868  48.961  24.929  0.00  0.00    +0.241 C 
ATOM     17  O   UNL     1      72.651  47.765  24.865  0.00  0.00    -0.270 OA
ATOM     18  N   UNL     1      72.808  49.595  26.117  0.00  0.00    -0.325 N 
ATOM     19  H   UNL     1      72.530  49.055  26.998  0.00  0.00    +0.145 HD
ATOM     20  H   UNL     1      73.038  50.638  26.179  0.00  0.00    +0.145 HD
ENDBRANCH  15  16
ENDBRANCH  10  12
TORSDOF 3
