REMARK  Name = 5AR4
REMARK  5 active torsions:
REMARK  status: ('A' for Active; 'I' for Inactive)
REMARK    1  A    between atoms: C_2  and  S_3
REMARK    2  A    between atoms: S_3  and  C_6
REMARK    3  A    between atoms: C_9  and  C_17
REMARK    4  A    between atoms: C_13  and  C_20
REMARK    5  A    between atoms: C_19  and  C_26
REMARK                            x       y       z     vdW  Elec       q    Type
REMARK                         _______ _______ _______ _____ _____    ______ ____
ROOT
ATOM      7  C   UNL     1      80.020  60.294  16.442  0.00  0.00    +0.139 A 
ATOM      8  N   UNL     1      79.294  61.182  15.778  0.00  0.00    -0.337 N 
ATOM      9  H   UNL     1      79.483  61.541  14.788  0.00  0.00    +0.167 HD
ATOM     10  C   UNL     1      78.238  61.562  16.608  0.00  0.00    +0.074 A 
ATOM     18  C   UNL     1      78.365  60.879  17.813  0.00  0.00    +0.097 A 
ATOM     25  N   UNL     1      79.497  60.088  17.687  0.00  0.00    -0.227 NA
ENDROOT
BRANCH  10  11
ATOM     11  C   UNL     1      77.269  62.561  16.079  0.00  0.00    +0.001 A 
ATOM     12  C   UNL     1      76.931  62.467  14.714  0.00  0.00    +0.013 A 
ATOM     13  C   UNL     1      76.032  63.389  14.158  0.00  0.00    +0.039 A 
ATOM     14  C   UNL     1      75.491  64.380  14.943  0.00  0.00    +0.123 A 
ATOM     15  F   UNL     1      74.629  65.236  14.342  0.00  0.00    -0.205 F 
ATOM     16  C   UNL     1      75.802  64.508  16.285  0.00  0.00    +0.039 A 
ATOM     17  C   UNL     1      76.712  63.587  16.868  0.00  0.00    +0.013 A 
ENDBRANCH  10  11
BRANCH   7   6
ATOM      3  C   UNL     1      83.598  58.537  14.864  0.00  0.00    +0.039 A 
ATOM      4  C   UNL     1      83.483  58.778  16.237  0.00  0.00    +0.018 A 
ATOM      5  C   UNL     1      82.310  59.348  16.756  0.00  0.00    +0.012 A 
ATOM      6  C   UNL     1      81.244  59.672  15.888  0.00  0.00    +0.017 A 
ATOM     26  C   UNL     1      81.367  59.435  14.497  0.00  0.00    +0.012 A 
ATOM     27  C   UNL     1      82.548  58.864  13.993  0.00  0.00    +0.018 A 
BRANCH   3   2
ATOM      1  O   UNL     1      84.891  57.001  12.927  0.00  0.00    -0.252 OA
ATOM      2  S   UNL     1      85.104  57.813  14.172  0.00  0.00    +0.051 S 
ATOM     28  C   UNL     1      85.655  56.703  15.500  0.00  0.00    +0.127 C 
ENDBRANCH   3   2
ENDBRANCH   7   6
BRANCH  18  19
ATOM     19  C   UNL     1      77.538  60.890  19.040  0.00  0.00    +0.005 A 
ATOM     20  C   UNL     1      78.153  60.674  20.286  0.00  0.00    +0.030 A 
ATOM     21  C   UNL     1      77.328  60.686  21.421  0.00  0.00    +0.111 A 
ATOM     22  N   UNL     1      75.999  60.893  21.364  0.00  0.00    -0.263 NA
ATOM     23  C   UNL     1      75.404  61.099  20.172  0.00  0.00    +0.111 A 
ATOM     24  C   UNL     1      76.148  61.102  18.992  0.00  0.00    +0.030 A 
ENDBRANCH  18  19
TORSDOF 4
