REMARK  Name = 5HG8
REMARK  7 active torsions:
REMARK  status: ('A' for Active; 'I' for Inactive)
REMARK    1  A    between atoms: C_5  and  N_21
REMARK    2  A    between atoms: C_6  and  C_7
REMARK    3  A    between atoms: C_6  and  C_22
REMARK    4  A    between atoms: C_9  and  N_26
REMARK    5  A    between atoms: C_12  and  O_16
REMARK    6  A    between atoms: O_16  and  C_17
REMARK    7  A    between atoms: N_24  and  C_25
REMARK                            x       y       z     vdW  Elec       q    Type
REMARK                         _______ _______ _______ _____ _____    ______ ____
ROOT
ATOM      1  C   UNL     1      10.096  -4.018 -33.480  0.00  0.00    +0.083 A 
ATOM      2  C   UNL     1       8.866  -4.720 -33.567  0.00  0.00    +0.036 A 
ATOM      3  C   UNL     1       7.879  -3.776 -33.738  0.00  0.00    +0.114 A 
ATOM      4  N   UNL     1       8.459  -2.530 -33.759  0.00  0.00    -0.235 NA
ATOM      5  C   UNL     1      11.453  -4.331 -33.308  0.00  0.00    +0.234 A 
ATOM     19  N   UNL     1      12.373  -3.314 -33.274  0.00  0.00    -0.178 NA
ATOM     20  C   UNL     1      12.002  -2.008 -33.403  0.00  0.00    +0.225 A 
ATOM     21  N   UNL     1      13.006  -1.007 -33.357  0.00  0.00    -0.281 N 
ATOM     22  H   UNL     1      12.655  -0.002 -33.468  0.00  0.00    +0.155 HD
ATOM     29  N   UNL     1      10.700  -1.613 -33.576  0.00  0.00    -0.194 NA
ATOM     30  C   UNL     1       9.809  -2.652 -33.604  0.00  0.00    +0.168 A 
ENDROOT
BRANCH  21  23
ATOM     23  C   UNL     1      14.362  -1.140 -33.191  0.00  0.00    +0.071 A 
ATOM     24  C   UNL     1      15.304  -0.092 -33.155  0.00  0.00    +0.157 A 
ATOM     25  N   UNL     1      16.557  -0.530 -32.978  0.00  0.00    -0.178 NA
ATOM     26  N   UNL     1      16.415  -1.863 -32.901  0.00  0.00    -0.273 N 
ATOM     27  C   UNL     1      17.568  -2.708 -32.707  0.00  0.00    +0.172 C 
ATOM     28  C   UNL     1      15.130  -2.277 -33.021  0.00  0.00    +0.131 A 
ENDBRANCH  21  23
BRANCH   5   6
ATOM      6  O   UNL     1      11.856  -5.658 -33.171  0.00  0.00    -0.437 OA
BRANCH   6   7
ATOM      7  C   UNL     1      13.159  -5.881 -32.774  0.00  0.00    +0.132 A 
ATOM      8  C   UNL     1      13.409  -6.124 -31.396  0.00  0.00    +0.069 A 
ATOM      9  C   UNL     1      14.731  -6.361 -30.938  0.00  0.00    +0.037 A 
ATOM     16  C   UNL     1      15.806  -6.351 -31.887  0.00  0.00    +0.023 A 
ATOM     17  C   UNL     1      15.547  -6.106 -33.267  0.00  0.00    +0.005 A 
ATOM     18  C   UNL     1      14.225  -5.871 -33.720  0.00  0.00    +0.046 A 
BRANCH   9  10
ATOM     10  N   UNL     1      14.862  -6.605 -29.542  0.00  0.00    -0.285 N 
ATOM     11  H   UNL     1      13.958  -6.883 -29.041  0.00  0.00    +0.155 HD
ATOM     12  C   UNL     1      15.991  -6.536 -28.733  0.00  0.00    +0.217 C 
ATOM     13  O   UNL     1      17.138  -6.238 -29.068  0.00  0.00    -0.276 OA
BRANCH  12  14
ATOM     14  C   UNL     1      15.603  -6.906 -27.303  0.00  0.00    +0.093 C 
ATOM     15  C   UNL     1      16.440  -6.245 -26.226  0.00  0.00    +0.013 C 
ENDBRANCH  12  14
ENDBRANCH   9  10
ENDBRANCH   6   7
ENDBRANCH   5   6
TORSDOF 5
