REMARK  Name = 5EDQ
REMARK  4 active torsions:
REMARK  status: ('A' for Active; 'I' for Inactive)
REMARK    1  A    between atoms: C_3  and  N_14
REMARK    2  A    between atoms: C_4  and  C_5
REMARK    3  A    between atoms: C_8  and  C_9
REMARK    4  A    between atoms: C_9  and  C_27
REMARK                            x       y       z     vdW  Elec       q    Type
REMARK                         _______ _______ _______ _____ _____    ______ ____
ROOT
ATOM      1  C   UNL     1     -51.393  -1.117 -24.824  0.00  0.00    +0.042 A 
ATOM      2  C   UNL     1     -50.194  -2.025 -24.729  0.00  0.00    +0.201 C 
ATOM      3  O   UNL     1     -50.065  -2.391 -23.340  0.00  0.00    -0.363 OA
ATOM      4  C   UNL     1     -50.886  -1.493 -22.563  0.00  0.00    +0.106 C 
ATOM      5  C   UNL     1     -51.703  -2.308 -21.556  0.00  0.00    +0.048 C 
ATOM      6  C   UNL     1     -50.031  -0.451 -21.825  0.00  0.00    +0.048 C 
ATOM      7  C   UNL     1     -51.809  -0.795 -23.534  0.00  0.00    +0.084 A 
ATOM      8  N   UNL     1     -52.864  -0.002 -23.366  0.00  0.00    -0.229 NA
ATOM      9  C   UNL     1     -53.525   0.488 -24.413  0.00  0.00    +0.165 A 
ATOM     10  N   UNL     1     -53.155   0.198 -25.651  0.00  0.00    -0.212 NA
ATOM     17  C   UNL     1     -52.107  -0.588 -25.902  0.00  0.00    +0.134 A 
ENDROOT
BRANCH  17  18
ATOM     18  N   UNL     1     -51.704  -0.879 -27.196  0.00  0.00    -0.282 N 
ATOM     19  H   UNL     1     -50.868  -1.535 -27.324  0.00  0.00    +0.155 HD
ATOM     20  C   UNL     1     -52.317  -0.373 -28.342  0.00  0.00    +0.154 A 
ATOM     21  N   UNL     1     -52.648  -1.101 -29.370  0.00  0.00    -0.157 NA
ATOM     22  N   UNL     1     -53.186  -0.305 -30.376  0.00  0.00    -0.274 N 
ATOM     23  H   UNL     1     -53.550  -0.655 -31.319  0.00  0.00    +0.189 HD
ATOM     24  C   UNL     1     -53.174   0.994 -29.964  0.00  0.00    +0.086 A 
ATOM     25  C   UNL     1     -53.581   2.176 -30.575  0.00  0.00    +0.066 A 
ATOM     26 CL   UNL     1     -54.218   2.057 -32.177  0.00  0.00    -0.081 Cl
ATOM     27  C   UNL     1     -53.412   3.392 -29.935  0.00  0.00    +0.022 A 
ATOM     28  C   UNL     1     -52.910   3.419 -28.629  0.00  0.00    +0.002 A 
ATOM     29  C   UNL     1     -52.499   2.263 -28.005  0.00  0.00    +0.013 A 
ATOM     30  C   UNL     1     -52.625   1.025 -28.666  0.00  0.00    +0.043 A 
ENDBRANCH  17  18
BRANCH   9  11
ATOM     11  C   UNL     1     -54.663   1.415 -24.210  0.00  0.00    +0.056 A 
ATOM     12  C   UNL     1     -54.971   2.074 -23.053  0.00  0.00    +0.145 A 
ATOM     13  N   UNL     1     -56.048   2.835 -23.292  0.00  0.00    -0.182 NA
ATOM     14  N   UNL     1     -56.408   2.665 -24.633  0.00  0.00    -0.284 N 
ATOM     15  H   UNL     1     -57.232   3.144 -25.119  0.00  0.00    +0.188 HD
ATOM     16  C   UNL     1     -55.581   1.831 -25.195  0.00  0.00    +0.116 A 
ENDBRANCH   9  11
TORSDOF 2
