REMARK  Name = 4fvq_ligand
REMARK  11 active torsions:
REMARK  status: ('A' for Active; 'I' for Inactive)
REMARK    1  A    between atoms: PG_1  and  O3B_8
REMARK    2  A    between atoms: PB_5  and  O3B_8
REMARK    3  A    between atoms: PB_5  and  O3A_12
REMARK    4  A    between atoms: PA_9  and  O3A_12
REMARK    5  A    between atoms: PA_9  and  O5'_13
REMARK    6  A    between atoms: O5'_13  and  C5'_14
REMARK    7  A    between atoms: C5'_14  and  C4'_15
REMARK    8  A    between atoms: C3'_17  and  O3'_18
REMARK    9  A    between atoms: C2'_19  and  O2'_20
REMARK   10  A    between atoms: C1'_21  and  N9_22
REMARK   11  A    between atoms: C6_26  and  N6_27
REMARK                            x       y       z     vdW  Elec       q    Type
REMARK                         _______ _______ _______ _____ _____    ______ ____
ROOT
ATOM      8  C   UNL     1      -8.574  10.636  23.180  0.00  0.00    +0.184 C 
ATOM      9  C   UNL     1      -8.942  10.086  21.795  0.00  0.00    +0.180 C 
ATOM     10  C   UNL     1      -9.588  11.204  21.028  0.00  0.00    +0.206 C 
ATOM     11  C   UNL     1      -9.286  12.447  21.851  0.00  0.00    +0.301 C 
ATOM     28  O   UNL     1      -8.523  12.059  23.008  0.00  0.00    -0.336 OA
ENDROOT
BRANCH  11  12
ATOM     12  N   UNL     1      -8.456  13.321  21.008  0.00  0.00    -0.192 N 
ATOM     13  C   UNL     1      -8.911  14.352  20.310  0.00  0.00    +0.161 A 
ATOM     14  N   UNL     1     -10.125  14.950  20.138  0.00  0.00    -0.271 NA
ATOM     15  C   UNL     1     -10.220  16.038  19.348  0.00  0.00    +0.153 A 
ATOM     16  N   UNL     1      -9.146  16.584  18.727  0.00  0.00    -0.270 NA
ATOM     17  C   UNL     1      -7.910  16.074  18.822  0.00  0.00    +0.130 A 
ATOM     21  C   UNL     1      -7.729  14.875  19.652  0.00  0.00    +0.105 A 
ATOM     22  N   UNL     1      -6.676  14.110  19.989  0.00  0.00    -0.296 NA
ATOM     23  C   UNL     1      -7.142  13.158  20.821  0.00  0.00    +0.247 A 
BRANCH  17  18
ATOM     18  N   UNL     1      -6.834  16.602  18.216  0.00  0.00    -0.315 N 
ATOM     19  H   UNL     1      -6.933  17.434  17.634  0.00  0.00    +0.182 HD
ATOM     20  H   UNL     1      -5.918  16.171  18.337  0.00  0.00    +0.182 HD
ENDBRANCH  17  18
ENDBRANCH  11  12
BRANCH  10  24
ATOM     24  O   UNL     1     -10.978  10.991  20.848  0.00  0.00    -0.384 OA
ATOM     25  H   UNL     1     -11.115  10.175  20.362  0.00  0.00    +0.210 HD
ENDBRANCH  10  24
BRANCH   9  26
ATOM     26  O   UNL     1      -9.831   8.967  21.753  0.00  0.00    -0.386 OA
ATOM     27  H   UNL     1     -10.665   9.206  22.165  0.00  0.00    +0.210 HD
ENDBRANCH   9  26
BRANCH   8   7
ATOM      7  C   UNL     1      -7.219  10.122  23.645  0.00  0.00    +0.243 C 
BRANCH   7   6
ATOM      6  O   UNL     1      -6.355  10.143  22.520  0.00  0.00    -0.244 OA
BRANCH   6   5
ATOM      5  P   UNL     1      -5.092   9.202  22.345  0.00  0.00    +0.327 P 
ATOM     29  O   UNL     1      -4.571   9.289  20.929  0.00  0.00    -0.569 OA
ATOM     30  O   UNL     1      -5.394   7.862  23.000  0.00  0.00    -0.569 OA
BRANCH   5   4
ATOM      4  O   UNL     1      -4.047   9.941  23.299  0.00  0.00    -0.117 OA
BRANCH   4   3
ATOM      3  P   UNL     1      -2.466  10.092  23.001  0.00  0.00    +0.355 P 
ATOM     31  O   UNL     1      -1.959  10.963  24.125  0.00  0.00    -0.565 OA
ATOM     32  O   UNL     1      -2.284  10.720  21.641  0.00  0.00    -0.565 OA
BRANCH   3   2
ATOM      2  O   UNL     1      -1.861   8.609  23.177  0.00  0.00    -0.155 OA
BRANCH   2   1
ATOM      1  P   UNL     1      -1.226   7.688  22.003  0.00  0.00    +0.188 P 
ATOM     33  O   UNL     1      -2.137   7.939  20.813  0.00  0.00    -0.609 OA
ATOM     34  O   UNL     1       0.173   8.165  21.786  0.00  0.00    -0.609 OA
ATOM     35  O   UNL     1      -1.388   6.342  22.632  0.00  0.00    -0.609 OA
ENDBRANCH   2   1
ENDBRANCH   3   2
ENDBRANCH   4   3
ENDBRANCH   5   4
ENDBRANCH   6   5
ENDBRANCH   7   6
ENDBRANCH   8   7
TORSDOF 11
