REMARK  Name = 1ke5_ligand
REMARK  5 active torsions:
REMARK  status: ('A' for Active; 'I' for Inactive)
REMARK    1  A    between atoms: C12_11  and  N17_12
REMARK    2  A    between atoms: N17_12  and  C20_13
REMARK    3  A    between atoms: C23_16  and  S30_19
REMARK    4  A    between atoms: S30_19  and  N33_22
REMARK    5  A    between atoms: N33_22  and  C35_23
REMARK                            x       y       z     vdW  Elec       q    Type
REMARK                         _______ _______ _______ _____ _____    ______ ____
ROOT
ATOM     11  N   UNL     1     -10.229  49.451  37.961  0.00  0.00    -0.260 N 
ATOM     12  H   UNL     1     -10.776  50.289  37.719  0.00  0.00    +0.226 HD
ENDROOT
BRANCH  11  10
ATOM      1  N   UNL     1      -9.533  52.773  40.696  0.00  0.00    -0.244 N 
ATOM      2  H   UNL     1      -9.822  53.727  40.782  0.00  0.00    +0.223 HD
ATOM      3  C   UNL     1      -9.969  51.910  39.744  0.00  0.00    +0.201 C 
ATOM      4  C   UNL     1      -9.339  50.569  39.984  0.00  0.00    +0.060 C 
ATOM      5  C   UNL     1      -8.488  50.753  41.126  0.00  0.00    -0.012 A 
ATOM      6  C   UNL     1      -7.573  49.818  41.853  0.00  0.00    -0.029 A 
ATOM      7  C   UNL     1      -6.805  50.338  43.018  0.00  0.00    -0.038 A 
ATOM      8  C   UNL     1      -6.972  51.751  43.438  0.00  0.00    -0.032 A 
ATOM      9  C   UNL     1      -7.864  52.669  42.668  0.00  0.00    -0.001 A 
ATOM     10  C   UNL     1      -9.492  49.472  39.234  0.00  0.00    +0.180 C 
ATOM     25  O   UNL     1     -10.711  52.155  38.783  0.00  0.00    -0.398 OA
ATOM     26  C   UNL     1      -8.635  52.142  41.526  0.00  0.00    +0.062 A 
ENDBRANCH  11  10
BRANCH  11  13
ATOM     13  C   UNL     1     -10.248  48.425  37.084  0.00  0.00    +0.070 A 
ATOM     14  C   UNL     1      -9.160  47.397  36.939  0.00  0.00    +0.020 A 
ATOM     15  C   UNL     1      -9.292  46.332  35.969  0.00  0.00    +0.017 A 
ATOM     16  C   UNL     1     -10.496  46.257  35.134  0.00  0.00    +0.097 A 
ATOM     17  C   UNL     1     -11.572  47.277  35.240  0.00  0.00    +0.017 A 
ATOM     24  C   UNL     1     -11.448  48.362  36.222  0.00  0.00    +0.020 A 
BRANCH  16  18
ATOM     18  S   UNL     1     -10.497  45.102  33.813  0.00  0.00    +0.063 S 
ATOM     19  O   UNL     1      -9.493  45.515  32.890  0.00  0.00    -0.152 OA
ATOM     20  O   UNL     1     -11.837  44.979  33.322  0.00  0.00    -0.152 OA
BRANCH  18  21
ATOM     21  N   UNL     1     -10.144  43.598  34.393  0.00  0.00    -0.252 NA
ATOM     22  H   UNL     1     -10.854  42.907  34.258  0.00  0.00    +0.167 HD
ATOM     23  C   UNL     1      -8.943  43.136  35.074  0.00  0.00    +0.147 C 
ENDBRANCH  18  21
ENDBRANCH  16  18
ENDBRANCH  11  13
TORSDOF 4
