REMARK  Name = 2N0
REMARK  3 active torsions:
REMARK  status: ('A' for Active; 'I' for Inactive)
REMARK    1  A    between atoms: N_9  and  C6_13
REMARK    2  A    between atoms: C2_10  and  C1_11
REMARK    3  A    between atoms: C6_13  and  C7_14
REMARK                            x       y       z     vdW  Elec       q    Type
REMARK                         _______ _______ _______ _____ _____    ______ ____
ROOT
ATOM      1  O   UNL     1      15.331   4.360   0.024  0.00  0.00    -0.291 OA
ATOM      2  C   UNL     1      14.195   4.816  -0.012  0.00  0.00    +0.174 C 
ATOM      3  C   UNL     1      13.738   5.837   0.962  0.00  0.00    +0.047 A 
ATOM      4  C   UNL     1      14.414   6.555   1.934  0.00  0.00    +0.017 A 
ATOM      5  C   UNL     1      13.437   7.330   2.558  0.00  0.00    +0.037 A 
ATOM      8  N   UNL     1      12.244   7.072   1.986  0.00  0.00    -0.330 N 
ATOM     16  C   UNL     1      12.398   6.165   1.023  0.00  0.00    +0.040 A 
ATOM     17  C   UNL     1      11.314   5.593   0.152  0.00  0.00    +0.044 C 
ATOM     18  C   UNL     1      11.974   5.217  -1.168  0.00  0.00    +0.014 C 
ATOM     19  C   UNL     1      13.168   4.278  -0.988  0.00  0.00    +0.070 C 
ENDROOT
BRANCH   5   6
ATOM      6  C   UNL     1      13.638   8.318   3.691  0.00  0.00    +0.044 C 
ATOM      7  C   UNL     1      15.087   8.421   4.112  0.00  0.00    +0.007 C 
ENDBRANCH   5   6
BRANCH   8   9
ATOM      9  C   UNL     1      10.954   7.655   2.373  0.00  0.00    +0.132 C 
BRANCH   9  10
ATOM     10  C   UNL     1      10.193   6.634   3.211  0.00  0.00    +0.000 A 
ATOM     11  C   UNL     1      10.751   6.150   4.393  0.00  0.00    -0.002 A 
ATOM     12  C   UNL     1      10.071   5.214   5.172  0.00  0.00    -0.000 A 
ATOM     13  C   UNL     1       8.825   4.755   4.767  0.00  0.00    -0.000 A 
ATOM     14  C   UNL     1       8.265   5.234   3.588  0.00  0.00    -0.000 A 
ATOM     15  C   UNL     1       8.941   6.171   2.809  0.00  0.00    -0.002 A 
ENDBRANCH   9  10
ENDBRANCH   8   9
TORSDOF 3
