REMARK  Name = 56M
REMARK  7 active torsions:
REMARK  status: ('A' for Active; 'I' for Inactive)
REMARK    1  A    between atoms: C11_1  and  N10_21
REMARK    2  A    between atoms: C13_3  and  S18_28
REMARK    3  A    between atoms: C4_7  and  C27_11
REMARK    4  A    between atoms: C7_9  and  C8_12
REMARK    5  A    between atoms: C22_18  and  N21_22
REMARK    6  A    between atoms: C24_19  and  N21_22
REMARK    7  A    between atoms: N21_22  and  S18_28
REMARK                            x       y       z     vdW  Elec       q    Type
REMARK                         _______ _______ _______ _____ _____    ______ ____
ROOT
ATOM      1  C   UNL     1       2.680  56.480  23.005  0.00  0.00    +0.114 A 
ATOM      2  C   UNL     1       2.197  56.433  24.309  0.00  0.00    +0.211 A 
ATOM      3  O   UNL     1       2.598  57.392  25.186  0.00  0.00    -0.285 OA
ATOM      4  C   UNL     1       1.315  55.434  24.719  0.00  0.00    +0.045 A 
ATOM      5  C   UNL     1       0.905  54.469  23.804  0.00  0.00    +0.023 A 
ATOM      6  C   UNL     1       1.372  54.488  22.489  0.00  0.00    +0.124 A 
ATOM     28  C   UNL     1       2.272  55.499  22.092  0.00  0.00    +0.040 A 
ENDROOT
BRANCH   6   7
ATOM      7  S   UNL     1       0.841  53.344  21.474  0.00  0.00    +0.063 S 
ATOM      8  O   UNL     1      -0.447  52.887  21.926  0.00  0.00    -0.153 OA
ATOM     14  O   UNL     1       0.715  53.931  20.169  0.00  0.00    -0.153 OA
BRANCH   7   9
ATOM      9  N   UNL     1       1.793  52.142  21.436  0.00  0.00    -0.156 NA
BRANCH   9  10
ATOM     10  C   UNL     1       1.428  50.909  22.134  0.00  0.00    +0.096 C 
ATOM     11  C   UNL     1       2.109  50.843  23.474  0.00  0.00    +0.021 C 
ENDBRANCH   9  10
BRANCH   9  12
ATOM     12  C   UNL     1       3.051  52.211  20.694  0.00  0.00    +0.096 C 
ATOM     13  C   UNL     1       3.113  51.033  19.748  0.00  0.00    +0.021 C 
ENDBRANCH   9  12
ENDBRANCH   7   9
ENDBRANCH   6   7
BRANCH   1  15
ATOM     15  N   UNL     1       3.537  57.498  22.716  0.00  0.00    -0.171 NA
ATOM     16  C   UNL     1       4.206  57.666  21.576  0.00  0.00    +0.286 C 
ATOM     27  O   UNL     1       4.286  56.783  20.735  0.00  0.00    -0.266 OA
BRANCH  16  17
ATOM     17  C   UNL     1       4.918  58.942  21.274  0.00  0.00    +0.132 A 
ATOM     18  C   UNL     1       4.633  60.294  21.857  0.00  0.00    +0.004 A 
ATOM     19  C   UNL     1       3.573  60.686  22.862  0.00  0.00    +0.033 C 
ATOM     20  C   UNL     1       5.576  61.113  21.253  0.00  0.00    +0.046 A 
ATOM     24  C   UNL     1       6.394  60.287  20.341  0.00  0.00    +0.062 A 
ATOM     25  C   UNL     1       7.542  60.716  19.460  0.00  0.00    +0.052 C 
ATOM     26  N   UNL     1       5.940  59.028  20.419  0.00  0.00    -0.245 NA
BRANCH  20  21
ATOM     21  C   UNL     1       5.773  62.590  21.408  0.00  0.00    +0.174 C 
ATOM     22  C   UNL     1       4.658  63.374  22.032  0.00  0.00    +0.077 C 
ATOM     23  O   UNL     1       6.797  63.136  21.002  0.00  0.00    -0.291 OA
ENDBRANCH  20  21
ENDBRANCH  16  17
ENDBRANCH   1  15
TORSDOF 7
