REMARK  Name = 5HCZ
REMARK  13 active torsions:
REMARK  status: ('A' for Active; 'I' for Inactive)
REMARK    1  A    between atoms: C_1  and  C_8
REMARK    2  A    between atoms: C_5  and  N_22
REMARK    3  A    between atoms: C_8  and  C_10
REMARK    4  A    between atoms: C_8  and  N_11
REMARK    5  A    between atoms: C_9  and  C_10
REMARK    6  A    between atoms: C_16  and  C_18
REMARK    7  A    between atoms: C_18  and  C_19
REMARK    8  A    between atoms: C_18  and  C_20
REMARK    9  A    between atoms: C_18  and  O_21
REMARK   10  A    between atoms: N_22  and  C_23
REMARK   11  A    between atoms: C_27  and  C_29
REMARK   12  A    between atoms: N_32  and  S_34
REMARK   13  A    between atoms: S_34  and  C_37
REMARK                            x       y       z     vdW  Elec       q    Type
REMARK                         _______ _______ _______ _____ _____    ______ ____
ROOT
ATOM      3  N   UNL     1     -51.562  -0.571 -20.430  0.00  0.00    -0.259 N 
ATOM      4  N   UNL     1     -51.273  -0.331 -19.078  0.00  0.00    -0.155 NA
ATOM      5  C   UNL     1     -52.137   0.490 -18.534  0.00  0.00    +0.153 A 
ATOM      6  N   UNL     1     -51.979   1.100 -17.281  0.00  0.00    -0.312 N 
ATOM      7  C   UNL     1     -53.102   1.373 -16.376  0.00  0.00    +0.114 C 
ATOM      8  C   UNL     1     -51.943   1.519 -15.358  0.00  0.00    +0.055 C 
ATOM     14  C   UNL     1     -51.427   0.313 -16.171  0.00  0.00    +0.114 C 
ATOM     15  C   UNL     1     -53.036   0.921 -19.614  0.00  0.00    +0.060 A 
ATOM     16  C   UNL     1     -54.125   1.805 -19.698  0.00  0.00    +0.126 A 
ATOM     17  N   UNL     1     -54.775   1.960 -20.838  0.00  0.00    -0.239 NA
ATOM     18  C   UNL     1     -54.436   1.318 -21.965  0.00  0.00    +0.126 A 
ATOM     38  C   UNL     1     -53.369   0.417 -21.964  0.00  0.00    +0.071 A 
ATOM     39  C   UNL     1     -52.640   0.202 -20.783  0.00  0.00    +0.076 A 
ENDROOT
BRANCH   8   9
ATOM      9  C   UNL     1     -52.254   1.288 -13.870  0.00  0.00    +0.066 C 
ATOM     12  C   UNL     1     -52.798   2.590 -13.264  0.00  0.00    +0.041 C 
ATOM     13  C   UNL     1     -50.959   0.939 -13.123  0.00  0.00    +0.041 C 
BRANCH   9  10
ATOM     10  O   UNL     1     -53.207   0.217 -13.710  0.00  0.00    -0.389 OA
ATOM     11  H   UNL     1     -54.098   0.463 -14.209  0.00  0.00    +0.210 HD
ENDBRANCH   9  10
ENDBRANCH   8   9
BRANCH   3   2
ATOM      1  C   UNL     1     -49.306  -1.147 -21.212  0.00  0.00    +0.032 C 
ATOM      2  C   UNL     1     -50.795  -1.471 -21.313  0.00  0.00    +0.105 C 
BRANCH   2  40
ATOM     40  C   UNL     1     -50.985  -2.932 -20.906  0.00  0.00    +0.023 C 
ATOM     41  C   UNL     1     -52.246  -3.480 -21.563  0.00  0.00    +0.006 C 
ENDBRANCH   2  40
ENDBRANCH   3   2
BRANCH  18  19
ATOM     19  N   UNL     1     -55.173   1.633 -23.122  0.00  0.00    -0.284 N 
ATOM     20  H   UNL     1     -55.669   2.581 -23.115  0.00  0.00    +0.155 HD
BRANCH  19  21
ATOM     21  C   UNL     1     -55.340   0.872 -24.271  0.00  0.00    +0.128 A 
ATOM     22  N   UNL     1     -54.392   0.039 -24.724  0.00  0.00    -0.212 NA
ATOM     23  C   UNL     1     -54.584  -0.699 -25.821  0.00  0.00    +0.165 A 
ATOM     35  N   UNL     1     -55.728  -0.613 -26.507  0.00  0.00    -0.235 NA
ATOM     36  C   UNL     1     -56.699   0.223 -26.133  0.00  0.00    +0.116 A 
ATOM     37  C   UNL     1     -56.545   0.990 -24.986  0.00  0.00    +0.063 A 
BRANCH  23  24
ATOM     24  C   UNL     1     -53.531  -1.656 -26.255  0.00  0.00    +0.059 A 
ATOM     25  C   UNL     1     -52.554  -2.179 -25.457  0.00  0.00    +0.147 A 
ATOM     26  N   UNL     1     -51.824  -3.041 -26.191  0.00  0.00    -0.140 N 
ATOM     33  N   UNL     1     -52.382  -3.070 -27.480  0.00  0.00    -0.158 NA
ATOM     34  C   UNL     1     -53.401  -2.259 -27.522  0.00  0.00    +0.147 A 
BRANCH  26  27
ATOM     27  S   UNL     1     -50.519  -3.943 -25.645  0.00  0.00    +0.072 S 
ATOM     31  O   UNL     1     -49.871  -4.353 -26.847  0.00  0.00    -0.151 OA
ATOM     32  O   UNL     1     -49.854  -3.107 -24.701  0.00  0.00    -0.151 OA
BRANCH  27  28
ATOM     28  C   UNL     1     -51.271  -5.373 -24.790  0.00  0.00    +0.155 C 
ATOM     29  C   UNL     1     -50.481  -6.022 -23.648  0.00  0.00    +0.030 C 
ATOM     30  C   UNL     1     -50.637  -6.756 -24.976  0.00  0.00    +0.030 C 
ENDBRANCH  27  28
ENDBRANCH  26  27
ENDBRANCH  23  24
ENDBRANCH  19  21
ENDBRANCH  18  19
TORSDOF 9
