REMARK  Name = 3io7_ligand
REMARK  7 active torsions:
REMARK  status: ('A' for Active; 'I' for Inactive)
REMARK    1  A    between atoms: N3_1  and  C4_2
REMARK    2  A    between atoms: N3_1  and  C2_14
REMARK    3  A    between atoms: C4_2  and  C5_3
REMARK    4  A    between atoms: C6_4  and  C8_5
REMARK    5  A    between atoms: C15_7  and  N13_18
REMARK    6  A    between atoms: C17_8  and  C21_9
REMARK    7  A    between atoms: C1_13  and  C2_14
REMARK                            x       y       z     vdW  Elec       q    Type
REMARK                         _______ _______ _______ _____ _____    ______ ____
ROOT
ATOM     11  C   UNL     1      16.801  11.877   5.532  0.00  0.00    +0.114 A 
ATOM     12  N   UNL     1      17.571  10.815   5.759  0.00  0.00    -0.268 NA
ATOM     13  C   UNL     1      17.317   9.633   5.238  0.00  0.00    +0.160 A 
ATOM     14  N   UNL     1      16.270   9.441   4.473  0.00  0.00    -0.300 NA
ATOM     15  C   UNL     1      15.402  10.425   4.201  0.00  0.00    +0.022 A 
ATOM     28  C   UNL     1      15.666  11.709   4.722  0.00  0.00    +0.049 A 
ENDROOT
BRANCH  15  16
ATOM     16  C   UNL     1      14.264  10.105   3.303  0.00  0.00    +0.057 A 
ATOM     17  C   UNL     1      14.051   8.837   2.743  0.00  0.00    +0.096 A 
ATOM     18  N   UNL     1      14.843   7.718   2.980  0.00  0.00    -0.332 N 
ATOM     19  H   UNL     1      15.656   7.786   3.608  0.00  0.00    +0.172 HD
ATOM     20  H   UNL     1      14.616   6.821   2.527  0.00  0.00    +0.172 HD
ATOM     21  N   UNL     1      12.999   8.882   1.952  0.00  0.00    -0.196 NA
ATOM     22  N   UNL     1      12.467  10.168   1.957  0.00  0.00    -0.137 N 
ATOM     23  C   UNL     1      11.387  10.703   1.305  0.00  0.00    +0.251 A 
ATOM     24  C   UNL     1      11.104  12.023   1.471  0.00  0.00    +0.071 A 
ATOM     25  C   UNL     1      11.919  12.782   2.329  0.00  0.00    +0.117 A 
ATOM     26  N   UNL     1      12.951  12.236   2.958  0.00  0.00    -0.261 NA
ATOM     27  C   UNL     1      13.251  10.940   2.788  0.00  0.00    +0.181 A 
ENDBRANCH  15  16
BRANCH  11   8
ATOM      6  C   UNL     1      16.828  15.200   4.770  0.00  0.00    +0.125 C 
ATOM      7  C   UNL     1      16.274  14.233   5.821  0.00  0.00    +0.161 C 
ATOM      8  N   UNL     1      17.154  13.094   6.132  0.00  0.00    -0.288 N 
ATOM      9  C   UNL     1      18.609  13.383   6.150  0.00  0.00    +0.137 C 
ATOM     10  C   UNL     1      18.912  14.888   6.215  0.00  0.00    +0.027 C 
ATOM     29  C   UNL     1      18.280  15.633   5.034  0.00  0.00    +0.029 C 
BRANCH   6   4
ATOM      1  N   UNL     1      14.866  16.610   4.065  0.00  0.00    -0.274 N 
ATOM      4  C   UNL     1      15.924  16.391   4.891  0.00  0.00    +0.184 C 
ATOM      5  O   UNL     1      16.165  17.165   5.789  0.00  0.00    -0.397 OA
BRANCH   1   2
ATOM      2  C   UNL     1      13.979  17.786   4.259  0.00  0.00    +0.135 C 
ATOM      3  C   UNL     1      14.661  19.119   3.921  0.00  0.00    +0.030 C 
ENDBRANCH   1   2
BRANCH   1  30
ATOM     30  C   UNL     1      14.551  15.664   2.980  0.00  0.00    +0.135 C 
ATOM     31  C   UNL     1      15.405  15.921   1.736  0.00  0.00    +0.030 C 
ENDBRANCH   1  30
ENDBRANCH   6   4
ENDBRANCH  11   8
TORSDOF 5
