REMARK  Name = 3nus_ligand
REMARK  1 active torsions:
REMARK  status: ('A' for Active; 'I' for Inactive)
REMARK    1  A    between atoms: C2_7  and  N1_10
REMARK                            x       y       z     vdW  Elec       q    Type
REMARK                         _______ _______ _______ _____ _____    ______ ____
ROOT
ATOM      1  C   UNL     1     -41.647  16.755  12.744  0.00  0.00    +0.002 A 
ATOM      2  C   UNL     1     -40.394  16.247  13.012  0.00  0.00    +0.025 A 
ATOM      3  C   UNL     1     -40.196  14.909  12.717  0.00  0.00    +0.076 A 
ATOM      4  C   UNL     1     -39.100  14.016  12.829  0.00  0.00    +0.239 A 
ATOM      8  N   UNL     1     -39.430  12.799  12.395  0.00  0.00    -0.255 N 
ATOM      9  H   UNL     1     -38.841  11.967  12.360  0.00  0.00    +0.254 HD
ATOM     10  N   UNL     1     -40.710  12.916  12.015  0.00  0.00    -0.440 NA
ATOM     11  C   UNL     1     -41.227  14.164  12.184  0.00  0.00    -0.052 A 
ATOM     12  C   UNL     1     -42.482  14.648  11.904  0.00  0.00    -0.005 A 
ATOM     13  C   UNL     1     -42.654  15.982  12.207  0.00  0.00    -0.001 A 
ENDROOT
BRANCH   4   5
ATOM      5  N   UNL     1     -37.898  14.401  13.314  0.00  0.00    -0.261 N 
ATOM      6  H   UNL     1     -37.135  13.728  13.378  0.00  0.00    +0.210 HD
ATOM      7  H   UNL     1     -37.755  15.365  13.616  0.00  0.00    +0.210 HD
ENDBRANCH   4   5
TORSDOF 1
