REMARK  Name = 9S3
REMARK  5 active torsions:
REMARK  status: ('A' for Active; 'I' for Inactive)
REMARK    1  A    between atoms: C4_9  and  N1_10
REMARK    2  A    between atoms: N1_10  and  C5_11
REMARK    3  A    between atoms: C13_20  and  C19_22
REMARK    4  A    between atoms: C22_25  and  C23_28
REMARK    5  A    between atoms: C23_28  and  N3_29
REMARK                            x       y       z     vdW  Elec       q    Type
REMARK                         _______ _______ _______ _____ _____    ______ ____
ROOT
ATOM      1  O   UNL     1      21.499   8.469  -8.019  0.00  0.00    -0.275 OA
ATOM      2  C   UNL     1      20.386   8.908  -8.269  0.00  0.00    +0.230 C 
ATOM      3  C   UNL     1      19.306   8.961  -7.221  0.00  0.00    +0.095 C 
ATOM      4  N   UNL     1      20.099   9.358  -9.528  0.00  0.00    -0.261 N 
ATOM      5  C   UNL     1      18.812   9.785  -9.986  0.00  0.00    +0.051 A 
ATOM      6  C   UNL     1      17.628   9.101  -9.685  0.00  0.00    +0.015 A 
ATOM      7  C   UNL     1      16.430   9.597 -10.189  0.00  0.00    +0.001 A 
ATOM      8  C   UNL     1      16.420  10.757 -10.983  0.00  0.00    -0.000 A 
ATOM      9  C   UNL     1      17.634  11.410 -11.264  0.00  0.00    -0.001 A 
ATOM     23  C   UNL     1      18.832  10.919 -10.735  0.00  0.00    +0.011 A 
ATOM     24  C   UNL     1      20.126  11.611 -11.065  0.00  0.00    +0.117 C 
ATOM     25  C   UNL     1      21.181  10.570 -11.420  0.00  0.00    +0.046 C 
ATOM     33  C   UNL     1      21.215   9.330 -10.520  0.00  0.00    +0.082 C 
ATOM     34  C   UNL     1      21.231   8.014 -11.287  0.00  0.00    +0.022 C 
ENDROOT
BRANCH   8  10
ATOM     10  C   UNL     1      15.143  11.275 -11.557  0.00  0.00    -0.000 A 
ATOM     11  C   UNL     1      13.908  11.060 -10.936  0.00  0.00    -0.000 A 
ATOM     12  C   UNL     1      12.733  11.539 -11.512  0.00  0.00    -0.003 A 
ATOM     13  C   UNL     1      12.788  12.218 -12.728  0.00  0.00    -0.006 A 
ATOM     21  C   UNL     1      14.006  12.426 -13.363  0.00  0.00    -0.003 A 
ATOM     22  C   UNL     1      15.174  11.950 -12.785  0.00  0.00    -0.000 A 
BRANCH  13  14
ATOM     14  C   UNL     1      11.533  12.761 -13.354  0.00  0.00    +0.099 C 
BRANCH  14  15
ATOM     15  N   UNL     1      11.216  14.101 -12.865  0.00  0.00    -0.269 NA
ATOM     16  C   UNL     1       9.816  14.371 -12.944  0.00  0.00    +0.072 C 
ATOM     17  C   UNL     1       9.450  15.671 -12.238  0.00  0.00    +0.017 C 
ATOM     18  C   UNL     1      10.304  16.824 -12.750  0.00  0.00    +0.003 C 
ATOM     19  C   UNL     1      11.774  16.423 -12.810  0.00  0.00    +0.017 C 
ATOM     20  C   UNL     1      11.947  15.126 -13.598  0.00  0.00    +0.072 C 
ENDBRANCH  14  15
ENDBRANCH  13  14
ENDBRANCH   8  10
BRANCH  24  26
ATOM     26  N   UNL     1      19.927  12.574 -12.140  0.00  0.00    -0.235 NA
BRANCH  26  27
ATOM     27  C   UNL     1      19.641  13.890 -11.909  0.00  0.00    +0.066 A 
ATOM     28  C   UNL     1      19.347  14.392 -10.632  0.00  0.00    +0.016 A 
ATOM     29  C   UNL     1      19.090  15.749 -10.444  0.00  0.00    +0.001 A 
ATOM     30  C   UNL     1      19.119  16.615 -11.535  0.00  0.00    +0.000 A 
ATOM     31  C   UNL     1      19.410  16.129 -12.808  0.00  0.00    +0.001 A 
ATOM     32  C   UNL     1      19.672  14.773 -12.993  0.00  0.00    +0.016 A 
ENDBRANCH  26  27
ENDBRANCH  24  26
TORSDOF 5
