REMARK  Name = 5CI7
REMARK  7 active torsions:
REMARK  status: ('A' for Active; 'I' for Inactive)
REMARK    1  A    between atoms: N_1  and  C_2
REMARK    2  A    between atoms: C_3  and  N_22
REMARK    3  A    between atoms: N_10  and  C_11
REMARK    4  A    between atoms: C_11  and  C_12
REMARK    5  A    between atoms: C_12  and  C_13
REMARK    6  A    between atoms: C_13  and  N_14
REMARK    7  A    between atoms: N_14  and  C_15
REMARK                            x       y       z     vdW  Elec       q    Type
REMARK                         _______ _______ _______ _____ _____    ______ ____
ROOT
ATOM      1  N   UNL     1      -4.717 -41.196 -17.805  0.00  0.00    -0.283 N 
ATOM      2  H   UNL     1      -4.834 -41.948 -18.294  0.00  0.00    +0.155 HD
ATOM      3  C   UNL     1      -5.692 -41.018 -16.777  0.00  0.00    +0.221 A 
ATOM      4  N   UNL     1      -5.538 -40.184 -15.727  0.00  0.00    -0.198 NA
ATOM      5  C   UNL     1      -6.512 -40.080 -14.802  0.00  0.00    +0.137 A 
ATOM      6  C   UNL     1      -7.671 -40.850 -14.927  0.00  0.00    +0.071 A 
ATOM      7  C   UNL     1      -7.784 -41.705 -16.008  0.00  0.00    +0.132 A 
ATOM      8  I   UNL     1      -9.258 -40.781 -13.531  0.00  0.00    -0.039 I 
ATOM     17  N   UNL     1      -6.796 -41.742 -16.891  0.00  0.00    -0.222 NA
ENDROOT
BRANCH   1  18
ATOM     18  C   UNL     1      -3.409 -40.584 -17.956  0.00  0.00    +0.035 A 
ATOM     19  C   UNL     1      -2.849 -39.730 -17.047  0.00  0.00    +0.046 A 
ATOM     20  C   UNL     1      -1.564 -39.206 -17.317  0.00  0.00    +0.036 A 
ATOM     30  C   UNL     1      -0.864 -39.532 -18.459  0.00  0.00    +0.023 A 
ATOM     31  C   UNL     1      -1.433 -40.403 -19.367  0.00  0.00    +0.004 A 
ATOM     32  C   UNL     1      -2.681 -40.925 -19.102  0.00  0.00    +0.023 A 
BRANCH  20  21
ATOM     21  N   UNL     1      -0.929 -38.303 -16.393  0.00  0.00    -0.269 N 
ATOM     22  H   UNL     1      -1.382 -37.561 -16.086  0.00  0.00    +0.156 HD
ATOM     23  C   UNL     1       0.440 -38.573 -15.977  0.00  0.00    +0.306 C 
ATOM     24  O   UNL     1       1.031 -39.571 -16.408  0.00  0.00    -0.252 OA
ATOM     25  N   UNL     1       1.086 -37.655 -15.052  0.00  0.00    -0.285 N 
ATOM     26  C   UNL     1       2.420 -37.765 -14.535  0.00  0.00    +0.109 C 
ATOM     27  C   UNL     1       2.405 -37.123 -13.209  0.00  0.00    +0.020 C 
ATOM     28  C   UNL     1       1.276 -36.152 -13.239  0.00  0.00    +0.020 C 
ATOM     29  C   UNL     1       0.491 -36.466 -14.491  0.00  0.00    +0.109 C 
ENDBRANCH  20  21
ENDBRANCH   1  18
BRANCH   5   9
ATOM      9  N   UNL     1      -6.376 -39.200 -13.689  0.00  0.00    -0.328 N 
ATOM     10  H   UNL     1      -7.052 -39.104 -13.110  0.00  0.00    +0.147 HD
BRANCH   9  11
ATOM     11  C   UNL     1      -5.168 -38.446 -13.513  0.00  0.00    +0.104 C 
BRANCH  11  12
ATOM     12  C   UNL     1      -5.078 -37.146 -14.257  0.00  0.00    +0.033 C 
BRANCH  12  13
ATOM     13  C   UNL     1      -3.716 -36.734 -14.738  0.00  0.00    +0.079 C 
BRANCH  13  14
ATOM     14  N   UNL     1      -3.429 -35.339 -14.838  0.00  0.00    -0.330 NA
ATOM     15  H   UNL     1      -4.143 -34.860 -14.540  0.00  0.00    +0.118 HD
ATOM     16  H   UNL     1      -3.257 -35.121 -15.720  0.00  0.00    +0.118 HD
ENDBRANCH  13  14
ENDBRANCH  12  13
ENDBRANCH  11  12
ENDBRANCH   9  11
ENDBRANCH   5   9
TORSDOF 7
