REMARK  Name = 1WVY
REMARK  2 active torsions:
REMARK  status: ('A' for Active; 'I' for Inactive)
REMARK    1  A    between atoms: C_4  and  N_34
REMARK    2  A    between atoms: C_5  and  O_32
REMARK                            x       y       z     vdW  Elec       q    Type
REMARK                         _______ _______ _______ _____ _____    ______ ____
ROOT
ATOM      1  O   UNL     1      26.288  37.514  10.287  0.00  0.00    -0.319 OA
ATOM      2  C   UNL     1      26.086  37.768  11.665  0.00  0.00    +0.192 C 
ATOM      3  N   UNL     1      25.272  39.065  11.786  0.00  0.00    -0.305 N 
ATOM      4  C   UNL     1      24.312  39.475  12.755  0.00  0.00    +0.062 A 
ATOM      5  C   UNL     1      23.794  38.869  13.899  0.00  0.00    +0.017 A 
ATOM      6  C   UNL     1      22.856  39.516  14.682  0.00  0.00    +0.002 A 
ATOM      7  C   UNL     1      22.371  40.845  14.341  0.00  0.00    +0.000 A 
ATOM      8  C   UNL     1      22.881  41.451  13.191  0.00  0.00    +0.002 A 
ATOM      9  C   UNL     1      23.846  40.802  12.380  0.00  0.00    +0.017 A 
ATOM     10  C   UNL     1      24.518  41.195  11.205  0.00  0.00    +0.016 A 
ATOM     11  C   UNL     1      24.493  42.364  10.367  0.00  0.00    +0.003 A 
ATOM     12  C   UNL     1      23.619  43.612  10.552  0.00  0.00    +0.117 C 
ATOM     13  N   UNL     1      24.080  44.370   9.417  0.00  0.00    -0.297 N 
ATOM     14  H   UNL     1      23.684  45.340   9.200  0.00  0.00    +0.150 HD
ATOM     15  C   UNL     1      25.024  43.816   8.642  0.00  0.00    +0.246 C 
ATOM     16  O   UNL     1      25.542  44.284   7.648  0.00  0.00    -0.270 OA
ATOM     17  C   UNL     1      25.272  42.494   9.299  0.00  0.00    +0.052 A 
ATOM     18  C   UNL     1      26.257  41.433   8.867  0.00  0.00    +0.023 A 
ATOM     19  C   UNL     1      27.220  41.267   7.844  0.00  0.00    +0.017 A 
ATOM     20  C   UNL     1      27.694  42.035   6.757  0.00  0.00    +0.002 A 
ATOM     21  C   UNL     1      28.708  41.557   5.918  0.00  0.00    +0.000 A 
ATOM     22  C   UNL     1      29.298  40.265   6.132  0.00  0.00    +0.002 A 
ATOM     23  C   UNL     1      28.869  39.453   7.192  0.00  0.00    +0.017 A 
ATOM     24  C   UNL     1      27.824  39.962   8.053  0.00  0.00    +0.062 A 
ATOM     25  N   UNL     1      27.233  39.380   9.145  0.00  0.00    -0.304 N 
ATOM     26  C   UNL     1      26.259  40.242   9.702  0.00  0.00    +0.078 A 
ATOM     27  C   UNL     1      25.447  40.112  10.808  0.00  0.00    +0.077 A 
ATOM     28  C   UNL     1      25.249  36.576  12.096  0.00  0.00    +0.057 C 
ATOM     29  C   UNL     1      27.403  37.784  12.531  0.00  0.00    +0.174 C 
ATOM     32  C   UNL     1      28.502  37.097  11.656  0.00  0.00    +0.090 C 
ATOM     36  C   UNL     1      28.721  37.754  10.275  0.00  0.00    +0.072 C 
ATOM     37  C   UNL     1      27.376  37.952   9.479  0.00  0.00    +0.208 C 
ENDROOT
BRANCH  32  33
ATOM     33  N   UNL     1      29.879  37.033  12.389  0.00  0.00    -0.295 NA
ATOM     34  H   UNL     1      29.704  36.922  13.439  0.00  0.00    +0.123 HD
ATOM     35  C   UNL     1      30.719  35.896  11.922  0.00  0.00    +0.086 C 
ENDBRANCH  32  33
BRANCH  29  30
ATOM     30  O   UNL     1      27.821  39.129  12.810  0.00  0.00    -0.348 OA
ATOM     31  C   UNL     1      27.769  39.390  14.205  0.00  0.00    +0.174 C 
ENDBRANCH  29  30
TORSDOF 2
