REMARK  Name = 4gj2_ligand
REMARK  4 active torsions:
REMARK  status: ('A' for Active; 'I' for Inactive)
REMARK    1  A    between atoms: C4_4  and  C8_8
REMARK    2  A    between atoms: N10_10  and  C11_11
REMARK    3  A    between atoms: C15_15  and  N17_17
REMARK    4  A    between atoms: C18_18  and  C20_20
REMARK                            x       y       z     vdW  Elec       q    Type
REMARK                         _______ _______ _______ _____ _____    ______ ____
ROOT
ATOM      9  C   UNL     1      -8.746  -9.311 -16.216  0.00  0.00    +0.071 A 
ATOM     10  C   UNL     1      -8.855 -10.045 -17.393  0.00  0.00    +0.049 A 
ATOM     11  C   UNL     1      -9.668 -11.178 -17.447  0.00  0.00    +0.120 A 
ATOM     20  N   UNL     1     -10.417 -11.500 -16.394  0.00  0.00    -0.306 NA
ATOM     21  C   UNL     1     -10.382 -10.804 -15.261  0.00  0.00    +0.050 A 
ATOM     22  C   UNL     1      -9.551  -9.697 -15.127  0.00  0.00    +0.018 A 
ENDROOT
BRANCH   9   7
ATOM      6  C   UNL     1      -7.553  -7.353 -15.277  0.00  0.00    +0.236 C 
ATOM      7  N   UNL     1      -7.938  -8.172 -16.275  0.00  0.00    -0.228 N 
ATOM      8  H   UNL     1      -7.598  -7.932 -17.184  0.00  0.00    +0.229 HD
ATOM     23  O   UNL     1      -7.871  -7.529 -14.113  0.00  0.00    -0.371 OA
BRANCH   6   5
ATOM      1  C   UNL     1      -5.286  -3.854 -16.235  0.00  0.00    +0.008 A 
ATOM      2  C   UNL     1      -6.650  -3.770 -15.988  0.00  0.00    +0.021 A 
ATOM      3  C   UNL     1      -7.387  -4.908 -15.688  0.00  0.00    +0.061 A 
ATOM      4 CL   UNL     1      -9.096  -4.782 -15.394  0.00  0.00    -0.065 Cl
ATOM      5  C   UNL     1      -6.747  -6.160 -15.623  0.00  0.00    +0.084 A 
ATOM     24  C   UNL     1      -5.367  -6.239 -15.886  0.00  0.00    +0.061 A 
ATOM     25 CL   UNL     1      -4.554  -7.765 -15.868  0.00  0.00    -0.065 Cl
ATOM     26  C   UNL     1      -4.647  -5.088 -16.185  0.00  0.00    +0.021 A 
ENDBRANCH   6   5
ENDBRANCH   9   7
BRANCH  11  12
ATOM     12  N   UNL     1      -9.797 -11.914 -18.630  0.00  0.00    -0.222 N 
ATOM     13  H   UNL     1     -10.670 -12.381 -18.772  0.00  0.00    +0.230 HD
ATOM     14  C   UNL     1      -8.864 -12.062 -19.607  0.00  0.00    +0.213 C 
ATOM     19  O   UNL     1      -7.756 -11.556 -19.550  0.00  0.00    -0.383 OA
BRANCH  14  15
ATOM     15  C   UNL     1      -9.272 -12.879 -20.807  0.00  0.00    +0.146 C 
ATOM     16  C   UNL     1      -8.373 -14.026 -21.258  0.00  0.00    +0.192 C 
ATOM     17  F   UNL     1      -7.198 -14.232 -20.536  0.00  0.00    -0.242 F 
ATOM     18  C   UNL     1      -8.471 -12.759 -22.108  0.00  0.00    +0.068 C 
ENDBRANCH  14  15
ENDBRANCH  11  12
TORSDOF 4
