REMARK  Name = 3BHH
REMARK  6 active torsions:
REMARK  status: ('A' for Active; 'I' for Inactive)
REMARK    1  A    between atoms: C_1  and  N_14
REMARK    2  A    between atoms: C_8  and  C_9
REMARK    3  A    between atoms: N_15  and  C_16
REMARK    4  A    between atoms: N_18  and  C_19
REMARK    5  A    between atoms: C_24  and  C_25
REMARK    6  A    between atoms: C_25  and  C_26
REMARK                            x       y       z     vdW  Elec       q    Type
REMARK                         _______ _______ _______ _____ _____    ______ ____
ROOT
ATOM      1  C   UNL     1      20.170  67.726  31.479  0.00  0.00    +0.131 A 
ATOM     13  N   UNL     1      19.978  66.417  31.688  0.00  0.00    -0.199 NA
ATOM     14  C   UNL     1      18.835  65.780  31.402  0.00  0.00    +0.223 A 
ATOM     15  N   UNL     1      18.721  64.446  31.587  0.00  0.00    -0.283 N 
ATOM     16  H   UNL     1      17.907  63.961  31.089  0.00  0.00    +0.155 HD
ATOM     26  N   UNL     1      17.808  66.469  30.913  0.00  0.00    -0.199 NA
ATOM     27  C   UNL     1      17.910  67.799  30.705  0.00  0.00    +0.125 A 
ATOM     28  N   UNL     1      16.878  68.498  30.214  0.00  0.00    -0.332 N 
ATOM     29  H   UNL     1      16.052  67.966  29.791  0.00  0.00    +0.147 HD
ATOM     30  C   UNL     1      16.834  69.986  30.234  0.00  0.00    +0.127 C 
ATOM     31  C   UNL     1      19.101  68.434  30.978  0.00  0.00    +0.087 A 
ENDROOT
BRANCH   1   2
ATOM      2  N   UNL     1      21.354  68.386  31.727  0.00  0.00    -0.283 N 
ATOM      3  H   UNL     1      21.303  69.445  31.872  0.00  0.00    +0.155 HD
ATOM      4  C   UNL     1      22.583  67.806  31.803  0.00  0.00    +0.146 A 
ATOM      5  N   UNL     1      23.752  68.391  31.498  0.00  0.00    -0.158 NA
ATOM      6  N   UNL     1      24.715  67.637  31.732  0.00  0.00    -0.280 N 
ATOM      7  H   UNL     1      25.749  67.841  31.545  0.00  0.00    +0.189 HD
ATOM      8  C   UNL     1      24.201  66.518  32.265  0.00  0.00    +0.041 A 
ATOM     12  C   UNL     1      22.871  66.600  32.342  0.00  0.00    +0.068 A 
BRANCH   8   9
ATOM      9  C   UNL     1      25.026  65.316  32.679  0.00  0.00    +0.037 C 
ATOM     10  C   UNL     1      24.712  64.670  34.022  0.00  0.00    +0.010 C 
ATOM     11  C   UNL     1      24.233  64.020  32.711  0.00  0.00    +0.010 C 
ENDBRANCH   8   9
ENDBRANCH   1   2
BRANCH  15  17
ATOM     17  C   UNL     1      19.534  63.653  32.341  0.00  0.00    +0.034 A 
ATOM     18  C   UNL     1      20.029  62.463  31.798  0.00  0.00    +0.023 A 
ATOM     19  C   UNL     1      20.842  61.635  32.580  0.00  0.00    +0.006 A 
ATOM     20  C   UNL     1      21.142  61.956  33.909  0.00  0.00    -0.034 A 
ATOM     24  C   UNL     1      20.660  63.137  34.465  0.00  0.00    +0.006 A 
ATOM     25  C   UNL     1      19.865  63.969  33.674  0.00  0.00    +0.023 A 
BRANCH  20  21
ATOM     21  C   UNL     1      22.013  61.036  34.738  0.00  0.00    +0.153 C 
BRANCH  21  22
ATOM     22  C   UNL     1      23.409  61.070  34.275  0.00  0.00    +0.067 C 
ATOM     23  N   UNL     1      24.502  61.072  33.964  0.00  0.00    -0.196 NA
ENDBRANCH  21  22
ENDBRANCH  20  21
ENDBRANCH  15  17
TORSDOF 5
