REMARK  Name = 3f66_ligand
REMARK  4 active torsions:
REMARK  status: ('A' for Active; 'I' for Inactive)
REMARK    1  A    between atoms: C4_4  and  C7_7
REMARK    2  A    between atoms: C5_5  and  O13_20
REMARK    3  A    between atoms: C12_10  and  C14_17
REMARK    4  A    between atoms: N23_26  and  C28_27
REMARK                            x       y       z     vdW  Elec       q    Type
REMARK                         _______ _______ _______ _____ _____    ______ ____
ROOT
ATOM      8  C   UNL     1      -1.562 -23.276  29.637  0.00  0.00    +0.017 A 
ATOM      9  C   UNL     1      -2.404 -23.880  30.560  0.00  0.00    +0.048 A 
ATOM     10  C   UNL     1      -2.570 -25.261  30.560  0.00  0.00    +0.051 A 
ATOM     11  C   UNL     1      -1.897 -26.045  29.689  0.00  0.00    +0.105 A 
ATOM     12  C   UNL     1      -1.055 -25.460  28.776  0.00  0.00    +0.102 A 
ATOM     13  N   UNL     1      -0.380 -26.280  27.943  0.00  0.00    -0.255 NA
ATOM     14  C   UNL     1       0.448 -25.709  27.032  0.00  0.00    +0.176 A 
ATOM     15  C   UNL     1       0.615 -24.338  26.913  0.00  0.00    +0.161 A 
ATOM     16  N   UNL     1      -0.050 -23.513  27.781  0.00  0.00    -0.248 NA
ATOM     17  N   UNL     1       1.425 -23.720  25.960  0.00  0.00    -0.268 N 
ATOM     18  C   UNL     1       2.068 -24.468  24.850  0.00  0.00    +0.193 C 
ATOM     19  C   UNL     1       3.404 -23.882  24.420  0.00  0.00    +0.157 C 
ATOM     20  N   UNL     1       3.236 -22.464  24.073  0.00  0.00    +0.236 N 
ATOM     21  H   UNL     1       2.554 -22.382  23.335  0.00  0.00    +0.203 HD
ATOM     22  C   UNL     1       4.528 -21.942  23.609  0.00  0.00    +0.191 C 
ATOM     23  C   UNL     1       2.781 -21.677  25.240  0.00  0.00    +0.157 C 
ATOM     24  C   UNL     1       1.520 -22.246  25.929  0.00  0.00    +0.193 C 
ATOM     29  C   UNL     1      -0.894 -24.072  28.719  0.00  0.00    +0.085 A 
ENDROOT
BRANCH   8   7
ATOM      1  C   UNL     1      -1.273 -19.840  31.032  0.00  0.00    -0.011 A 
ATOM      2  C   UNL     1      -1.318 -19.068  29.883  0.00  0.00    +0.021 A 
ATOM      3  C   UNL     1      -1.434 -19.675  28.633  0.00  0.00    +0.088 A 
ATOM      6  C   UNL     1      -1.514 -21.062  28.516  0.00  0.00    +0.028 A 
ATOM      7  C   UNL     1      -1.474 -21.815  29.676  0.00  0.00    -0.022 A 
ATOM     30  C   UNL     1      -1.335 -21.217  30.919  0.00  0.00    -0.012 A 
BRANCH   3   4
ATOM      4  O   UNL     1      -1.464 -18.911  27.514  0.00  0.00    -0.333 OA
ATOM      5  H   UNL     1      -1.401 -17.994  27.756  0.00  0.00    +0.248 HD
ENDBRANCH   3   4
ENDBRANCH   8   7
BRANCH  10  25
ATOM     25  C   UNL     1      -3.443 -25.877  31.618  0.00  0.00    +0.372 C 
ATOM     26  F   UNL     1      -3.773 -27.145  31.394  0.00  0.00    -0.227 F 
ATOM     27  F   UNL     1      -2.763 -25.779  32.771  0.00  0.00    -0.227 F 
ATOM     28  F   UNL     1      -4.553 -25.188  31.805  0.00  0.00    -0.227 F 
ENDBRANCH  10  25
TORSDOF 3
