REMARK  Name = 5MQL
REMARK  8 active torsions:
REMARK  status: ('A' for Active; 'I' for Inactive)
REMARK    1  A    between atoms: N_3  and  C_4
REMARK    2  A    between atoms: N_7  and  C_8
REMARK    3  A    between atoms: C_8  and  C_9
REMARK    4  A    between atoms: C_14  and  C_15
REMARK    5  A    between atoms: N_17  and  C_18
REMARK    6  A    between atoms: C_22  and  C_23
REMARK    7  A    between atoms: C_24  and  N_25
REMARK    8  A    between atoms: C_30  and  C_31
REMARK                            x       y       z     vdW  Elec       q    Type
REMARK                         _______ _______ _______ _____ _____    ______ ____
ROOT
ATOM     11  C   UNL     1      33.639  83.532  10.011  0.00  0.00    +0.035 A 
ATOM     12  C   UNL     1      32.832  83.819  11.109  0.00  0.00    +0.024 A 
ATOM     13  C   UNL     1      32.368  82.765  11.894  0.00  0.00    +0.007 A 
ATOM     14  C   UNL     1      32.723  81.437  11.645  0.00  0.00    -0.029 A 
ATOM     15  C   UNL     1      33.500  81.143  10.500  0.00  0.00    +0.037 A 
ATOM     29  C   UNL     1      32.198  80.498  12.520  0.00  0.00    +0.045 C 
ATOM     30  C   UNL     1      34.014  82.205   9.756  0.00  0.00    +0.047 A 
ENDROOT
BRANCH  15  16
ATOM     16  N   UNL     1      33.974  79.903  10.238  0.00  0.00    -0.293 N 
ATOM     17  H   UNL     1      35.029  79.749  10.331  0.00  0.00    +0.154 HD
ATOM     18  C   UNL     1      33.225  78.850   9.870  0.00  0.00    +0.163 A 
ATOM     19  S   UNL     1      31.597  78.804   9.404  0.00  0.00    -0.060 S 
ATOM     20  C   UNL     1      31.559  77.109   9.256  0.00  0.00    +0.076 A 
ATOM     21  C   UNL     1      32.791  76.631   9.556  0.00  0.00    +0.082 A 
ATOM     28  N   UNL     1      33.698  77.592   9.890  0.00  0.00    -0.225 NA
BRANCH  21  22
ATOM     22  C   UNL     1      33.107  75.312   9.541  0.00  0.00    +0.019 A 
ATOM     23  C   UNL     1      34.443  74.902   9.443  0.00  0.00    +0.120 A 
ATOM     24  N   UNL     1      34.816  73.539   9.436  0.00  0.00    -0.263 NA
ATOM     25  C   UNL     1      33.820  72.559   9.548  0.00  0.00    +0.111 A 
ATOM     26  C   UNL     1      32.485  72.956   9.649  0.00  0.00    +0.020 A 
ATOM     27  C   UNL     1      32.129  74.310   9.653  0.00  0.00    +0.013 A 
ENDBRANCH  21  22
ENDBRANCH  15  16
BRANCH  11   9
ATOM      8  C   UNL     1      33.725  84.672   7.969  0.00  0.00    +0.248 C 
ATOM      9  N   UNL     1      34.116  84.531   9.259  0.00  0.00    -0.281 N 
ATOM     10  H   UNL     1      34.813  85.225   9.680  0.00  0.00    +0.155 HD
ATOM     31  O   UNL     1      32.919  83.949   7.378  0.00  0.00    -0.270 OA
BRANCH   8   7
ATOM      4  C   UNL     1      35.544  87.873   6.027  0.00  0.00    -0.033 A 
ATOM      5  C   UNL     1      35.705  86.575   5.516  0.00  0.00    +0.006 A 
ATOM      6  C   UNL     1      35.103  85.497   6.169  0.00  0.00    +0.013 A 
ATOM      7  C   UNL     1      34.326  85.738   7.313  0.00  0.00    +0.037 A 
ATOM     32  C   UNL     1      34.146  87.036   7.810  0.00  0.00    +0.013 A 
ATOM     33  C   UNL     1      34.760  88.105   7.164  0.00  0.00    +0.006 A 
BRANCH   4   3
ATOM      3  C   UNL     1      36.157  88.958   5.399  0.00  0.00    +0.119 C 
BRANCH   3   2
ATOM      1  C   UNL     1      37.901  90.268   6.484  0.00  0.00    +0.100 C 
ATOM      2  N   UNL     1      37.599  89.046   5.709  0.00  0.00    -0.296 NA
ATOM     34  C   UNL     1      38.348  89.014   4.436  0.00  0.00    +0.100 C 
ATOM     35  C   UNL     1      39.847  89.017   4.687  0.00  0.00    +0.099 C 
ATOM     36  N   UNL     1      40.242  90.154   5.538  0.00  0.00    -0.303 NA
ATOM     37  C   UNL     1      41.608  89.865   5.984  0.00  0.00    +0.105 C 
ATOM     38  C   UNL     1      39.406  90.376   6.746  0.00  0.00    +0.099 C 
ENDBRANCH   3   2
ENDBRANCH   4   3
ENDBRANCH   8   7
ENDBRANCH  11   9
TORSDOF 6
