REMARK  Name = 5HCY
REMARK  10 active torsions:
REMARK  status: ('A' for Active; 'I' for Inactive)
REMARK    1  A    between atoms: C_1  and  N_14
REMARK    2  A    between atoms: C_3  and  C_31
REMARK    3  A    between atoms: C_7  and  N_14
REMARK    4  A    between atoms: C_9  and  C_11
REMARK    5  A    between atoms: C_10  and  C_11
REMARK    6  A    between atoms: C_11  and  N_12
REMARK    7  A    between atoms: C_18  and  C_20
REMARK    8  A    between atoms: N_23  and  S_25
REMARK    9  A    between atoms: S_25  and  C_28
REMARK   10  A    between atoms: N_33  and  C_34
REMARK                            x       y       z     vdW  Elec       q    Type
REMARK                         _______ _______ _______ _____ _____    ______ ____
ROOT
ATOM     20  C   UNL     1     -54.451   1.503 -22.158  0.00  0.00    +0.126 A 
ATOM     21  N   UNL     1     -54.753   2.195 -21.059  0.00  0.00    -0.239 NA
ATOM     22  C   UNL     1     -54.131   2.003 -19.905  0.00  0.00    +0.123 A 
ATOM     23  C   UNL     1     -53.107   1.058 -19.798  0.00  0.00    +0.030 A 
ATOM     24  C   UNL     1     -52.722   0.323 -20.952  0.00  0.00    +0.055 A 
ATOM     25  N   UNL     1     -51.689  -0.514 -20.578  0.00  0.00    -0.343 N 
ATOM     29  C   UNL     1     -51.420  -0.361 -19.242  0.00  0.00    +0.100 A 
ATOM     30  C   UNL     1     -52.221   0.608 -18.702  0.00  0.00    +0.063 A 
ATOM     41  C   UNL     1     -53.401   0.576 -22.155  0.00  0.00    +0.070 A 
ENDROOT
BRANCH  30  31
ATOM     31  C   UNL     1     -52.256   1.083 -17.304  0.00  0.00    +0.246 C 
ATOM     32  N   UNL     1     -51.607   0.382 -16.346  0.00  0.00    -0.308 N 
ATOM     33  H   UNL     1     -51.053  -0.490 -16.624  0.00  0.00    +0.149 HD
ATOM     40  O   UNL     1     -52.854   2.113 -17.015  0.00  0.00    -0.270 OA
BRANCH  32  34
ATOM     34  C   UNL     1     -51.643   0.784 -14.940  0.00  0.00    +0.078 C 
ATOM     35  C   UNL     1     -50.280   0.512 -14.289  0.00  0.00    +0.050 C 
ATOM     36  C   UNL     1     -50.407   0.681 -12.764  0.00  0.00    +0.161 C 
ATOM     37  O   UNL     1     -51.493  -0.120 -12.250  0.00  0.00    -0.380 OA
ATOM     38  C   UNL     1     -52.793   0.186 -12.775  0.00  0.00    +0.161 C 
ATOM     39  C   UNL     1     -52.749  -0.072 -14.286  0.00  0.00    +0.050 C 
ENDBRANCH  32  34
ENDBRANCH  30  31
BRANCH  25  26
ATOM     26  C   UNL     1     -51.037  -1.450 -21.516  0.00  0.00    +0.081 C 
ATOM     27  C   UNL     1     -49.520  -1.566 -21.338  0.00  0.00    +0.030 C 
ATOM     28  C   UNL     1     -51.714  -2.822 -21.432  0.00  0.00    +0.030 C 
ENDBRANCH  25  26
BRANCH  20  18
ATOM     18  N   UNL     1     -55.199   1.818 -23.304  0.00  0.00    -0.284 N 
ATOM     19  H   UNL     1     -55.667   2.780 -23.310  0.00  0.00    +0.155 HD
BRANCH  18   1
ATOM      1  C   UNL     1     -55.404   1.034 -24.427  0.00  0.00    +0.128 A 
ATOM      2  N   UNL     1     -54.453   0.219 -24.916  0.00  0.00    -0.212 NA
ATOM      3  C   UNL     1     -54.673  -0.516 -26.010  0.00  0.00    +0.165 A 
ATOM     15  N   UNL     1     -55.840  -0.438 -26.654  0.00  0.00    -0.235 NA
ATOM     16  C   UNL     1     -56.815   0.376 -26.247  0.00  0.00    +0.116 A 
ATOM     17  C   UNL     1     -56.630   1.143 -25.101  0.00  0.00    +0.063 A 
BRANCH   3   4
ATOM      4  C   UNL     1     -53.635  -1.467 -26.473  0.00  0.00    +0.059 A 
ATOM      5  C   UNL     1     -52.667  -2.011 -25.683  0.00  0.00    +0.147 A 
ATOM      6  N   UNL     1     -51.929  -2.852 -26.432  0.00  0.00    -0.140 N 
ATOM     13  N   UNL     1     -52.471  -2.849 -27.727  0.00  0.00    -0.158 NA
ATOM     14  C   UNL     1     -53.488  -2.031 -27.758  0.00  0.00    +0.147 A 
BRANCH   6   7
ATOM      7  S   UNL     1     -50.659  -3.789 -25.872  0.00  0.00    +0.072 S 
ATOM     11  O   UNL     1     -50.133  -3.077 -24.750  0.00  0.00    -0.151 OA
ATOM     12  O   UNL     1     -49.876  -4.033 -27.038  0.00  0.00    -0.151 OA
BRANCH   7   8
ATOM      8  C   UNL     1     -51.456  -5.336 -25.326  0.00  0.00    +0.155 C 
ATOM      9  C   UNL     1     -51.334  -5.757 -23.862  0.00  0.00    +0.030 C 
ATOM     10  C   UNL     1     -50.549  -6.507 -24.938  0.00  0.00    +0.030 C 
ENDBRANCH   7   8
ENDBRANCH   6   7
ENDBRANCH   3   4
ENDBRANCH  18   1
ENDBRANCH  20  18
TORSDOF 8
