REMARK  Name = M05
REMARK  4 active torsions:
REMARK  status: ('A' for Active; 'I' for Inactive)
REMARK    1  A    between atoms: C4_3  and  C5_4
REMARK    2  A    between atoms: C4_3  and  C9_7
REMARK    3  A    between atoms: C4_27  and  C5_28
REMARK    4  A    between atoms: C4_27  and  C9_31
REMARK                            x       y       z     vdW  Elec       q    Type
REMARK                         _______ _______ _______ _____ _____    ______ ____
ROOT
ATOM      1  N   UNL     1       7.371   9.747   3.742  0.00  0.00    -0.293 N 
ATOM      2  C   UNL     1       8.259  10.142   4.834  0.00  0.00    +0.094 C 
ATOM      3  C   UNL     1       9.366   9.116   5.015  0.00  0.00    +0.040 C 
ATOM      4  C   UNL     1      10.189   8.917   3.740  0.00  0.00    +0.084 C 
ATOM      5  N   UNL     1      11.091   7.734   3.937  0.00  0.00    -0.134 NA
ATOM     14  C   UNL     1       9.227   8.593   2.583  0.00  0.00    +0.040 C 
ATOM     15  C   UNL     1       5.962   9.880   3.843  0.00  0.00    +0.133 A 
ATOM     16  N   UNL     1       5.440   9.887   5.101  0.00  0.00    -0.209 NA
ATOM     17  C   UNL     1       4.110  10.000   5.214  0.00  0.00    +0.201 A 
ATOM     18  N   UNL     1       3.201  10.089   4.238  0.00  0.00    -0.205 NA
ATOM     19  C   UNL     1       3.738  10.072   3.018  0.00  0.00    +0.163 A 
ATOM     20  N   UNL     1       3.050  10.109   1.829  0.00  0.00    -0.230 NA
ATOM     21  C   UNL     1       3.923  10.094   0.805  0.00  0.00    +0.079 C 
ATOM     22  C   UNL     1       5.198   9.983   1.316  0.00  0.00    +0.079 C 
ATOM     23  C   UNL     1       5.093   9.978   2.733  0.00  0.00    +0.051 A 
ATOM     24  C   UNL     1       8.073   9.577   2.461  0.00  0.00    +0.094 C 
ENDROOT
BRANCH   4   6
ATOM      6  C   UNL     1      11.053  10.162   3.438  0.00  0.00    +0.044 C 
BRANCH   6   7
ATOM      7  C   UNL     1      12.078   9.995   2.344  0.00  0.00    -0.021 A 
ATOM      8  C   UNL     1      13.366   9.548   2.639  0.00  0.00    -0.003 A 
ATOM      9  C   UNL     1      14.309   9.395   1.630  0.00  0.00    +0.011 A 
ATOM     10  C   UNL     1      13.965   9.668   0.307  0.00  0.00    +0.058 A 
ATOM     11  C   UNL     1      12.680  10.111   0.007  0.00  0.00    +0.011 A 
ATOM     12 CL   UNL     1      15.137   9.467  -0.966  0.00  0.00    -0.082 Cl
ATOM     13  C   UNL     1      11.750  10.283   1.017  0.00  0.00    -0.003 A 
ENDBRANCH   6   7
ENDBRANCH   4   6
TORSDOF 2
