REMARK  Name = RNK
REMARK  3 active torsions:
REMARK  status: ('A' for Active; 'I' for Inactive)
REMARK    1  A    between atoms: C17_1  and  N15_12
REMARK    2  A    between atoms: C11_10  and  C12_11
REMARK    3  A    between atoms: C12_11  and  N15_12
REMARK                            x       y       z     vdW  Elec       q    Type
REMARK                         _______ _______ _______ _____ _____    ______ ____
ROOT
ATOM      1  C   UNL     1      25.375  50.845  -0.846  0.00  0.00    +0.102 C 
ATOM      2  C   UNL     1      26.376  50.316   0.036  0.00  0.00    +0.137 C 
ATOM      3  N   UNL     1      26.221  49.288   0.794  0.00  0.00    -0.164 NA
ATOM      4  N   UNL     1      25.015  48.655   0.770  0.00  0.00    -0.214 N 
ATOM      5  C   UNL     1      24.925  47.479   1.625  0.00  0.00    +0.157 C 
ATOM      6  C   UNL     1      23.936  49.029   0.002  0.00  0.00    +0.288 C 
ATOM      7  O   UNL     1      22.882  48.400   0.029  0.00  0.00    -0.265 OA
ATOM      8  C   UNL     1      24.158  50.192  -0.792  0.00  0.00    +0.131 C 
ATOM      9 CL   UNL     1      22.870  50.694  -1.801  0.00  0.00    -0.076 Cl
ENDROOT
BRANCH   1  10
ATOM     10  N   UNL     1      25.628  51.909  -1.630  0.00  0.00    -0.230 NA
BRANCH  10  11
ATOM     11  C   UNL     1      26.944  52.304  -2.079  0.00  0.00    +0.145 C 
BRANCH  11  12
ATOM     12  C   UNL     1      27.678  51.212  -2.841  0.00  0.00    +0.025 A 
ATOM     13  C   UNL     1      28.916  50.684  -2.592  0.00  0.00    -0.018 A 
ATOM     14  C   UNL     1      29.817  51.117  -1.469  0.00  0.00    +0.031 C 
ATOM     15  C   UNL     1      29.274  49.678  -3.538  0.00  0.00    +0.003 A 
ATOM     16  C   UNL     1      28.321  49.461  -4.473  0.00  0.00    +0.035 A 
ATOM     17  S   UNL     1      26.959  50.477  -4.235  0.00  0.00    -0.089 S 
ENDBRANCH  11  12
ENDBRANCH  10  11
ENDBRANCH   1  10
TORSDOF 3
