REMARK  Name = 5GTY
REMARK  8 active torsions:
REMARK  status: ('A' for Active; 'I' for Inactive)
REMARK    1  A    between atoms: C_7  and  C_22
REMARK    2  A    between atoms: C_15  and  C_16
REMARK    3  A    between atoms: C_16  and  C_21
REMARK    4  A    between atoms: C_19  and  C_24
REMARK    5  A    between atoms: C_19  and  O_35
REMARK    6  A    between atoms: C_25  and  C_27
REMARK    7  A    between atoms: C_26  and  O_35
REMARK    8  A    between atoms: C_28  and  N_33
REMARK                            x       y       z     vdW  Elec       q    Type
REMARK                         _______ _______ _______ _____ _____    ______ ____
ROOT
ATOM      1  C   UNL     1     -37.284  18.591 -61.384  0.00  0.00    +0.164 A 
ATOM      2  N   UNL     1     -36.796  18.796 -60.167  0.00  0.00    -0.241 N 
ATOM      3  N   UNL     1     -35.721  18.465 -60.088  0.00  0.00    -0.168 NA
ATOM      4  C   UNL     1     -35.317  17.975 -61.250  0.00  0.00    +0.105 A 
ATOM     31  N   UNL     1     -38.482  18.824 -61.919  0.00  0.00    -0.216 NA
ATOM     32  C   UNL     1     -38.734  18.503 -63.241  0.00  0.00    +0.225 A 
ATOM     33  N   UNL     1     -37.705  17.948 -63.965  0.00  0.00    -0.220 NA
ATOM     34  C   UNL     1     -36.530  17.745 -63.374  0.00  0.00    +0.131 A 
ATOM     35  N   UNL     1     -35.510  17.217 -64.031  0.00  0.00    -0.343 N 
ATOM     36  H   UNL     1     -35.619  16.946 -65.060  0.00  0.00    +0.144 HD
ATOM     37  H   UNL     1     -34.576  17.061 -63.533  0.00  0.00    +0.144 HD
ATOM     38  C   UNL     1     -36.324  18.056 -62.103  0.00  0.00    +0.086 A 
ENDROOT
BRANCH   2  21
ATOM     21  C   UNL     1     -37.579  19.370 -59.092  0.00  0.00    +0.127 C 
ATOM     22  C   UNL     1     -36.801  19.377 -57.811  0.00  0.00    +0.134 C 
ATOM     23  N   UNL     1     -36.828  20.728 -57.251  0.00  0.00    -0.299 N 
ATOM     24  C   UNL     1     -37.414  20.960 -56.081  0.00  0.00    +0.215 C 
ATOM     25  O   UNL     1     -37.498  22.063 -55.550  0.00  0.00    -0.276 OA
ATOM     28  C   UNL     1     -36.250  21.820 -58.031  0.00  0.00    +0.108 C 
ATOM     29  C   UNL     1     -36.748  21.684 -59.441  0.00  0.00    +0.021 C 
ATOM     30  C   UNL     1     -37.974  20.793 -59.427  0.00  0.00    +0.030 C 
BRANCH  24  26
ATOM     26  C   UNL     1     -37.989  19.728 -55.421  0.00  0.00    +0.092 C 
ATOM     27  C   UNL     1     -39.058  19.155 -56.335  0.00  0.00    +0.013 C 
ENDBRANCH  24  26
ENDBRANCH   2  21
BRANCH   4   5
ATOM      5  C   UNL     1     -34.084  17.527 -61.463  0.00  0.00    +0.004 A 
ATOM      6  C   UNL     1     -33.380  17.914 -62.592  0.00  0.00    +0.033 A 
ATOM      7  C   UNL     1     -32.092  17.455 -62.786  0.00  0.00    +0.083 A 
ATOM      8 CL   UNL     1     -31.267  17.875 -64.075  0.00  0.00    -0.080 Cl
ATOM      9  C   UNL     1     -31.495  16.634 -61.864  0.00  0.00    +0.139 A 
ATOM     19  C   UNL     1     -32.176  16.245 -60.725  0.00  0.00    +0.048 A 
ATOM     20  C   UNL     1     -33.474  16.704 -60.529  0.00  0.00    +0.014 A 
BRANCH   9  10
ATOM     10  O   UNL     1     -30.232  16.244 -62.149  0.00  0.00    -0.484 OA
BRANCH  10  11
ATOM     11  C   UNL     1     -29.614  15.684 -61.000  0.00  0.00    +0.284 C 
BRANCH  11  12
ATOM     12  C   UNL     1     -29.734  14.316 -61.084  0.00  0.00    +0.079 A 
ATOM     13  N   UNL     1     -30.229  13.772 -62.197  0.00  0.00    -0.253 NA
ATOM     14  C   UNL     1     -30.374  12.450 -62.331  0.00  0.00    +0.039 A 
ATOM     15  C   UNL     1     -30.006  11.595 -61.307  0.00  0.00    +0.023 A 
ATOM     16  C   UNL     1     -29.485  12.133 -60.142  0.00  0.00    +0.004 A 
ATOM     17  C   UNL     1     -30.895  11.938 -63.503  0.00  0.00    +0.065 C 
ATOM     18  C   UNL     1     -29.349  13.508 -60.031  0.00  0.00    +0.027 A 
ENDBRANCH  11  12
ENDBRANCH  10  11
ENDBRANCH   9  10
ENDBRANCH   4   5
TORSDOF 6
