REMARK  Name = TIZ
REMARK  3 active torsions:
REMARK  status: ('A' for Active; 'I' for Inactive)
REMARK    1  A    between atoms: C4'_5  and  C5'_6
REMARK    2  A    between atoms: C1'_9  and  C1M_10
REMARK    3  A    between atoms: C1L_14  and  C1K_15
REMARK                            x       y       z     vdW  Elec       q    Type
REMARK                         _______ _______ _______ _____ _____    ______ ____
ROOT
ATOM      1  O   UNL     1      17.950  17.820  50.976  0.00  0.00    -0.217 OA
ATOM      2  C   UNL     1      18.619  18.771  51.811  0.00  0.00    +0.218 C 
ATOM      3  C   UNL     1      18.607  18.362  53.286  0.00  0.00    +0.215 C 
ATOM      4  C   UNL     1      17.955  19.563  53.977  0.00  0.00    +0.181 C 
ATOM      7  O   UNL     1      18.289  20.655  53.104  0.00  0.00    -0.344 OA
ATOM      8  O   UNL     1      17.819  17.182  53.469  0.00  0.00    -0.218 OA
ATOM      9  C   UNL     1      17.906  20.125  51.825  0.00  0.00    +0.194 C 
ENDROOT
BRANCH   9  10
ATOM     10  C   UNL     1      18.265  21.026  50.639  0.00  0.00    +0.118 A 
ATOM     11  N   UNL     1      18.903  22.193  50.723  0.00  0.00    -0.235 NA
ATOM     12  C   UNL     1      19.001  22.850  49.562  0.00  0.00    +0.144 A 
ATOM     16  C   UNL     1      18.477  22.269  48.481  0.00  0.00    +0.060 A 
ATOM     17  S   UNL     1      17.809  20.788  49.002  0.00  0.00    -0.068 S 
BRANCH  12  13
ATOM     13  C   UNL     1      19.630  24.245  49.485  0.00  0.00    +0.302 C 
ATOM     14  O   UNL     1      20.141  24.774  50.471  0.00  0.00    -0.265 OA
ATOM     15  N   UNL     1      19.558  24.825  48.290  0.00  0.00    -0.082 NA
ENDBRANCH  12  13
ENDBRANCH   9  10
BRANCH   4   5
ATOM      5  C   UNL     1      18.566  19.766  55.365  0.00  0.00    +0.214 C 
ATOM      6  O   UNL     1      17.903  20.842  56.035  0.00  0.00    -0.218 OA
ENDBRANCH   4   5
TORSDOF 3
