REMARK  Name = 2xne_ligand
REMARK  3 active torsions:
REMARK  status: ('A' for Active; 'I' for Inactive)
REMARK    1  A    between atoms: C21_7  and  N22_23
REMARK    2  A    between atoms: C08_16  and  C09_17
REMARK    3  A    between atoms: N17_20  and  C18_21
REMARK                            x       y       z     vdW  Elec       q    Type
REMARK                         _______ _______ _______ _____ _____    ______ ____
ROOT
ATOM      3  C   UNL     1       5.305 -30.772  -4.995  0.00  0.00    +0.063 A 
ATOM      4  N   UNL     1       4.438 -31.906  -4.991  0.00  0.00    -0.287 NA
ATOM      5  C   UNL     1       3.886 -32.475  -6.078  0.00  0.00    +0.184 A 
ATOM      6  N   UNL     1       2.992 -33.653  -5.873  0.00  0.00    -0.256 N 
ATOM      7  H   UNL     1       2.741 -34.092  -6.759  0.00  0.00    +0.213 HD
ATOM     20  C   UNL     1       4.220 -31.870  -7.393  0.00  0.00    +0.204 A 
ATOM     21  N   UNL     1       5.103 -30.730  -7.357  0.00  0.00    -0.191 N 
ATOM     22  C   UNL     1       5.281 -30.322  -8.679  0.00  0.00    +0.158 A 
ATOM     23  C   UNL     1       4.528 -31.190  -9.473  0.00  0.00    +0.048 A 
ATOM     24 CL   UNL     1       6.210 -29.038  -9.159  0.00  0.00    -0.048 Cl
ATOM     25  N   UNL     1       3.880 -32.136  -8.691  0.00  0.00    -0.322 NA
ATOM     26  C   UNL     1       5.649 -30.180  -6.192  0.00  0.00    +0.204 A 
ENDROOT
BRANCH   3   2
ATOM      1  C   UNL     1       6.088 -30.957  -2.548  0.00  0.00    +0.034 A 
ATOM      2  C   UNL     1       5.901 -30.184  -3.711  0.00  0.00    +0.013 A 
ATOM     27  C   UNL     1       6.292 -28.837  -3.514  0.00  0.00    +0.097 A 
ATOM     28  N   UNL     1       6.803 -28.302  -2.375  0.00  0.00    -0.299 NA
ATOM     29  C   UNL     1       6.963 -29.096  -1.291  0.00  0.00    +0.088 A 
ATOM     30  C   UNL     1       6.608 -30.440  -1.353  0.00  0.00    +0.033 A 
ENDBRANCH   3   2
BRANCH   6   8
ATOM      8  C   UNL     1       2.364 -34.363  -4.709  0.00  0.00    +0.052 A 
ATOM      9  C   UNL     1       1.383 -35.404  -4.834  0.00  0.00    +0.002 A 
ATOM     10  C   UNL     1       0.785 -36.089  -3.753  0.00  0.00    -0.004 A 
ATOM     11  C   UNL     1       1.076 -35.837  -2.384  0.00  0.00    +0.029 A 
ATOM     18  C   UNL     1       2.033 -34.816  -2.259  0.00  0.00    -0.004 A 
ATOM     19  C   UNL     1       2.631 -34.134  -3.345  0.00  0.00    +0.002 A 
BRANCH  11  12
ATOM     12  N   UNL     1       0.475 -36.521  -1.255  0.00  0.00    -0.310 N 
ATOM     13  C   UNL     1      -0.797 -37.282  -1.358  0.00  0.00    +0.155 C 
ATOM     14  C   UNL     1      -1.105 -38.236  -0.152  0.00  0.00    +0.183 C 
ATOM     15  O   UNL     1      -0.112 -38.221   0.828  0.00  0.00    -0.376 OA
ATOM     16  C   UNL     1       0.109 -36.919   1.267  0.00  0.00    +0.183 C 
ATOM     17  C   UNL     1       0.693 -36.018   0.127  0.00  0.00    +0.155 C 
ENDBRANCH  11  12
ENDBRANCH   6   8
TORSDOF 3
