REMARK  Name = 8QC
REMARK  5 active torsions:
REMARK  status: ('A' for Active; 'I' for Inactive)
REMARK    1  A    between atoms: OAU_2  and  CAP_3
REMARK    2  A    between atoms: CAO_9  and  SAL_10
REMARK    3  A    between atoms: SAL_10  and  NAK_13
REMARK    4  A    between atoms: NAK_13  and  CAB_14
REMARK    5  A    between atoms: CAA_23  and  NAJ_24
REMARK                            x       y       z     vdW  Elec       q    Type
REMARK                         _______ _______ _______ _____ _____    ______ ____
ROOT
ATOM      7  N   UNL     1      -5.792  11.468   1.897  0.00  0.00    -0.095 NA
ENDROOT
BRANCH   7   8
ATOM      8  C   UNL     1      -6.900  10.608   1.816  0.00  0.00    +0.106 A 
ATOM      9  C   UNL     1      -7.161   9.558   2.730  0.00  0.00    +0.024 A 
ATOM     10  C   UNL     1      -8.259   8.802   2.593  0.00  0.00    +0.055 A 
ATOM     11  C   UNL     1      -8.783   7.741   3.291  0.00  0.00    +0.101 A 
ATOM     12  C   UNL     1      -8.233   7.063   4.497  0.00  0.00    +0.056 C 
ATOM     13  N   UNL     1      -9.916   7.281   2.778  0.00  0.00    -0.081 NA
ATOM     14  O   UNL     1     -10.177   8.190   1.612  0.00  0.00    -0.354 OA
ATOM     15  C   UNL     1      -9.127   9.065   1.561  0.00  0.00    +0.178 A 
ATOM     16  C   UNL     1      -8.947  10.045   0.688  0.00  0.00    +0.058 A 
ATOM     17  C   UNL     1      -7.825  10.827   0.752  0.00  0.00    +0.085 A 
BRANCH  17  18
ATOM     18  N   UNL     1      -7.598  11.816  -0.142  0.00  0.00    -0.234 NA
ATOM     19  C   UNL     1      -8.123  11.748  -1.543  0.00  0.00    +0.136 C 
ENDBRANCH  17  18
ENDBRANCH   7   8
BRANCH   7   5
ATOM      5  S   UNL     1      -4.217  10.916   1.598  0.00  0.00    +0.096 S 
ATOM      6  O   UNL     1      -3.854   9.792   2.512  0.00  0.00    -0.148 OA
ATOM     20  O   UNL     1      -3.311  12.033   1.814  0.00  0.00    -0.148 OA
BRANCH   5   4
ATOM      3  C   UNL     1      -4.266  11.241  -1.123  0.00  0.00    +0.158 A 
ATOM      4  C   UNL     1      -4.108  10.390  -0.023  0.00  0.00    +0.161 A 
ATOM     21  C   UNL     1      -3.826   9.052  -0.202  0.00  0.00    +0.023 A 
ATOM     22  C   UNL     1      -3.732   8.540  -1.471  0.00  0.00    +0.002 A 
ATOM     23  C   UNL     1      -3.900   9.347  -2.573  0.00  0.00    +0.003 A 
ATOM     24  C   UNL     1      -4.170  10.678  -2.411  0.00  0.00    +0.038 A 
BRANCH   3   2
ATOM      1  C   UNL     1      -4.696  13.402  -2.096  0.00  0.00    +0.253 C 
ATOM      2  O   UNL     1      -4.508  12.568  -0.924  0.00  0.00    -0.470 OA
ENDBRANCH   3   2
ENDBRANCH   5   4
ENDBRANCH   7   5
TORSDOF 5
