REMARK  Name = 3da6_ligand
REMARK  6 active torsions:
REMARK  status: ('A' for Active; 'I' for Inactive)
REMARK    1  A    between atoms: C17_10  and  O33_26
REMARK    2  A    between atoms: C20_11  and  N16_33
REMARK    3  A    between atoms: C21_12  and  C28_16
REMARK    4  A    between atoms: C26_15  and  O33_26
REMARK    5  A    between atoms: C35_17  and  N34_18
REMARK    6  A    between atoms: C18_27  and  C36_28
REMARK                            x       y       z     vdW  Elec       q    Type
REMARK                         _______ _______ _______ _____ _____    ______ ____
ROOT
ATOM     13  C   UNL     1     -18.854  14.598 -31.915  0.00  0.00    +0.066 A 
ATOM     14  C   UNL     1     -18.937  13.790 -33.077  0.00  0.00    +0.003 A 
ATOM     15  C   UNL     1     -18.262  14.074 -34.271  0.00  0.00    +0.001 A 
ATOM     16  C   UNL     1     -18.451  13.275 -35.390  0.00  0.00    -0.011 A 
ATOM     17  C   UNL     1     -19.219  12.141 -35.369  0.00  0.00    -0.010 A 
ATOM     18  C   UNL     1     -19.906  11.858 -34.171  0.00  0.00    -0.002 A 
ATOM     19  C   UNL     1     -19.759  12.661 -33.049  0.00  0.00    +0.008 A 
ATOM     20  C   UNL     1     -20.445  12.334 -31.880  0.00  0.00    +0.120 A 
ATOM     21  C   UNL     1     -20.349  13.124 -30.735  0.00  0.00    -0.024 A 
ATOM     22  C   UNL     1     -21.106  12.755 -29.450  0.00  0.00    +0.072 C 
ATOM     39  C   UNL     1     -19.577  14.283 -30.776  0.00  0.00    -0.002 A 
ENDROOT
BRANCH  13  11
ATOM      1  N   UNL     1     -19.257  17.145 -33.167  0.00  0.00    -0.308 NA
ATOM      2  C   UNL     1     -18.899  18.172 -33.921  0.00  0.00    +0.013 A 
ATOM      3  C   UNL     1     -19.640  19.014 -34.728  0.00  0.00    -0.017 A 
ATOM      4  C   UNL     1     -18.982  20.029 -35.414  0.00  0.00    -0.030 A 
ATOM      5  C   UNL     1     -17.567  20.201 -35.385  0.00  0.00    -0.027 A 
ATOM      6  C   UNL     1     -16.828  19.315 -34.584  0.00  0.00    +0.009 A 
ATOM      7  C   UNL     1     -17.501  18.317 -33.835  0.00  0.00    +0.076 A 
ATOM      8  N   UNL     1     -17.042  17.374 -33.003  0.00  0.00    -0.228 N 
ATOM      9  H   UNL     1     -16.066  17.208 -32.720  0.00  0.00    +0.231 HD
ATOM     10  C   UNL     1     -18.135  16.691 -32.618  0.00  0.00    +0.233 A 
ATOM     11  N   UNL     1     -18.102  15.692 -31.776  0.00  0.00    -0.231 N 
ATOM     12  H   UNL     1     -17.466  15.752 -30.968  0.00  0.00    +0.221 HD
ENDBRANCH  13  11
BRANCH  20  23
ATOM     23  O   UNL     1     -21.125  11.147 -31.835  0.00  0.00    -0.245 OA
BRANCH  23  24
ATOM     24  C   UNL     1     -22.414  10.919 -31.743  0.00  0.00    +0.201 A 
ATOM     25  N   UNL     1     -23.197  11.940 -31.679  0.00  0.00    -0.266 NA
ATOM     26  C   UNL     1     -24.527  11.749 -31.619  0.00  0.00    +0.085 A 
ATOM     27  C   UNL     1     -25.060  10.479 -31.671  0.00  0.00    +0.021 A 
ATOM     28  C   UNL     1     -24.220   9.361 -31.768  0.00  0.00    +0.037 A 
ATOM     29  C   UNL     1     -22.834   9.602 -31.769  0.00  0.00    +0.065 A 
BRANCH  29  30
ATOM     30  C   UNL     1     -22.018   8.502 -31.928  0.00  0.00    +0.057 A 
ATOM     31  C   UNL     1     -20.713   8.502 -32.494  0.00  0.00    +0.046 A 
ATOM     32  C   UNL     1     -20.191   7.222 -32.638  0.00  0.00    +0.100 A 
ATOM     33  N   UNL     1     -20.791   6.108 -32.336  0.00  0.00    -0.258 NA
ATOM     34  C   UNL     1     -21.978   6.132 -31.739  0.00  0.00    +0.187 A 
ATOM     35  N   UNL     1     -22.579   4.976 -31.397  0.00  0.00    -0.293 N 
ATOM     36  H   UNL     1     -22.076   4.102 -31.608  0.00  0.00    +0.186 HD
ATOM     37  C   UNL     1     -23.899   4.856 -30.744  0.00  0.00    +0.166 C 
ATOM     38  N   UNL     1     -22.558   7.315 -31.590  0.00  0.00    -0.253 NA
ENDBRANCH  29  30
ENDBRANCH  23  24
ENDBRANCH  20  23
TORSDOF 4
