REMARK  Name = 3krw_ligand
REMARK  12 active torsions:
REMARK  status: ('A' for Active; 'I' for Inactive)
REMARK    1  A    between atoms: C1'_1  and  C2'_2
REMARK    2  A    between atoms: C5'_5  and  O5'_6
REMARK    3  A    between atoms: N1'_10  and  C3_13
REMARK    4  A    between atoms: C4_14  and  OAC_18
REMARK    5  A    between atoms: OAC_18  and  C1B_19
REMARK    6  A    between atoms: C1B_19  and  C2B_21
REMARK    7  A    between atoms: C4B_23  and  O4'_24
REMARK    8  A    between atoms: C5B_25  and  C8'_29
REMARK    9  A    between atoms: C6B_26  and  O6'_27
REMARK   10  A    between atoms: C8'_29  and  C9'_31
REMARK   11  A    between atoms: CXU_32  and  OXU_33
REMARK   12  A    between atoms: CXY_37  and  CX8_38
REMARK                            x       y       z     vdW  Elec       q    Type
REMARK                         _______ _______ _______ _____ _____    ______ ____
ROOT
ATOM      7  C   UNL     1      33.679  -6.871  54.060  0.00  0.00    +0.262 C 
ATOM     31  O   UNL     1      32.524  -6.516  54.219  0.00  0.00    -0.355 OA
ENDROOT
BRANCH   7   8
ATOM      8  C   UNL     1      34.513  -7.391  55.184  0.00  0.00    +0.050 A 
ATOM      9  C   UNL     1      35.803  -7.817  54.860  0.00  0.00    +0.034 A 
ATOM     10  C   UNL     1      36.652  -8.329  55.819  0.00  0.00    +0.105 A 
ATOM     13  C   UNL     1      36.169  -8.419  57.221  0.00  0.00    +0.093 A 
ATOM     27  C   UNL     1      34.791  -7.958  57.518  0.00  0.00    +0.105 A 
ATOM     30  C   UNL     1      34.007  -7.459  56.484  0.00  0.00    +0.034 A 
BRANCH  10  11
ATOM     11  O   UNL     1      37.894  -8.728  55.439  0.00  0.00    -0.329 OA
ATOM     12  H   UNL     1      37.999  -8.586  54.506  0.00  0.00    +0.251 HD
ENDBRANCH  10  11
BRANCH  13  14
ATOM     14  C   UNL     1      37.025  -8.981  58.311  0.00  0.00    +0.149 C 
ATOM     26  O   UNL     1      36.606  -9.057  59.451  0.00  0.00    -0.385 OA
BRANCH  14  15
ATOM     15  C   UNL     1      38.387  -9.483  57.955  0.00  0.00    +0.072 A 
ATOM     16  C   UNL     1      38.637 -10.854  57.420  0.00  0.00    +0.020 A 
ATOM     20  C   UNL     1      39.949 -11.214  57.103  0.00  0.00    +0.004 A 
ATOM     21  C   UNL     1      41.002 -10.311  57.272  0.00  0.00    +0.001 A 
ATOM     22  C   UNL     1      40.801  -9.016  57.764  0.00  0.00    +0.033 A 
ATOM     23  C   UNL     1      39.533  -8.565  58.107  0.00  0.00    +0.111 A 
BRANCH  16  17
ATOM     17  C   UNL     1      37.518 -11.837  57.225  0.00  0.00    +0.064 C 
ATOM     18  O   UNL     1      36.351 -11.502  57.511  0.00  0.00    -0.560 OA
ATOM     19  O   UNL     1      37.769 -12.976  56.778  0.00  0.00    -0.560 OA
ENDBRANCH  16  17
BRANCH  23  24
ATOM     24  O   UNL     1      39.333  -7.307  58.588  0.00  0.00    -0.327 OA
ATOM     25  H   UNL     1      40.164  -6.847  58.624  0.00  0.00    +0.251 HD
ENDBRANCH  23  24
ENDBRANCH  14  15
ENDBRANCH  13  14
BRANCH  27  28
ATOM     28  O   UNL     1      34.303  -8.024  58.785  0.00  0.00    -0.329 OA
ATOM     29  H   UNL     1      34.966  -8.387  59.360  0.00  0.00    +0.251 HD
ENDBRANCH  27  28
ENDBRANCH   7   8
BRANCH   7   6
ATOM      6  O   UNL     1      34.331  -6.864  52.761  0.00  0.00    -0.271 OA
BRANCH   6   5
ATOM      4  C   UNL     1      34.575  -5.616  50.804  0.00  0.00    +0.175 C 
ATOM      5  C   UNL     1      33.591  -6.464  51.613  0.00  0.00    +0.182 C 
ATOM     32  C   UNL     1      33.028  -7.709  50.919  0.00  0.00    +0.044 C 
ATOM     33  C   UNL     1      34.094  -8.745  50.566  0.00  0.00    +0.054 C 
ATOM     34  C   UNL     1      34.701  -8.477  49.196  0.00  0.00    +0.129 C 
ATOM     35  N   UNL     1      35.433  -7.228  49.189  0.00  0.00    +0.229 N 
ATOM     36  H   UNL     1      35.928  -7.188  48.312  0.00  0.00    +0.201 HD
ATOM     37  H   UNL     1      36.096  -7.278  49.947  0.00  0.00    +0.201 HD
ATOM     38  C   UNL     1      34.737  -5.967  49.330  0.00  0.00    +0.160 C 
BRANCH   4   2
ATOM      1  C   UNL     1      34.990  -3.264  51.252  0.00  0.00    +0.197 C 
ATOM      2  N   UNL     1      34.160  -4.232  50.867  0.00  0.00    -0.277 N 
ATOM      3  H   UNL     1      33.222  -3.995  50.614  0.00  0.00    +0.185 HD
ATOM     39  O   UNL     1      36.135  -3.539  51.565  0.00  0.00    -0.390 OA
BRANCH   1  40
ATOM     40  C   UNL     1      34.538  -1.823  51.304  0.00  0.00    +0.039 A 
ATOM     41  C   UNL     1      33.241  -1.443  50.947  0.00  0.00    +0.014 A 
ATOM     42  C   UNL     1      32.854  -0.109  50.998  0.00  0.00    +0.028 A 
ATOM     43  C   UNL     1      33.756   0.863  51.406  0.00  0.00    +0.093 A 
ATOM     46  C   UNL     1      35.047   0.500  51.761  0.00  0.00    +0.028 A 
ATOM     47  C   UNL     1      35.435  -0.836  51.709  0.00  0.00    +0.014 A 
BRANCH  43  44
ATOM     44  O   UNL     1      33.373   2.162  51.454  0.00  0.00    -0.330 OA
ATOM     45  H   UNL     1      32.466   2.234  51.181  0.00  0.00    +0.250 HD
ENDBRANCH  43  44
ENDBRANCH   1  40
ENDBRANCH   4   2
ENDBRANCH   6   5
ENDBRANCH   7   6
TORSDOF 12
