REMARK  Name = 5JFW
REMARK  9 active torsions:
REMARK  status: ('A' for Active; 'I' for Inactive)
REMARK    1  A    between atoms: C_2  and  C_3
REMARK    2  A    between atoms: C_3  and  C_19
REMARK    3  A    between atoms: C_5  and  N_22
REMARK    4  A    between atoms: C_6  and  C_7
REMARK    5  A    between atoms: C_7  and  C_24
REMARK    6  A    between atoms: C_9  and  C_10
REMARK    7  A    between atoms: C_14  and  C_15
REMARK    8  A    between atoms: C_15  and  C_16
REMARK    9  A    between atoms: C_15  and  N_17
REMARK                            x       y       z     vdW  Elec       q    Type
REMARK                         _______ _______ _______ _____ _____    ______ ____
ROOT
ATOM     14  C   UNL     1     -20.469 -43.058  -3.937  0.00  0.00    +0.042 A 
ATOM     15  C   UNL     1     -20.382 -41.676  -4.133  0.00  0.00    +0.038 A 
ATOM     16  C   UNL     1     -21.415 -40.870  -3.616  0.00  0.00    +0.052 A 
ATOM     30  C   UNL     1     -22.554 -41.450  -2.997  0.00  0.00    +0.134 A 
ATOM     31  N   UNL     1     -22.624 -42.778  -2.870  0.00  0.00    -0.261 NA
ATOM     32  C   UNL     1     -21.661 -43.569  -3.323  0.00  0.00    +0.122 A 
ENDROOT
BRANCH  16  17
ATOM     17  N   UNL     1     -21.396 -39.488  -3.712  0.00  0.00    -0.284 N 
ATOM     18  H   UNL     1     -22.308 -38.973  -3.930  0.00  0.00    +0.155 HD
ATOM     19  C   UNL     1     -20.266 -38.768  -3.540  0.00  0.00    +0.222 C 
ATOM     20  O   UNL     1     -19.117 -39.263  -3.288  0.00  0.00    -0.275 OA
BRANCH  19  21
ATOM     21  C   UNL     1     -20.554 -37.273  -3.731  0.00  0.00    +0.131 C 
BRANCH  21  22
ATOM     22  C   UNL     1     -19.277 -36.416  -3.638  0.00  0.00    -0.039 A 
ATOM     23  C   UNL     1     -19.191 -35.428  -2.630  0.00  0.00    +0.005 A 
ATOM     24  C   UNL     1     -18.032 -34.639  -2.529  0.00  0.00    +0.019 A 
ATOM     25  C   UNL     1     -16.968 -34.872  -3.433  0.00  0.00    +0.052 A 
ATOM     28  C   UNL     1     -17.073 -35.849  -4.477  0.00  0.00    +0.019 A 
ATOM     29  C   UNL     1     -18.256 -36.617  -4.558  0.00  0.00    +0.005 A 
BRANCH  25  26
ATOM     26  C   UNL     1     -15.781 -34.102  -3.244  0.00  0.00    +0.099 C 
ATOM     27  N   UNL     1     -14.857 -33.501  -3.096  0.00  0.00    -0.191 NA
ENDBRANCH  25  26
ENDBRANCH  21  22
ENDBRANCH  19  21
ENDBRANCH  16  17
BRANCH  14  13
ATOM     13  C   UNL     1     -19.466 -44.008  -4.414  0.00  0.00    +0.197 C 
ATOM     33  O   UNL     1     -18.860 -43.718  -5.400  0.00  0.00    -0.286 OA
BRANCH  13  12
ATOM      1  C   UNL     1     -19.530 -45.693  -2.455  0.00  0.00    +0.100 A 
ATOM      2  N   UNL     1     -18.896 -46.837  -2.122  0.00  0.00    -0.329 N 
ATOM      3  C   UNL     1     -18.153 -47.323  -3.161  0.00  0.00    +0.145 A 
ATOM      4  N   UNL     1     -17.426 -48.463  -3.371  0.00  0.00    -0.218 NA
ATOM      5  C   UNL     1     -16.802 -48.630  -4.554  0.00  0.00    +0.223 A 
ATOM      6  N   UNL     1     -16.893 -47.732  -5.555  0.00  0.00    -0.243 NA
ATOM      7  C   UNL     1     -17.604 -46.620  -5.404  0.00  0.00    +0.124 A 
ATOM      8  C   UNL     1     -18.259 -46.337  -4.196  0.00  0.00    +0.048 A 
ATOM     12  C   UNL     1     -19.130 -45.260  -3.712  0.00  0.00    +0.051 A 
BRANCH   2   9
ATOM      9  C   UNL     1     -18.968 -47.634  -0.870  0.00  0.00    +0.083 C 
ATOM     10  C   UNL     1     -20.296 -48.342  -0.614  0.00  0.00    +0.030 C 
ATOM     11  C   UNL     1     -18.398 -46.866   0.271  0.00  0.00    +0.030 C 
ENDBRANCH   2   9
ENDBRANCH  13  12
ENDBRANCH  14  13
TORSDOF 7
