REMARK  Name = 3hp5_ligand
REMARK  3 active torsions:
REMARK  status: ('A' for Active; 'I' for Inactive)
REMARK    1  A    between atoms: C5_5  and  S6_6
REMARK    2  A    between atoms: S6_6  and  C7_7
REMARK    3  A    between atoms: C11_11  and  C12_12
REMARK                            x       y       z     vdW  Elec       q    Type
REMARK                         _______ _______ _______ _____ _____    ______ ____
ROOT
ATOM      8  C   UNL     1      35.490  36.497  20.228  0.00  0.00    +0.108 A 
ATOM      9  N   UNL     1      35.463  37.705  19.794  0.00  0.00    -0.186 N 
ATOM     10  H   UNL     1      35.724  37.943  18.826  0.00  0.00    +0.219 HD
ATOM     11  N   UNL     1      35.064  38.665  20.699  0.00  0.00    -0.126 N 
ATOM     12  C   UNL     1      35.027  39.918  20.289  0.00  0.00    +0.310 C 
ATOM     13  N   UNL     1      34.672  40.925  21.034  0.00  0.00    -0.249 NA
ATOM     14  C   UNL     1      34.274  40.749  22.370  0.00  0.00    +0.180 C 
ATOM     15  O   UNL     1      33.938  41.714  23.031  0.00  0.00    -0.382 OA
ATOM     16  C   UNL     1      34.300  39.361  22.860  0.00  0.00    +0.210 C 
ATOM     25  C   UNL     1      34.698  38.396  22.005  0.00  0.00    +0.096 A 
ATOM     26  C   UNL     1      34.753  37.015  22.403  0.00  0.00    -0.073 A 
ATOM     27  C   UNL     1      35.131  36.031  21.581  0.00  0.00    -0.074 A 
ENDROOT
BRANCH  16  17
ATOM     17  C   UNL     1      33.902  39.090  24.247  0.00  0.00    +0.018 A 
ATOM     18  C   UNL     1      34.790  39.373  25.266  0.00  0.00    +0.046 A 
ATOM     19 CL   UNL     1      36.336  40.027  24.902  0.00  0.00    -0.076 Cl
ATOM     20  C   UNL     1      34.476  39.145  26.585  0.00  0.00    +0.007 A 
ATOM     21  C   UNL     1      33.247  38.622  26.905  0.00  0.00    -0.011 A 
ATOM     22  C   UNL     1      32.345  38.336  25.903  0.00  0.00    +0.007 A 
ATOM     23  C   UNL     1      32.663  38.569  24.580  0.00  0.00    +0.046 A 
ATOM     24 CL   UNL     1      31.468  38.176  23.390  0.00  0.00    -0.076 Cl
ENDBRANCH  16  17
BRANCH   8   7
ATOM      7  S   UNL     1      35.994  35.239  19.117  0.00  0.00    -0.023 S 
BRANCH   7   6
ATOM      1  F   UNL     1      38.518  37.899  14.520  0.00  0.00    -0.190 F 
ATOM      2  C   UNL     1      37.970  37.314  15.600  0.00  0.00    +0.123 A 
ATOM      3  C   UNL     1      38.550  37.426  16.849  0.00  0.00    +0.057 A 
ATOM      4  C   UNL     1      37.952  36.801  17.927  0.00  0.00    +0.144 A 
ATOM      5  F   UNL     1      38.502  36.901  19.148  0.00  0.00    -0.189 F 
ATOM      6  C   UNL     1      36.788  36.074  17.771  0.00  0.00    +0.063 A 
ATOM     28  C   UNL     1      36.237  35.979  16.513  0.00  0.00    +0.004 A 
ATOM     29  C   UNL     1      36.817  36.595  15.431  0.00  0.00    +0.018 A 
ENDBRANCH   7   6
ENDBRANCH   8   7
TORSDOF 3
