REMARK  Name = 4mp7_ligand
REMARK  3 active torsions:
REMARK  status: ('A' for Active; 'I' for Inactive)
REMARK    1  A    between atoms: C2_2  and  C5_5
REMARK    2  A    between atoms: C9_9  and  O14_14
REMARK    3  A    between atoms: C18_18  and  O19_19
REMARK                            x       y       z     vdW  Elec       q    Type
REMARK                         _______ _______ _______ _____ _____    ______ ____
ROOT
ATOM      1  N   UNL     1      14.213   1.133 -37.334  0.00  0.00    -0.237 N 
ATOM      2  C   UNL     1      15.028   0.016 -37.701  0.00  0.00    +0.074 A 
ATOM      3  C   UNL     1      16.388   0.609 -37.924  0.00  0.00    -0.031 A 
ATOM      4  C   UNL     1      17.550   0.037 -38.484  0.00  0.00    -0.001 A 
ATOM      5  C   UNL     1      18.684   0.809 -38.581  0.00  0.00    -0.000 A 
ATOM      6  C   UNL     1      18.665   2.165 -38.117  0.00  0.00    -0.000 A 
ATOM      7  C   UNL     1      17.573   2.712 -37.588  0.00  0.00    -0.001 A 
ATOM      8  C   UNL     1      16.376   1.892 -37.488  0.00  0.00    -0.031 A 
ATOM      9  C   UNL     1      15.020   2.245 -36.952  0.00  0.00    +0.074 A 
ATOM     10  C   UNL     1      12.791   1.124 -37.350  0.00  0.00    +0.293 C 
ATOM     11  O   UNL     1      12.209   0.115 -37.709  0.00  0.00    -0.331 OA
ENDROOT
BRANCH  10  12
ATOM     12  C   UNL     1      12.028   2.402 -36.959  0.00  0.00    +0.097 A 
ATOM     13  C   UNL     1      11.917   2.853 -35.600  0.00  0.00    +0.007 A 
ATOM     14  C   UNL     1      11.217   3.976 -35.337  0.00  0.00    +0.010 A 
ATOM     15  C   UNL     1      10.620   4.677 -36.367  0.00  0.00    +0.085 A 
ATOM     18  C   UNL     1      10.737   4.238 -37.693  0.00  0.00    +0.049 A 
ATOM     19  C   UNL     1      11.457   3.076 -37.959  0.00  0.00    +0.104 A 
BRANCH  15  16
ATOM     16  O   UNL     1       9.916   5.834 -36.096  0.00  0.00    -0.332 OA
ATOM     17  H   UNL     1       9.571   6.191 -36.906  0.00  0.00    +0.250 HD
ENDBRANCH  15  16
BRANCH  19  20
ATOM     20  O   UNL     1      11.617   2.605 -39.235  0.00  0.00    -0.330 OA
ATOM     21  H   UNL     1      10.765   2.422 -39.613  0.00  0.00    +0.251 HD
ENDBRANCH  19  20
ENDBRANCH  10  12
TORSDOF 3
