REMARK  Name = P9L
REMARK  2 active torsions:
REMARK  status: ('A' for Active; 'I' for Inactive)
REMARK    1  A    between atoms: S_2  and  N3_4
REMARK    2  A    between atoms: S_2  and  C5_10
REMARK                            x       y       z     vdW  Elec       q    Type
REMARK                         _______ _______ _______ _____ _____    ______ ____
ROOT
ATOM      4  C   UNL     1      27.893  49.680  -1.725  0.00  0.00    +0.122 A 
ATOM      5  C   UNL     1      27.902  48.835  -0.629  0.00  0.00    +0.018 A 
ATOM      6  C   UNL     1      26.694  48.512  -0.040  0.00  0.00    +0.013 A 
ATOM      7  C   UNL     1      26.668  47.651   1.198  0.00  0.00    +0.123 C 
ATOM      8  N   UNL     1      25.447  46.837   1.193  0.00  0.00    -0.258 N 
ATOM      9  C   UNL     1      25.488  45.538   1.874  0.00  0.00    +0.117 C 
ATOM     10  C   UNL     1      24.291  47.342   0.699  0.00  0.00    +0.311 C 
ATOM     11  O   UNL     1      23.294  46.650   0.605  0.00  0.00    -0.252 OA
ATOM     12  N   UNL     1      24.341  48.570   0.070  0.00  0.00    -0.242 N 
ATOM     13  C   UNL     1      23.072  49.095  -0.458  0.00  0.00    +0.122 C 
ATOM     14  C   UNL     1      25.508  49.000  -0.577  0.00  0.00    +0.053 A 
ATOM     15  C   UNL     1      25.500  49.783  -1.724  0.00  0.00    +0.016 A 
ATOM     16  C   UNL     1      26.711  50.108  -2.314  0.00  0.00    +0.021 A 
ENDROOT
BRANCH   4   2
ATOM      1  O   UNL     1      29.302  51.162  -3.372  0.00  0.00    -0.153 OA
ATOM      2  S   UNL     1      29.412  49.996  -2.541  0.00  0.00    +0.063 S 
ATOM      3  O   UNL     1      30.526  49.960  -1.630  0.00  0.00    -0.153 OA
BRANCH   2  17
ATOM     17  N   UNL     1      29.534  48.706  -3.520  0.00  0.00    -0.150 NA
ATOM     18  C   UNL     1      29.937  47.406  -2.940  0.00  0.00    +0.128 C 
ATOM     19  C   UNL     1      30.389  46.466  -4.028  0.00  0.00    +0.161 C 
ATOM     20  O   UNL     1      29.397  46.321  -5.011  0.00  0.00    -0.351 OA
ATOM     21  C   UNL     1      29.390  47.551  -5.699  0.00  0.00    +0.161 C 
ATOM     22  C   UNL     1      28.850  48.677  -4.836  0.00  0.00    +0.128 C 
ENDBRANCH   2  17
ENDBRANCH   4   2
TORSDOF 2
