REMARK  Name = 4a9r_ligand
REMARK  4 active torsions:
REMARK  status: ('A' for Active; 'I' for Inactive)
REMARK    1  A    between atoms: C1_1  and  C2_4
REMARK    2  A    between atoms: O1_3  and  C12_17
REMARK    3  A    between atoms: O1_3  and  C15_20
REMARK    4  A    between atoms: C5_9  and  C9_13
REMARK                            x       y       z     vdW  Elec       q    Type
REMARK                         _______ _______ _______ _____ _____    ______ ____
ROOT
ATOM      3  C   UNL     1     -11.738  47.109   4.177  0.00  0.00    +0.035 A 
ATOM      4  C   UNL     1     -12.980  47.635   4.885  0.00  0.00    +0.003 A 
ATOM      5  C   UNL     1     -12.872  48.200   6.067  0.00  0.00    +0.021 A 
ATOM      6  C   UNL     1     -11.503  48.327   6.731  0.00  0.00    +0.085 A 
ATOM      7  N   UNL     1     -11.071  48.907   8.041  0.00  0.00    -0.249 N 
ATOM      8  H   UNL     1     -11.680  49.337   8.737  0.00  0.00    +0.231 HD
ATOM      9  C   UNL     1      -9.797  48.767   8.133  0.00  0.00    +0.135 A 
ATOM     24  N   UNL     1      -9.340  48.121   6.948  0.00  0.00    -0.308 NA
ATOM     25  C   UNL     1     -10.439  47.874   6.122  0.00  0.00    +0.036 A 
ATOM     26  C   UNL     1     -10.562  47.219   4.749  0.00  0.00    +0.020 A 
ENDROOT
BRANCH   9  10
ATOM     10  C   UNL     1      -8.914  49.212   9.294  0.00  0.00    +0.025 A 
ATOM     11  C   UNL     1      -7.626  49.377   9.093  0.00  0.00    +0.014 A 
ATOM     12  C   UNL     1      -6.726  49.832  10.235  0.00  0.00    +0.035 A 
ATOM     13  C   UNL     1      -7.240  50.069  11.420  0.00  0.00    +0.123 A 
ATOM     14  C   UNL     1      -8.736  49.883  11.656  0.00  0.00    +0.035 A 
ATOM     23  C   UNL     1      -9.514  49.492  10.669  0.00  0.00    +0.014 A 
BRANCH  13  15
ATOM     15  O   UNL     1      -6.401  50.471  12.462  0.00  0.00    -0.253 OA
BRANCH  15  16
ATOM     16  C   UNL     1      -7.100  51.266  13.373  0.00  0.00    +0.118 A 
ATOM     17  C   UNL     1      -7.155  52.568  13.199  0.00  0.00    +0.028 A 
ATOM     18  C   UNL     1      -7.913  53.439  14.196  0.00  0.00    +0.004 A 
ATOM     19  C   UNL     1      -8.508  52.886  15.230  0.00  0.00    +0.029 A 
ATOM     20  C   UNL     1      -8.443  51.376  15.434  0.00  0.00    +0.004 A 
ATOM     21 CL   UNL     1      -9.392  53.907  16.394  0.00  0.00    -0.080 Cl
ATOM     22  C   UNL     1      -7.789  50.626  14.574  0.00  0.00    +0.028 A 
ENDBRANCH  15  16
ENDBRANCH  13  15
ENDBRANCH   9  10
BRANCH   3   1
ATOM      1  C   UNL     1     -11.851  46.455   2.805  0.00  0.00    +0.194 C 
ATOM      2  O   UNL     1     -12.777  46.687   2.106  0.00  0.00    -0.389 OA
ATOM     27  N   UNL     1     -10.814  45.548   2.354  0.00  0.00    -0.301 N 
ATOM     28  H   UNL     1     -10.015  45.347   2.956  0.00  0.00    +0.181 HD
ATOM     29  H   UNL     1     -10.883  45.111   1.435  0.00  0.00    +0.181 HD
ENDBRANCH   3   1
TORSDOF 4
