REMARK  Name = 4iq6_ligand
REMARK  2 active torsions:
REMARK  status: ('A' for Active; 'I' for Inactive)
REMARK    1  A    between atoms: C8_8  and  C9_9
REMARK    2  A    between atoms: C18_18  and  N22_22
REMARK                            x       y       z     vdW  Elec       q    Type
REMARK                         _______ _______ _______ _____ _____    ______ ____
ROOT
ATOM      9  C   UNL     1      37.882  -8.987 -35.138  0.00  0.00    -0.035 A 
ATOM     10  C   UNL     1      37.272 -10.223 -35.132  0.00  0.00    +0.017 A 
ATOM     11  C   UNL     1      36.294 -10.434 -34.180  0.00  0.00    +0.094 A 
ATOM     12 CL   UNL     1      35.499 -11.960 -34.157  0.00  0.00    -0.047 Cl
ATOM     13  N   UNL     1      35.877  -9.534 -33.271  0.00  0.00    -0.281 NA
ATOM     14  C   UNL     1      36.481  -8.329 -33.290  0.00  0.00    +0.098 A 
ATOM     15  N   UNL     1      36.105  -7.260 -32.434  0.00  0.00    -0.308 N 
ATOM     16  H   UNL     1      35.197  -6.783 -32.532  0.00  0.00    +0.180 HD
ATOM     23  C   UNL     1      37.452  -8.054 -34.228  0.00  0.00    +0.027 A 
ENDROOT
BRANCH   9   8
ATOM      1  C   UNL     1      40.895  -5.457 -35.621  0.00  0.00    +0.011 A 
ATOM      2  C   UNL     1      41.428  -5.523 -36.891  0.00  0.00    +0.071 A 
ATOM      3  N   UNL     1      41.164  -6.455 -37.817  0.00  0.00    -0.284 NA
ATOM      4  C   UNL     1      40.294  -7.367 -37.367  0.00  0.00    +0.141 A 
ATOM      5  N   UNL     1      39.858  -8.445 -38.079  0.00  0.00    -0.256 N 
ATOM      6  H   UNL     1      40.170  -8.685 -39.031  0.00  0.00    +0.235 HD
ATOM      7  C   UNL     1      38.951  -9.160 -37.354  0.00  0.00    +0.156 A 
ATOM      8  C   UNL     1      38.844  -8.562 -36.120  0.00  0.00    +0.001 A 
ATOM     24  C   UNL     1      39.701  -7.425 -36.116  0.00  0.00    +0.014 A 
ATOM     25  C   UNL     1      40.009  -6.427 -35.199  0.00  0.00    +0.014 A 
ENDBRANCH   9   8
BRANCH  15  17
ATOM     17  C   UNL     1      37.073  -6.869 -31.404  0.00  0.00    +0.093 C 
ATOM     18  C   UNL     1      36.337  -6.041 -30.352  0.00  0.00    +0.027 C 
ATOM     19  C   UNL     1      37.268  -5.542 -29.249  0.00  0.00    +0.002 C 
ATOM     20  C   UNL     1      38.519  -4.850 -29.781  0.00  0.00    +0.000 C 
ATOM     21  C   UNL     1      39.210  -5.673 -30.855  0.00  0.00    +0.002 C 
ATOM     22  C   UNL     1      38.241  -6.053 -31.959  0.00  0.00    +0.027 C 
ENDBRANCH  15  17
TORSDOF 2
