REMARK  Name = 4ZTN
REMARK  3 active torsions:
REMARK  status: ('A' for Active; 'I' for Inactive)
REMARK    1  A    between atoms: C_1  and  N_7
REMARK    2  A    between atoms: C_6  and  C_10
REMARK    3  A    between atoms: N_7  and  C_11
REMARK                            x       y       z     vdW  Elec       q    Type
REMARK                         _______ _______ _______ _____ _____    ______ ____
ROOT
ATOM      1  C   UNL     1      29.613   7.917  -6.522  0.00  0.00    +0.138 C 
ATOM     11  C   UNL     1      30.226   6.948  -7.435  0.00  0.00    +0.111 C 
ATOM     21  C   UNL     1      30.009   5.539  -7.193  0.00  0.00    +0.264 C 
ATOM     22  O   UNL     1      30.466   4.615  -7.872  0.00  0.00    -0.267 OA
ATOM     23  N   UNL     1      29.220   5.243  -6.092  0.00  0.00    -0.294 N 
ATOM     24  H   UNL     1      29.037   4.211  -5.877  0.00  0.00    +0.172 HD
ATOM     25  C   UNL     1      28.657   6.174  -5.259  0.00  0.00    +0.200 C 
ATOM     26  N   UNL     1      27.850   5.779  -4.138  0.00  0.00    -0.297 N 
ATOM     27  C   UNL     1      27.674   4.351  -3.821  0.00  0.00    +0.136 C 
ATOM     28  C   UNL     1      27.187   4.186  -2.407  0.00  0.00    +0.178 C 
ATOM     29  O   UNL     1      25.983   4.906  -2.186  0.00  0.00    -0.377 OA
ATOM     30  C   UNL     1      26.210   6.298  -2.392  0.00  0.00    +0.178 C 
ATOM     31  C   UNL     1      26.665   6.588  -3.802  0.00  0.00    +0.136 C 
ATOM     32  N   UNL     1      28.857   7.481  -5.481  0.00  0.00    -0.200 NA
ENDROOT
BRANCH  11  12
ATOM     12  C   UNL     1      31.047   7.379  -8.569  0.00  0.00    +0.118 A 
ATOM     13  N   UNL     1      31.018   8.628  -8.929  0.00  0.00    -0.239 NA
ATOM     14  C   UNL     1      31.858   8.851 -10.014  0.00  0.00    +0.079 A 
ATOM     15  C   UNL     1      32.088  10.085 -10.626  0.00  0.00    +0.029 A 
ATOM     16  C   UNL     1      32.977  10.168 -11.689  0.00  0.00    +0.002 A 
ATOM     17  C   UNL     1      33.657   9.044 -12.129  0.00  0.00    +0.001 A 
ATOM     18  C   UNL     1      33.455   7.813 -11.517  0.00  0.00    +0.017 A 
ATOM     19  C   UNL     1      32.551   7.724 -10.464  0.00  0.00    +0.040 A 
ATOM     20  S   UNL     1      32.093   6.340  -9.514  0.00  0.00    -0.067 S 
ENDBRANCH  11  12
BRANCH   1   2
ATOM      2  N   UNL     1      29.789   9.269  -6.672  0.00  0.00    -0.324 N 
ATOM      3  H   UNL     1      30.589   9.543  -7.328  0.00  0.00    +0.148 HD
BRANCH   2   4
ATOM      4  C   UNL     1      29.069  10.399  -6.087  0.00  0.00    +0.085 C 
ATOM      5  C   UNL     1      29.745  11.696  -6.530  0.00  0.00    +0.025 C 
ATOM      6  C   UNL     1      29.069  12.921  -5.926  0.00  0.00    +0.017 C 
ATOM      7  C   UNL     1      28.997  12.860  -4.426  0.00  0.00    +0.081 C 
ATOM      8  N   UNL     1      28.550  11.559  -3.909  0.00  0.00    -0.314 NA
ATOM      9  H   UNL     1      28.800  11.531  -2.869  0.00  0.00    +0.122 HD
ATOM     10  C   UNL     1      29.088  10.343  -4.514  0.00  0.00    +0.103 C 
ENDBRANCH   2   4
ENDBRANCH   1   2
TORSDOF 3
