REMARK  Name = 2wmu_ligand
REMARK  0 active torsions:
REMARK  status: ('A' for Active; 'I' for Inactive)
REMARK                            x       y       z     vdW  Elec       q    Type
REMARK                         _______ _______ _______ _____ _____    ______ ____
ROOT
ATOM      1  C   UNL     1      14.536  -3.319   9.033  0.00  0.00    +0.165 C 
ATOM      2  N   UNL     1      13.283  -2.698   8.627  0.00  0.00    -0.283 N 
ATOM      3  C   UNL     1      13.172  -1.605   7.792  0.00  0.00    +0.158 A 
ATOM      4  C   UNL     1      11.924  -1.059   7.590  0.00  0.00    +0.155 A 
ATOM      5  N   UNL     1      10.710  -1.391   7.990  0.00  0.00    -0.241 N 
ATOM      6  H   UNL     1      10.472  -2.179   8.592  0.00  0.00    +0.238 HD
ATOM      7  C   UNL     1       9.856  -0.522   7.473  0.00  0.00    +0.251 A 
ATOM      8  N   UNL     1      10.528   0.362   6.747  0.00  0.00    -0.286 NA
ATOM      9  C   UNL     1      11.814   0.053   6.801  0.00  0.00    +0.102 A 
ATOM     10  N   UNL     1      12.916   0.584   6.273  0.00  0.00    -0.295 NA
ATOM     11  C   UNL     1      14.099   0.054   6.503  0.00  0.00    +0.148 A 
ATOM     12  N   UNL     1      14.245  -1.008   7.269  0.00  0.00    -0.269 NA
ATOM     13  C   UNL     1      12.156  -3.209   9.402  0.00  0.00    +0.165 C 
ATOM     14  C   UNL     1      12.142  -4.729   9.333  0.00  0.00    +0.184 C 
ATOM     15  O   UNL     1      13.339  -5.346   9.841  0.00  0.00    -0.376 OA
ATOM     16  C   UNL     1      14.377  -4.829   8.991  0.00  0.00    +0.184 C 
ENDROOT
TORSDOF 0
