REMARK  Name = 3rin_ligand
REMARK  4 active torsions:
REMARK  status: ('A' for Active; 'I' for Inactive)
REMARK    1  A    between atoms: CAB_2  and  CAG_7
REMARK    2  A    between atoms: CAC_3  and  CAN_14
REMARK    3  A    between atoms: CAE_5  and  CAH_8
REMARK    4  A    between atoms: NAI_9  and  CAJ_10
REMARK                            x       y       z     vdW  Elec       q    Type
REMARK                         _______ _______ _______ _____ _____    ______ ____
ROOT
ATOM     13  C   UNL     1       3.032  31.299  30.731  0.00  0.00    -0.005 A 
ATOM     14  C   UNL     1       1.918  30.626  31.274  0.00  0.00    +0.017 A 
ATOM     15  C   UNL     1       0.684  31.300  31.427  0.00  0.00    +0.020 A 
ATOM     16  C   UNL     1       0.564  32.662  31.012  0.00  0.00    -0.033 A 
ATOM     17  C   UNL     1      -0.605  33.705  30.993  0.00  0.00    +0.028 C 
ATOM     18  C   UNL     1      -1.783  33.277  30.047  0.00  0.00    -0.055 C 
ATOM     19  C   UNL     1      -3.039  33.396  30.928  0.00  0.00    -0.015 C 
ATOM     20  C   UNL     1      -2.669  34.463  31.937  0.00  0.00    -0.015 C 
ATOM     21  C   UNL     1      -1.250  34.047  32.357  0.00  0.00    -0.055 C 
ATOM     22  C   UNL     1       0.107  34.874  30.362  0.00  0.00    +0.201 C 
ATOM     23  O   UNL     1      -0.443  35.934  30.091  0.00  0.00    -0.326 OA
ATOM     24  N   UNL     1       1.394  34.577  30.108  0.00  0.00    -0.223 N 
ATOM     25  H   UNL     1       2.070  35.225  29.703  0.00  0.00    +0.239 HD
ATOM     26  C   UNL     1       1.666  33.311  30.461  0.00  0.00    +0.090 A 
ATOM     27  C   UNL     1       2.858  32.615  30.322  0.00  0.00    +0.051 A 
ENDROOT
BRANCH  13  12
ATOM      1  C   UNL     1       6.716  30.391  30.907  0.00  0.00    +0.011 A 
ATOM      2  C   UNL     1       6.798  29.466  29.858  0.00  0.00    +0.027 A 
ATOM      3  C   UNL     1       5.637  29.105  29.105  0.00  0.00    +0.050 A 
ATOM     11  C   UNL     1       4.429  29.766  29.433  0.00  0.00    +0.039 A 
ATOM     12  C   UNL     1       4.320  30.703  30.491  0.00  0.00    +0.007 A 
ATOM     28  C   UNL     1       5.481  31.016  31.231  0.00  0.00    -0.024 A 
ATOM     29  C   UNL     1       5.415  32.047  32.383  0.00  0.00    +0.102 C 
BRANCH   3   4
ATOM      4  C   UNL     1       5.695  28.128  27.894  0.00  0.00    +0.202 C 
ATOM      5  O   UNL     1       4.985  28.314  26.917  0.00  0.00    -0.387 OA
ATOM      6  N   UNL     1       6.604  27.149  27.853  0.00  0.00    -0.284 N 
ATOM      7  H   UNL     1       7.249  26.999  28.629  0.00  0.00    +0.185 HD
BRANCH   6   8
ATOM      8  C   UNL     1       6.648  26.306  26.674  0.00  0.00    +0.097 C 
ATOM      9  C   UNL     1       8.039  26.059  26.035  0.00  0.00    +0.030 C 
ATOM     10  C   UNL     1       7.064  27.044  25.393  0.00  0.00    +0.030 C 
ENDBRANCH   6   8
ENDBRANCH   3   4
ENDBRANCH  13  12
TORSDOF 3
