REMARK  Name = 8MQ
REMARK  1 active torsions:
REMARK  status: ('A' for Active; 'I' for Inactive)
REMARK    1  A    between atoms: C2_9  and  C3_11
REMARK                            x       y       z     vdW  Elec       q    Type
REMARK                         _______ _______ _______ _____ _____    ______ ____
ROOT
ATOM      1  C   UNL     1     138.888  -1.955  -0.536  0.00  0.00    +0.102 A 
ATOM      2  N   UNL     1     139.125  -2.018   0.809  0.00  0.00    -0.244 NA
ATOM      3  C   UNL     1     140.444  -1.707   1.054  0.00  0.00    +0.081 A 
ATOM      4  C   UNL     1     141.139  -1.622   2.255  0.00  0.00    +0.019 A 
ATOM      5  C   UNL     1     142.479  -1.271   2.216  0.00  0.00    +0.002 A 
ATOM      6  C   UNL     1     143.107  -1.006   1.007  0.00  0.00    +0.000 A 
ATOM      7  C   UNL     1     142.411  -1.091  -0.191  0.00  0.00    +0.002 A 
ATOM      8  C   UNL     1     141.063  -1.444  -0.185  0.00  0.00    +0.022 A 
ATOM      9  C   UNL     1     140.036  -1.604  -1.203  0.00  0.00    +0.055 A 
ENDROOT
BRANCH   9  10
ATOM     10  C   UNL     1     140.067  -1.398  -2.648  0.00  0.00    +0.175 C 
ATOM     11  C   UNL     1     141.455  -1.224  -3.305  0.00  0.00    +0.077 C 
ATOM     12  O   UNL     1     139.063  -1.353  -3.344  0.00  0.00    -0.291 OA
ENDBRANCH   9  10
TORSDOF 1
