REMARK  Name = 3m2w_ligand
REMARK  2 active torsions:
REMARK  status: ('A' for Active; 'I' for Inactive)
REMARK    1  A    between atoms: C3_3  and  C12_8
REMARK    2  A    between atoms: N42_26  and  C46_28
REMARK                            x       y       z     vdW  Elec       q    Type
REMARK                         _______ _______ _______ _____ _____    ______ ____
ROOT
ATOM      8  C   UNL     1      37.513   5.277  13.769  0.00  0.00    +0.055 A 
ATOM      9  C   UNL     1      37.480   5.544  15.140  0.00  0.00    +0.061 A 
ATOM     10  C   UNL     1      38.612   6.118  15.706  0.00  0.00    +0.049 A 
ATOM     11  C   UNL     1      38.680   6.431  17.155  0.00  0.00    +0.124 A 
ATOM     12  C   UNL     1      39.618   7.252  17.636  0.00  0.00    +0.054 A 
ATOM     13  C   UNL     1      40.659   7.936  16.800  0.00  0.00    +0.019 A 
ATOM     14  C   UNL     1      40.967   7.094  15.533  0.00  0.00    +0.008 A 
ATOM     15  C   UNL     1      39.369   7.324  19.081  0.00  0.00    +0.097 A 
ATOM     16  C   UNL     1      40.007   8.083  20.168  0.00  0.00    +0.224 C 
ATOM     17  O   UNL     1      41.014   8.755  19.985  0.00  0.00    -0.373 OA
ATOM     18  N   UNL     1      39.413   8.079  21.376  0.00  0.00    -0.296 N 
ATOM     19  H   UNL     1      39.847   8.616  22.127  0.00  0.00    +0.183 HD
ATOM     20  C   UNL     1      38.182   7.349  21.674  0.00  0.00    +0.069 C 
ATOM     21  C   UNL     1      37.702   6.302  20.639  0.00  0.00    -0.053 C 
ATOM     22  C   UNL     1      36.204   5.981  20.830  0.00  0.00    -0.178 C 
ATOM     23  N   UNL     1      36.571   4.678  21.464  0.00  0.00    +0.384 NA
ATOM     24  C   UNL     1      36.346   4.523  22.932  0.00  0.00    -0.135 C 
ATOM     25  C   UNL     1      37.985   4.839  21.054  0.00  0.00    -0.178 C 
ATOM     26  C   UNL     1      38.293   6.531  19.268  0.00  0.00    +0.044 A 
ATOM     27  N   UNL     1      37.917   6.022  18.117  0.00  0.00    -0.256 N 
ATOM     28  H   UNL     1      37.127   5.388  17.997  0.00  0.00    +0.238 HD
ATOM     29  C   UNL     1      39.714   6.453  14.918  0.00  0.00    +0.011 A 
ATOM     30  C   UNL     1      39.667   6.175  13.552  0.00  0.00    +0.106 A 
ATOM     31  N   UNL     1      38.582   5.604  13.020  0.00  0.00    -0.289 NA
ENDROOT
BRANCH   8   7
ATOM      1  F   UNL     1      35.606   3.456  14.952  0.00  0.00    -0.181 F 
ATOM      2  C   UNL     1      35.468   3.825  13.674  0.00  0.00    +0.143 A 
ATOM      3  C   UNL     1      34.392   3.318  12.955  0.00  0.00    +0.034 A 
ATOM      4  C   UNL     1      34.231   3.672  11.626  0.00  0.00    -0.001 A 
ATOM      5  C   UNL     1      35.128   4.551  11.011  0.00  0.00    -0.006 A 
ATOM      6  C   UNL     1      36.208   5.054  11.728  0.00  0.00    +0.008 A 
ATOM      7  C   UNL     1      36.370   4.690  13.054  0.00  0.00    +0.031 A 
ENDBRANCH   8   7
TORSDOF 1
