REMARK  Name = 7CJ
REMARK  4 active torsions:
REMARK  status: ('A' for Active; 'I' for Inactive)
REMARK    1  A    between atoms: S02_8  and  N03_9
REMARK    2  A    between atoms: S02_8  and  C16_19
REMARK    3  A    between atoms: N03_9  and  C04_10
REMARK    4  A    between atoms: C06_12  and  N07_13
REMARK                            x       y       z     vdW  Elec       q    Type
REMARK                         _______ _______ _______ _____ _____    ______ ____
ROOT
ATOM      5  C   UNL     1      49.837  -6.319  -0.802  0.00  0.00    +0.059 A 
ATOM      6  C   UNL     1      48.711  -7.148  -1.009  0.00  0.00    +0.033 A 
ATOM      7  C   UNL     1      48.676  -8.151  -1.988  0.00  0.00    +0.092 A 
ATOM     19  C   UNL     1      49.820  -8.338  -2.790  0.00  0.00    +0.018 A 
ATOM     20  C   UNL     1      50.969  -7.533  -2.608  0.00  0.00    +0.003 A 
ATOM     21  C   UNL     1      50.970  -6.528  -1.624  0.00  0.00    +0.015 A 
ENDROOT
BRANCH   5   4
ATOM      1  C   UNL     1      50.312  -3.575   1.643  0.00  0.00    +0.113 C 
ATOM      2  C   UNL     1      48.833  -3.931   1.880  0.00  0.00    -0.000 C 
ATOM      3  C   UNL     1      48.525  -5.104   0.929  0.00  0.00    +0.068 C 
ATOM      4  N   UNL     1      49.750  -5.343   0.176  0.00  0.00    -0.236 N 
ATOM     22  C   UNL     1      50.739  -4.491   0.585  0.00  0.00    +0.238 C 
ATOM     23  O   UNL     1      51.903  -4.426   0.149  0.00  0.00    -0.274 OA
ENDBRANCH   5   4
BRANCH   7   8
ATOM      8  N   UNL     1      47.534  -8.911  -2.048  0.00  0.00    -0.097 NA
BRANCH   8   9
ATOM      9  S   UNL     1      45.941  -8.290  -2.341  0.00  0.00    +0.093 S 
ATOM     10  O   UNL     1      45.502  -7.420  -1.055  0.00  0.00    -0.148 OA
ATOM     11  O   UNL     1      44.915  -9.473  -2.665  0.00  0.00    -0.148 OA
BRANCH   9  12
ATOM     12  C   UNL     1      46.038  -7.248  -3.751  0.00  0.00    +0.129 A 
ATOM     13  C   UNL     1      45.701  -5.902  -3.611  0.00  0.00    +0.050 A 
ATOM     14  C   UNL     1      45.782  -5.077  -4.730  0.00  0.00    +0.141 A 
ATOM     15  F   UNL     1      45.454  -3.842  -4.582  0.00  0.00    -0.204 F 
ATOM     16  C   UNL     1      46.196  -5.574  -5.981  0.00  0.00    +0.030 A 
ATOM     17  C   UNL     1      46.542  -6.929  -6.116  0.00  0.00    +0.004 A 
ATOM     18  C   UNL     1      46.461  -7.773  -4.992  0.00  0.00    +0.020 A 
ENDBRANCH   9  12
ENDBRANCH   8   9
ENDBRANCH   7   8
TORSDOF 4
