REMARK  Name = 6QJE
REMARK  3 active torsions:
REMARK  status: ('A' for Active; 'I' for Inactive)
REMARK    1  A    between atoms: C5_4  and  C6_5
REMARK    2  A    between atoms: C5_4  and  N2_14
REMARK    3  A    between atoms: S1_9  and  C2_12
REMARK                            x       y       z     vdW  Elec       q    Type
REMARK                         _______ _______ _______ _____ _____    ______ ____
ROOT
ATOM      1  N   UNL     1      -9.124  -8.213  -8.218  0.00  0.00    -0.200 NA
ATOM      2  C   UNL     1      -8.341  -7.388  -7.505  0.00  0.00    +0.000 A 
ATOM      3  C   UNL     1      -8.766  -6.082  -7.815  0.00  0.00    +0.000 A 
ATOM      4  N   UNL     1      -9.777  -6.188  -8.689  0.00  0.00    -0.250 N 
ATOM     11  C   UNL     1      -9.982  -7.487  -8.922  0.00  0.00    +0.260 A 
ENDROOT
BRANCH  11  12
ATOM     12  S   UNL     1     -11.220  -8.176 -10.020  0.00  0.00    +1.180 S 
ATOM     13  O   UNL     1     -11.096  -7.568 -11.405  0.00  0.00    -0.650 OA
ATOM     14  O   UNL     1     -12.600  -7.927  -9.450  0.00  0.00    -0.650 OA
ATOM     15  C   UNL     1     -10.936  -9.927 -10.152  0.00  0.00    -0.090 C 
ENDBRANCH  11  12
BRANCH   4   5
ATOM      5  C   UNL     1     -10.495  -5.103  -9.266  0.00  0.00    -0.050 C 
BRANCH   5   6
ATOM      6  C   UNL     1      -9.578  -4.076  -9.619  0.00  0.00    +0.050 C 
ATOM      7  C   UNL     1      -8.880  -4.426 -10.718  0.00  0.00    -0.050 C 
ATOM      8  S   UNL     1      -8.567  -3.031 -11.491  0.00  0.00    -0.100 S 
ATOM      9  C   UNL     1      -9.555  -1.919 -10.784  0.00  0.00    +0.050 C 
ATOM     10  N   UNL     1     -10.415  -2.618 -10.042  0.00  0.00    -0.450 NA
ENDBRANCH   5   6
ENDBRANCH   4   5
TORSDOF 3
