REMARK  Name = 4F70
REMARK  10 active torsions:
REMARK  status: ('A' for Active; 'I' for Inactive)
REMARK    1  A    between atoms: N_3  and  C_4
REMARK    2  A    between atoms: C_6  and  C_7
REMARK    3  A    between atoms: C_7  and  C_8
REMARK    4  A    between atoms: C_7  and  C_9
REMARK    5  A    between atoms: C_7  and  C_10
REMARK    6  A    between atoms: N_12  and  C_13
REMARK    7  A    between atoms: C_17  and  C_18
REMARK    8  A    between atoms: N_20  and  C_21
REMARK    9  A    between atoms: C_21  and  C_22
REMARK   10  A    between atoms: C_22  and  N_23
REMARK                            x       y       z     vdW  Elec       q    Type
REMARK                         _______ _______ _______ _____ _____    ______ ____
ROOT
ATOM     15  C   UNL     1      39.545 -21.835 104.559  0.00  0.00    +0.130 A 
ATOM     16  N   UNL     1      38.934 -21.051 105.485  0.00  0.00    -0.218 N 
ATOM     24  N   UNL     1      38.165 -21.721 106.220  0.00  0.00    -0.169 NA
ATOM     25  C   UNL     1      38.187 -23.013 105.869  0.00  0.00    +0.071 A 
ATOM     30  C   UNL     1      39.066 -23.109 104.811  0.00  0.00    +0.069 A 
ENDROOT
BRANCH  16  17
ATOM     17  C   UNL     1      39.002 -19.594 105.697  0.00  0.00    +0.067 A 
ATOM     18  C   UNL     1      38.882 -18.779 104.574  0.00  0.00    +0.028 A 
ATOM     19  C   UNL     1      38.907 -17.401 104.694  0.00  0.00    +0.005 A 
ATOM     20  C   UNL     1      39.019 -16.824 105.948  0.00  0.00    -0.050 A 
ATOM     21  C   UNL     1      39.113 -17.630 107.092  0.00  0.00    +0.005 A 
ATOM     22  C   UNL     1      39.038 -15.324 106.041  0.00  0.00    +0.044 C 
ATOM     23  C   UNL     1      39.095 -19.016 106.967  0.00  0.00    +0.028 A 
ENDBRANCH  16  17
BRANCH  15  13
ATOM      1  O   UNL     1      40.367 -23.277 102.217  0.00  0.00    -0.253 OA
ATOM      2  C   UNL     1      40.751 -22.147 102.370  0.00  0.00    +0.305 C 
ATOM      3  N   UNL     1      41.567 -21.609 101.385  0.00  0.00    -0.298 N 
ATOM      4  H   UNL     1      41.898 -20.602 101.527  0.00  0.00    +0.150 HD
ATOM     13  N   UNL     1      40.427 -21.403 103.510  0.00  0.00    -0.254 N 
ATOM     14  H   UNL     1      40.872 -20.435 103.609  0.00  0.00    +0.158 HD
BRANCH   3   5
ATOM      5  C   UNL     1      42.022 -22.298 100.157  0.00  0.00    +0.121 C 
BRANCH   5   6
ATOM      6  C   UNL     1      41.790 -21.467  98.891  0.00  0.00    +0.103 C 
BRANCH   6   7
ATOM      7  N   UNL     1      40.695 -21.987  98.035  0.00  0.00    -0.296 NA
ATOM      8  C   UNL     1      40.774 -21.363  96.695  0.00  0.00    +0.112 C 
ATOM      9  C   UNL     1      39.635 -21.754  95.732  0.00  0.00    +0.175 C 
ATOM     10  O   UNL     1      38.370 -21.638  96.371  0.00  0.00    -0.377 OA
ATOM     11  C   UNL     1      38.292 -22.366  97.603  0.00  0.00    +0.175 C 
ATOM     12  C   UNL     1      39.338 -21.857  98.611  0.00  0.00    +0.112 C 
ENDBRANCH   6   7
ENDBRANCH   5   6
ENDBRANCH   3   5
ENDBRANCH  15  13
BRANCH  25  26
ATOM     26  C   UNL     1      37.362 -24.089 106.591  0.00  0.00    +0.006 C 
ATOM     27  C   UNL     1      37.201 -25.355 105.712  0.00  0.00    +0.017 C 
ATOM     28  C   UNL     1      38.090 -24.440 107.912  0.00  0.00    +0.017 C 
ATOM     29  C   UNL     1      35.955 -23.491 106.890  0.00  0.00    +0.017 C 
ENDBRANCH  25  26
TORSDOF 6
