REMARK  Name = 3v01_ligand
REMARK  9 active torsions:
REMARK  status: ('A' for Active; 'I' for Inactive)
REMARK    1  A    between atoms: N2_7  and  O3_11
REMARK    2  A    between atoms: N3_10  and  C7_17
REMARK    3  A    between atoms: N3_10  and  C9_19
REMARK    4  A    between atoms: O3_11  and  C15_25
REMARK    5  A    between atoms: O4_13  and  C16_26
REMARK    6  A    between atoms: O5_15  and  C17_27
REMARK    7  A    between atoms: C6_16  and  C8_18
REMARK    8  A    between atoms: C15_25  and  C16_26
REMARK    9  A    between atoms: C16_26  and  C17_27
REMARK                            x       y       z     vdW  Elec       q    Type
REMARK                         _______ _______ _______ _____ _____    ______ ____
ROOT
ATOM      1  C   UNL     1      36.380  32.177 -12.891  0.00  0.00    +0.072 A 
ATOM      2  C   UNL     1      35.039  32.057 -12.564  0.00  0.00    +0.061 A 
ATOM      3  C   UNL     1      34.243  31.244 -13.346  0.00  0.00    +0.142 A 
ATOM      4  C   UNL     1      34.780  30.567 -14.436  0.00  0.00    +0.059 A 
ATOM      5  C   UNL     1      33.685  29.885 -14.984  0.00  0.00    +0.107 A 
ATOM      6  C   UNL     1      32.500  30.187 -14.146  0.00  0.00    +0.206 A 
ATOM     29  C   UNL     1      36.123  30.707 -14.722  0.00  0.00    +0.088 A 
ATOM     30  O   UNL     1      32.852  31.043 -13.149  0.00  0.00    -0.249 OA
ATOM     31  N   UNL     1      36.875  31.501 -13.935  0.00  0.00    -0.313 NA
ENDROOT
BRANCH   6   7
ATOM      7  C   UNL     1      31.112  29.724 -14.344  0.00  0.00    +0.243 C 
ATOM      8  O   UNL     1      30.806  29.254 -15.427  0.00  0.00    -0.397 OA
ATOM      9  N   UNL     1      30.232  29.879 -13.373  0.00  0.00    -0.163 N 
ATOM     10  H   UNL     1      30.508  30.294 -12.483  0.00  0.00    +0.220 HD
BRANCH   9  11
ATOM     11  O   UNL     1      28.949  29.474 -13.582  0.00  0.00    -0.255 OA
BRANCH  11  12
ATOM     12  C   UNL     1      27.890  30.423 -13.405  0.00  0.00    +0.230 C 
BRANCH  12  13
ATOM     13  C   UNL     1      26.657  30.069 -14.241  0.00  0.00    +0.168 C 
BRANCH  13  17
ATOM     17  O   UNL     1      26.918  30.069 -15.672  0.00  0.00    -0.387 OA
ATOM     18  H   UNL     1      27.212  30.942 -15.943  0.00  0.00    +0.210 HD
ENDBRANCH  13  17
BRANCH  13  14
ATOM     14  C   UNL     1      25.589  31.100 -13.898  0.00  0.00    +0.189 C 
BRANCH  14  15
ATOM     15  O   UNL     1      25.590  32.107 -14.915  0.00  0.00    -0.392 OA
ATOM     16  H   UNL     1      25.397  31.703 -15.764  0.00  0.00    +0.209 HD
ENDBRANCH  14  15
ENDBRANCH  13  14
ENDBRANCH  12  13
ENDBRANCH  11  12
ENDBRANCH   9  11
ENDBRANCH   6   7
BRANCH   5  19
ATOM     19  N   UNL     1      33.525  29.001 -16.033  0.00  0.00    -0.280 N 
ATOM     20  H   UNL     1      32.779  29.235 -16.688  0.00  0.00    +0.205 HD
BRANCH  19  21
ATOM     21  C   UNL     1      34.222  27.852 -16.327  0.00  0.00    +0.092 A 
ATOM     22  C   UNL     1      33.815  27.077 -17.416  0.00  0.00    +0.155 A 
ATOM     23  C   UNL     1      34.500  25.941 -17.790  0.00  0.00    +0.032 A 
ATOM     24  C   UNL     1      35.609  25.547 -17.082  0.00  0.00    -0.005 A 
ATOM     25  C   UNL     1      36.034  26.292 -15.980  0.00  0.00    -0.008 A 
ATOM     26  I   UNL     1      36.585  23.790 -17.696  0.00  0.00    -0.061 I 
ATOM     27  F   UNL     1      32.741  27.396 -18.145  0.00  0.00    -0.191 F 
ATOM     28  C   UNL     1      35.351  27.433 -15.619  0.00  0.00    +0.013 A 
ENDBRANCH  19  21
ENDBRANCH   5  19
TORSDOF 9
