REMARK  Name = 7XX
REMARK  3 active torsions:
REMARK  status: ('A' for Active; 'I' for Inactive)
REMARK    1  A    between atoms: C6_6  and  C11_11
REMARK    2  A    between atoms: C7_7  and  C11_11
REMARK    3  A    between atoms: C10_10  and  C12_12
REMARK                            x       y       z     vdW  Elec       q    Type
REMARK                         _______ _______ _______ _____ _____    ______ ____
ROOT
ATOM      8  C   UNL     1       6.219   0.248  10.634  0.00  0.00    +0.198 C 
ATOM      9  O   UNL     1       6.164  -0.945  10.383  0.00  0.00    -0.286 OA
ENDROOT
BRANCH   8   7
ATOM      1  C   UNL     1       3.681   2.062  12.731  0.00  0.00    +0.001 A 
ATOM      2  C   UNL     1       3.925   1.589  13.994  0.00  0.00    +0.012 A 
ATOM      3  C   UNL     1       4.934   0.670  14.153  0.00  0.00    +0.068 A 
ATOM      4 CL   UNL     1       5.221   0.104  15.737  0.00  0.00    -0.081 Cl
ATOM      5  C   UNL     1       5.715   0.214  13.111  0.00  0.00    +0.071 A 
ATOM      6 CL   UNL     1       6.955  -0.925  13.480  0.00  0.00    -0.081 Cl
ATOM      7  C   UNL     1       5.470   0.694  11.840  0.00  0.00    +0.050 A 
ATOM     19  C   UNL     1       4.450   1.597  11.690  0.00  0.00    +0.004 A 
ENDBRANCH   8   7
BRANCH   8  10
ATOM     10  C   UNL     1       6.925   1.120   9.715  0.00  0.00    +0.058 A 
ATOM     11  C   UNL     1       7.014   2.528   9.545  0.00  0.00    +0.027 A 
ATOM     12  C   UNL     1       7.833   2.838   8.476  0.00  0.00    +0.117 A 
ATOM     16  N   UNL     1       8.249   1.621   7.985  0.00  0.00    -0.320 N 
ATOM     17  C   UNL     1       9.124   1.311   6.870  0.00  0.00    +0.131 C 
ATOM     18  C   UNL     1       7.711   0.603   8.715  0.00  0.00    +0.079 A 
BRANCH  12  13
ATOM     13  C   UNL     1       8.139   4.179   8.037  0.00  0.00    +0.300 C 
ATOM     14  N   UNL     1       7.192   5.054   8.485  0.00  0.00    -0.082 NA
ATOM     15  O   UNL     1       9.100   4.578   7.388  0.00  0.00    -0.265 OA
ENDBRANCH  12  13
ENDBRANCH   8  10
TORSDOF 3
