REMARK  Name = 3ML9
REMARK  9 active torsions:
REMARK  status: ('A' for Active; 'I' for Inactive)
REMARK    1  A    between atoms: C_4  and  C_11
REMARK    2  A    between atoms: C_6  and  C_19
REMARK    3  A    between atoms: C_8  and  O_30
REMARK    4  A    between atoms: C_17  and  N_26
REMARK    5  A    between atoms: C_18  and  O_31
REMARK    6  A    between atoms: C_20  and  O_30
REMARK    7  A    between atoms: C_21  and  C_22
REMARK    8  A    between atoms: C_21  and  O_29
REMARK    9  A    between atoms: C_22  and  O_31
REMARK                            x       y       z     vdW  Elec       q    Type
REMARK                         _______ _______ _______ _____ _____    ______ ____
ROOT
ATOM      3  C   UNL     1      43.849  14.159  30.940  0.00  0.00    +0.049 C 
ATOM      4  C   UNL     1      44.595  15.408  31.397  0.00  0.00    +0.261 C 
ATOM      5  O   UNL     1      44.046  16.177  32.207  0.00  0.00    -0.267 OA
ATOM      6  N   UNL     1      45.905  15.637  30.873  0.00  0.00    -0.289 N 
ATOM     18  C   UNL     1      46.520  14.727  29.932  0.00  0.00    +0.149 A 
ATOM     19  N   UNL     1      47.780  14.977  29.456  0.00  0.00    -0.197 NA
ATOM     20  C   UNL     1      48.339  14.123  28.574  0.00  0.00    +0.215 A 
ATOM     21  N   UNL     1      49.619  14.393  28.104  0.00  0.00    -0.327 N 
ATOM     22  H   UNL     1      50.141  15.264  28.443  0.00  0.00    +0.145 HD
ATOM     23  H   UNL     1      50.083  13.730  27.404  0.00  0.00    +0.145 HD
ATOM     24  N   UNL     1      47.700  13.015  28.130  0.00  0.00    -0.219 NA
ATOM     25  C   UNL     1      46.443  12.758  28.598  0.00  0.00    +0.052 A 
ATOM     26  C   UNL     1      45.815  11.516  28.044  0.00  0.00    +0.066 C 
ATOM     27  C   UNL     1      45.795  13.594  29.525  0.00  0.00    +0.040 A 
ATOM     28  C   UNL     1      44.453  13.345  30.059  0.00  0.00    +0.027 C 
ENDROOT
BRANCH   3   2
ATOM      1  C   UNL     1      42.136  14.048  32.823  0.00  0.00    +0.015 A 
ATOM      2  C   UNL     1      42.472  13.818  31.455  0.00  0.00    +0.006 A 
ATOM     29  C   UNL     1      41.427  13.258  30.663  0.00  0.00    +0.123 A 
ATOM     30  N   UNL     1      40.174  12.954  31.154  0.00  0.00    -0.221 NA
ATOM     31  C   UNL     1      39.924  13.211  32.499  0.00  0.00    +0.214 A 
ATOM     34  C   UNL     1      40.877  13.752  33.355  0.00  0.00    +0.068 A 
BRANCH  31  32
ATOM     32  O   UNL     1      38.695  12.942  33.104  0.00  0.00    -0.480 OA
ATOM     33  C   UNL     1      37.709  12.385  32.249  0.00  0.00    +0.278 C 
ENDBRANCH  31  32
ENDBRANCH   3   2
BRANCH   6   7
ATOM      7  C   UNL     1      46.696  16.863  31.299  0.00  0.00    +0.092 C 
ATOM      8  C   UNL     1      47.111  16.774  32.806  0.00  0.00    +0.028 C 
ATOM      9  C   UNL     1      47.896  18.033  33.224  0.00  0.00    +0.034 C 
ATOM     10  C   UNL     1      47.062  19.307  32.954  0.00  0.00    +0.118 C 
ATOM     16  C   UNL     1      46.713  19.420  31.447  0.00  0.00    +0.034 C 
ATOM     17  C   UNL     1      45.925  18.190  30.982  0.00  0.00    +0.028 C 
BRANCH  10  11
ATOM     11  O   UNL     1      47.782  20.491  33.323  0.00  0.00    -0.374 OA
BRANCH  11  12
ATOM     12  C   UNL     1      47.037  21.366  34.180  0.00  0.00    +0.188 C 
BRANCH  12  13
ATOM     13  C   UNL     1      47.905  22.573  34.479  0.00  0.00    +0.184 C 
BRANCH  13  14
ATOM     14  O   UNL     1      48.042  23.348  33.288  0.00  0.00    -0.393 OA
ATOM     15  H   UNL     1      48.491  22.764  32.540  0.00  0.00    +0.209 HD
ENDBRANCH  13  14
ENDBRANCH  12  13
ENDBRANCH  11  12
ENDBRANCH  10  11
ENDBRANCH   6   7
TORSDOF 7
