REMARK  Name = 4alw_ligand
REMARK  3 active torsions:
REMARK  status: ('A' for Active; 'I' for Inactive)
REMARK    1  A    between atoms: N3_3  and  C7_4
REMARK    2  A    between atoms: N2_7  and  C4_8
REMARK    3  A    between atoms: C4_8  and  C3_9
REMARK                            x       y       z     vdW  Elec       q    Type
REMARK                         _______ _______ _______ _____ _____    ______ ____
ROOT
ATOM      5  C   UNL     1      21.450 -32.287   1.392  0.00  0.00    +0.182 A 
ATOM      6  N   UNL     1      21.456 -31.581   0.237  0.00  0.00    -0.194 N 
ATOM      7  H   UNL     1      21.040 -30.672   0.221  0.00  0.00    +0.252 HD
ATOM      8  C   UNL     1      22.012 -32.073  -0.900  0.00  0.00    +0.255 A 
ATOM      9  O   UNL     1      22.109 -31.353  -1.906  0.00  0.00    -0.399 OA
ATOM     10  C   UNL     1      22.373 -33.434  -0.866  0.00  0.00    +0.195 A 
ATOM     11  O   UNL     1      22.949 -34.208  -1.763  0.00  0.00    -0.251 OA
ATOM     12  C   UNL     1      23.172 -35.457  -1.301  0.00  0.00    +0.127 A 
ATOM     13  C   UNL     1      23.713 -36.510  -2.002  0.00  0.00    +0.031 A 
ATOM     14  C   UNL     1      23.841 -37.673  -1.244  0.00  0.00    -0.002 A 
ATOM     15  C   UNL     1      23.435 -37.635   0.123  0.00  0.00    +0.001 A 
ATOM     16 BR   UNL     1      23.732 -39.255   1.085  0.00  0.00    -0.059 Br
ATOM     17  C   UNL     1      22.893 -36.578   0.817  0.00  0.00    +0.007 A 
ATOM     18  C   UNL     1      22.794 -35.432   0.041  0.00  0.00    +0.015 A 
ATOM     19  C   UNL     1      22.304 -34.156   0.307  0.00  0.00    +0.038 A 
ATOM     20  N   UNL     1      21.817 -33.527   1.423  0.00  0.00    -0.315 NA
ENDROOT
BRANCH   5   4
ATOM      4  C   UNL     1      20.831 -31.658   2.600  0.00  0.00    +0.278 C 
BRANCH   4   2
ATOM      1  C   UNL     1      21.011 -29.247   2.375  0.00  0.00    +0.185 C 
ATOM      2  N   UNL     1      21.406 -30.422   3.159  0.00  0.00    +0.263 N 
ATOM      3  H   UNL     1      20.969 -30.295   4.059  0.00  0.00    +0.206 HD
ATOM     21  C   UNL     1      22.876 -30.571   3.458  0.00  0.00    +0.185 C 
ATOM     22  C   UNL     1      23.248 -29.318   4.280  0.00  0.00    +0.183 C 
ATOM     23  N   UNL     1      22.942 -28.128   3.429  0.00  0.00    +0.240 N 
ATOM     24  H   UNL     1      23.452 -28.200   2.563  0.00  0.00    +0.203 HD
ATOM     25  C   UNL     1      23.487 -26.997   4.252  0.00  0.00    +0.191 C 
ATOM     26  C   UNL     1      21.502 -27.932   3.082  0.00  0.00    +0.183 C 
ENDBRANCH   4   2
ENDBRANCH   5   4
TORSDOF 2
