REMARK  Name = 4kbk_ligand
REMARK  4 active torsions:
REMARK  status: ('A' for Active; 'I' for Inactive)
REMARK    1  A    between atoms: C4_2  and  C5_16
REMARK    2  A    between atoms: C16_10  and  C14_21
REMARK    3  A    between atoms: C1_12  and  N1_13
REMARK    4  A    between atoms: C3_15  and  C11_19
REMARK                            x       y       z     vdW  Elec       q    Type
REMARK                         _______ _______ _______ _____ _____    ______ ____
ROOT
ATOM      1  N   UNL     1      21.927  21.923 -51.441  0.00  0.00    -0.302 NA
ATOM      2  C   UNL     1      20.747  22.598 -51.408  0.00  0.00    +0.069 A 
ATOM      3  C   UNL     1      20.328  23.364 -50.320  0.00  0.00    +0.030 A 
ATOM      4  C   UNL     1      21.161  23.428 -49.200  0.00  0.00    -0.023 A 
ATOM      5  C   UNL     1      22.373  22.743 -49.206  0.00  0.00    +0.017 A 
ATOM     27  C   UNL     1      22.711  22.010 -50.346  0.00  0.00    +0.073 A 
ENDROOT
BRANCH   2  19
ATOM     19  C   UNL     1      19.886  22.445 -52.639  0.00  0.00    +0.155 C 
ATOM     20  N   UNL     1      19.494  23.781 -53.147  0.00  0.00    +0.246 N 
ATOM     21  H   UNL     1      18.981  24.274 -52.433  0.00  0.00    +0.203 HD
ATOM     22  H   UNL     1      20.321  24.304 -53.388  0.00  0.00    +0.203 HD
ATOM     23  C   UNL     1      18.642  23.627 -54.348  0.00  0.00    +0.160 C 
ATOM     24  C   UNL     1      17.406  22.789 -53.969  0.00  0.00    +0.211 C 
ATOM     25  O   UNL     1      17.784  21.557 -53.413  0.00  0.00    -0.367 OA
ATOM     26  C   UNL     1      18.582  21.706 -52.267  0.00  0.00    +0.231 C 
ENDBRANCH   2  19
BRANCH   4   6
ATOM      6  C   UNL     1      20.763  24.167 -48.032  0.00  0.00    +0.017 A 
ATOM      7  C   UNL     1      19.460  24.292 -47.544  0.00  0.00    +0.178 A 
ATOM      8  N   UNL     1      19.563  25.021 -46.365  0.00  0.00    -0.203 N 
ATOM      9  C   UNL     1      18.444  25.450 -45.521  0.00  0.00    +0.246 C 
ATOM     10  N   UNL     1      20.848  25.382 -46.084  0.00  0.00    -0.205 NA
ATOM     11  C   UNL     1      21.598  24.869 -47.108  0.00  0.00    +0.050 A 
BRANCH  11  12
ATOM     12  C   UNL     1      23.025  25.127 -47.183  0.00  0.00    -0.015 A 
ATOM     13  C   UNL     1      23.596  25.511 -48.396  0.00  0.00    +0.005 A 
ATOM     14  C   UNL     1      24.943  25.831 -48.464  0.00  0.00    +0.033 A 
ATOM     15  C   UNL     1      25.709  25.754 -47.295  0.00  0.00    +0.133 A 
ATOM     16  F   UNL     1      27.000  26.060 -47.349  0.00  0.00    -0.183 F 
ATOM     17  C   UNL     1      25.154  25.363 -46.074  0.00  0.00    +0.033 A 
ATOM     18  C   UNL     1      23.804  25.046 -46.030  0.00  0.00    +0.005 A 
ENDBRANCH  11  12
ENDBRANCH   4   6
TORSDOF 3
