REMARK  Name = 4aa0_ligand
REMARK  7 active torsions:
REMARK  status: ('A' for Active; 'I' for Inactive)
REMARK    1  A    between atoms: N10_6  and  C11_7
REMARK    2  A    between atoms: C13_9  and  N14_10
REMARK    3  A    between atoms: C15_11  and  C17_13
REMARK    4  A    between atoms: C21_17  and  N23_19
REMARK    5  A    between atoms: C31_27  and  C32_29
REMARK    6  A    between atoms: C35_32  and  N31_35
REMARK    7  A    between atoms: N39_36  and  C43_40
REMARK                            x       y       z     vdW  Elec       q    Type
REMARK                         _______ _______ _______ _____ _____    ______ ____
ROOT
ATOM     18  C   UNL     1      -4.323   1.418  18.509  0.00  0.00    +0.100 A 
ATOM     19  C   UNL     1      -5.588   1.350  17.924  0.00  0.00    -0.027 A 
ATOM     20  C   UNL     1      -6.740   0.707  18.628  0.00  0.00    +0.065 C 
ATOM     21  C   UNL     1      -5.822   1.880  16.659  0.00  0.00    -0.031 A 
ATOM     22  C   UNL     1      -4.761   2.472  16.007  0.00  0.00    -0.018 A 
ATOM     23  C   UNL     1      -3.499   2.546  16.563  0.00  0.00    +0.051 A 
ATOM     40  C   UNL     1      -3.266   2.026  17.842  0.00  0.00    +0.026 A 
ENDROOT
BRANCH  18  15
ATOM      1  C   UNL     1      -4.047   0.081  24.715  0.00  0.00    +0.011 A 
ATOM      2  C   UNL     1      -4.069   1.457  24.621  0.00  0.00    +0.041 A 
ATOM     11  C   UNL     1      -4.100   2.020  23.350  0.00  0.00    +0.025 A 
ATOM     12  C   UNL     1      -4.108   1.195  22.236  0.00  0.00    +0.059 A 
ATOM     13  C   UNL     1      -4.135   1.798  20.886  0.00  0.00    +0.257 A 
ATOM     14  O   UNL     1      -4.144   3.016  20.782  0.00  0.00    -0.376 OA
ATOM     15  N   UNL     1      -4.136   0.901  19.827  0.00  0.00    -0.146 N 
ATOM     16  C   UNL     1      -4.114  -0.460  20.029  0.00  0.00    +0.292 A 
ATOM     17  N   UNL     1      -4.088  -1.035  21.197  0.00  0.00    -0.300 NA
ATOM     41  C   UNL     1      -4.086  -0.184  22.332  0.00  0.00    +0.015 A 
ATOM     42  C   UNL     1      -4.052  -0.747  23.601  0.00  0.00    -0.003 A 
BRANCH   2   3
ATOM      3  N   UNL     1      -4.076   2.230  25.803  0.00  0.00    -0.301 N 
ATOM      4  C   UNL     1      -3.983   3.667  25.613  0.00  0.00    +0.179 C 
ATOM      5  C   UNL     1      -2.543   4.108  25.797  0.00  0.00    +0.155 C 
ATOM      6  N   UNL     1      -2.073   3.641  27.131  0.00  0.00    +0.236 N 
ATOM      7  H   UNL     1      -2.696   4.013  27.830  0.00  0.00    +0.203 HD
ATOM      8  C   UNL     1      -0.720   4.176  27.370  0.00  0.00    +0.190 C 
ATOM      9  C   UNL     1      -2.069   2.154  27.267  0.00  0.00    +0.155 C 
ATOM     10  C   UNL     1      -3.446   1.601  26.971  0.00  0.00    +0.179 C 
ENDBRANCH   2   3
ENDBRANCH  18  15
BRANCH  23  24
ATOM     24  N   UNL     1      -2.508   3.207  15.791  0.00  0.00    -0.238 N 
ATOM     25  H   UNL     1      -2.808   3.946  15.188  0.00  0.00    +0.223 HD
ATOM     26  C   UNL     1      -1.151   2.903  15.811  0.00  0.00    +0.237 C 
ATOM     39  O   UNL     1      -0.636   2.064  16.555  0.00  0.00    -0.369 OA
BRANCH  26  27
ATOM     27  C   UNL     1      -0.290   3.617  14.815  0.00  0.00    +0.063 A 
ATOM     28  C   UNL     1       0.861   2.995  14.338  0.00  0.00    +0.070 A 
ATOM     29  C   UNL     1       1.694   3.632  13.414  0.00  0.00    +0.119 A 
ATOM     36  N   UNL     1       1.380   4.882  13.000  0.00  0.00    -0.281 NA
ATOM     37  C   UNL     1       0.255   5.468  13.462  0.00  0.00    +0.080 A 
ATOM     38  C   UNL     1      -0.611   4.886  14.369  0.00  0.00    +0.036 A 
BRANCH  29  30
ATOM     30  N   UNL     1       2.865   2.992  12.879  0.00  0.00    -0.289 N 
ATOM     31  C   UNL     1       3.956   3.863  12.435  0.00  0.00    +0.162 C 
ATOM     32  C   UNL     1       4.983   3.051  11.634  0.00  0.00    +0.184 C 
ATOM     33  O   UNL     1       5.503   1.908  12.356  0.00  0.00    -0.376 OA
ATOM     34  C   UNL     1       4.410   1.046  12.705  0.00  0.00    +0.184 C 
ATOM     35  C   UNL     1       3.352   1.778  13.534  0.00  0.00    +0.162 C 
ENDBRANCH  29  30
ENDBRANCH  26  27
ENDBRANCH  23  24
TORSDOF 5
