REMARK  Name = 4I22
REMARK  8 active torsions:
REMARK  status: ('A' for Active; 'I' for Inactive)
REMARK    1  A    between atoms: N_6  and  C_7
REMARK    2  A    between atoms: C_7  and  C_8
REMARK    3  A    between atoms: C_8  and  C_9
REMARK    4  A    between atoms: C_9  and  O_10
REMARK    5  A    between atoms: O_10  and  C_11
REMARK    6  A    between atoms: C_12  and  O_14
REMARK    7  A    between atoms: O_14  and  C_15
REMARK    8  A    between atoms: N_23  and  C_24
REMARK                            x       y       z     vdW  Elec       q    Type
REMARK                         _______ _______ _______ _____ _____    ______ ____
ROOT
ATOM      7  C   UNL     1      10.329 -16.349   9.561  0.00  0.00    +0.163 A 
ATOM      8  C   UNL     1       9.878 -15.461  10.574  0.00  0.00    +0.063 A 
ATOM      9  C   UNL     1       8.872 -14.494  10.318  0.00  0.00    +0.044 A 
ATOM     10  C   UNL     1       8.369 -13.582  11.280  0.00  0.00    +0.134 A 
ATOM     11  N   UNL     1       8.879 -13.602  12.613  0.00  0.00    -0.299 N 
ATOM     12  H   UNL     1       9.855 -14.014  12.761  0.00  0.00    +0.154 HD
ATOM     21  N   UNL     1       7.386 -12.675  10.951  0.00  0.00    -0.220 NA
ATOM     22  C   UNL     1       6.922 -12.686   9.683  0.00  0.00    +0.224 A 
ATOM     23  N   UNL     1       7.329 -13.506   8.696  0.00  0.00    -0.235 NA
ATOM     24  C   UNL     1       8.293 -14.403   9.002  0.00  0.00    +0.080 A 
ATOM     25  C   UNL     1       8.737 -15.278   7.999  0.00  0.00    +0.077 A 
ATOM     26  C   UNL     1       9.750 -16.260   8.248  0.00  0.00    +0.164 A 
ENDROOT
BRANCH  11  13
ATOM     13  C   UNL     1       8.197 -13.121  13.750  0.00  0.00    +0.034 A 
ATOM     14  C   UNL     1       8.921 -12.481  14.797  0.00  0.00    +0.026 A 
ATOM     15  C   UNL     1       8.242 -11.985  15.941  0.00  0.00    +0.041 A 
ATOM     16  C   UNL     1       6.835 -12.128  16.038  0.00  0.00    +0.142 A 
ATOM     17  F   UNL     1       6.217 -11.651  17.120  0.00  0.00    -0.204 F 
ATOM     18  C   UNL     1       6.099 -12.763  15.008  0.00  0.00    +0.078 A 
ATOM     19 CL   UNL     1       4.395 -12.946  15.098  0.00  0.00    -0.081 Cl
ATOM     20  C   UNL     1       6.772 -13.255  13.877  0.00  0.00    +0.046 A 
ENDBRANCH  11  13
BRANCH  26  27
ATOM     27  O   UNL     1      10.237 -17.166   7.322  0.00  0.00    -0.491 OA
ATOM     28  C   UNL     1       9.721 -17.170   5.991  0.00  0.00    +0.277 C 
ENDBRANCH  26  27
BRANCH   7   6
ATOM      6  O   UNL     1      11.296 -17.330   9.750  0.00  0.00    -0.488 OA
BRANCH   6   5
ATOM      5  C   UNL     1      11.880 -17.427  11.059  0.00  0.00    +0.230 C 
BRANCH   5   4
ATOM      4  C   UNL     1      12.856 -18.579  11.120  0.00  0.00    +0.056 C 
BRANCH   4   3
ATOM      3  C   UNL     1      14.084 -18.453  10.247  0.00  0.00    +0.088 C 
BRANCH   3   2
ATOM      1  C   UNL     1      14.914 -20.557   9.209  0.00  0.00    +0.112 C 
ATOM      2  N   UNL     1      14.864 -19.718  10.489  0.00  0.00    -0.298 NA
ATOM     29  C   UNL     1      16.260 -19.450  11.036  0.00  0.00    +0.112 C 
ATOM     30  C   UNL     1      16.959 -20.791  11.255  0.00  0.00    +0.175 C 
ATOM     31  O   UNL     1      17.004 -21.531  10.024  0.00  0.00    -0.377 OA
ATOM     32  C   UNL     1      15.698 -21.839   9.504  0.00  0.00    +0.175 C 
ENDBRANCH   3   2
ENDBRANCH   4   3
ENDBRANCH   5   4
ENDBRANCH   6   5
ENDBRANCH   7   6
TORSDOF 7
