REMARK  Name = 4ijp_ligand
REMARK  5 active torsions:
REMARK  status: ('A' for Active; 'I' for Inactive)
REMARK    1  A    between atoms: CAA_7  and  CAD_8
REMARK    2  A    between atoms: CAD_8  and  NAG_9
REMARK    3  A    between atoms: CAM_10  and  CAL_12
REMARK    4  A    between atoms: CAJ_16  and  CAV_17
REMARK    5  A    between atoms: CAW_25  and  CAZ_26
REMARK                            x       y       z     vdW  Elec       q    Type
REMARK                         _______ _______ _______ _____ _____    ______ ____
ROOT
ATOM      7  C   UNL     1     -23.940 -29.581  20.139  0.00  0.00    +0.101 A 
ATOM      8  C   UNL     1     -24.809 -29.791  21.134  0.00  0.00    +0.002 A 
ATOM      9  C   UNL     1     -25.216 -28.662  21.758  0.00  0.00    -0.010 A 
ATOM     10  C   UNL     1     -24.727 -27.511  21.265  0.00  0.00    +0.041 A 
ATOM     25  S   UNL     1     -23.704 -27.928  19.991  0.00  0.00    -0.021 S 
ENDROOT
BRANCH  10  11
ATOM     11  C   UNL     1     -24.936 -26.181  21.655  0.00  0.00    -0.006 A 
ATOM     12  C   UNL     1     -26.197 -25.771  22.136  0.00  0.00    -0.006 A 
ATOM     13  C   UNL     1     -27.322 -26.498  22.357  0.00  0.00    +0.019 A 
ATOM     14  C   UNL     1     -28.368 -25.827  22.853  0.00  0.00    +0.105 A 
ATOM     20  S   UNL     1     -27.938 -24.228  23.056  0.00  0.00    -0.023 S 
ATOM     21  C   UNL     1     -26.365 -24.411  22.484  0.00  0.00    +0.042 A 
ATOM     22  C   UNL     1     -25.325 -23.491  22.346  0.00  0.00    +0.011 A 
ATOM     23  C   UNL     1     -24.091 -23.909  21.858  0.00  0.00    -0.008 A 
ATOM     24  C   UNL     1     -23.909 -25.243  21.500  0.00  0.00    -0.003 A 
BRANCH  14  15
ATOM     15  C   UNL     1     -29.742 -26.415  23.203  0.00  0.00    +0.212 C 
ATOM     16  N   UNL     1     -29.957 -27.662  22.789  0.00  0.00    -0.300 N 
ATOM     17  H   UNL     1     -29.245 -28.151  22.285  0.00  0.00    +0.180 HD
ATOM     18  H   UNL     1     -30.830 -28.109  22.982  0.00  0.00    +0.180 HD
ATOM     19  O   UNL     1     -30.564 -25.753  23.835  0.00  0.00    -0.387 OA
ENDBRANCH  14  15
ENDBRANCH  10  11
BRANCH   7   6
ATOM      4  N   UNL     1     -23.557 -31.915  19.556  0.00  0.00    -0.274 N 
ATOM      5  H   UNL     1     -24.043 -32.097  20.411  0.00  0.00    +0.187 HD
ATOM      6  C   UNL     1     -23.342 -30.645  19.206  0.00  0.00    +0.211 C 
ATOM     26  O   UNL     1     -22.737 -30.306  18.190  0.00  0.00    -0.390 OA
BRANCH   4   3
ATOM      3  C   UNL     1     -23.113 -33.064  18.743  0.00  0.00    +0.211 C 
BRANCH   3   2
ATOM      1  C   UNL     1     -20.617 -32.605  18.528  0.00  0.00    +0.048 A 
ATOM      2  C   UNL     1     -21.647 -33.446  18.945  0.00  0.00    -0.004 A 
ATOM     27  C   UNL     1     -21.327 -34.698  19.466  0.00  0.00    +0.029 A 
ATOM     28  C   UNL     1     -19.987 -35.057  19.605  0.00  0.00    +0.080 A 
ATOM     29  N   UNL     1     -19.019 -34.226  19.232  0.00  0.00    -0.292 NA
ATOM     30  C   UNL     1     -19.294 -33.017  18.698  0.00  0.00    +0.110 A 
ATOM     31 CL   UNL     1     -18.001 -31.973  18.220  0.00  0.00    -0.042 Cl
ENDBRANCH   3   2
ENDBRANCH   4   3
ENDBRANCH   7   6
TORSDOF 5
