REMARK  Name = 5JQ8
REMARK  9 active torsions:
REMARK  status: ('A' for Active; 'I' for Inactive)
REMARK    1  A    between atoms: O_1  and  C_2
REMARK    2  A    between atoms: C_7  and  C_8
REMARK    3  A    between atoms: C_8  and  N_9
REMARK    4  A    between atoms: C_12  and  N_22
REMARK    5  A    between atoms: C_16  and  C_17
REMARK    6  A    between atoms: C_17  and  C_18
REMARK    7  A    between atoms: C_17  and  C_19
REMARK    8  A    between atoms: N_22  and  C_23
REMARK    9  A    between atoms: C_23  and  C_24
REMARK                            x       y       z     vdW  Elec       q    Type
REMARK                         _______ _______ _______ _____ _____    ______ ____
ROOT
ATOM      6  N   UNL     1       0.279  -9.218 -26.627  0.00  0.00    -0.233 N 
ATOM      7  H   UNL     1       0.995 -10.012 -26.582  0.00  0.00    +0.291 HD
ATOM      8  C   UNL     1       0.652  -8.042 -27.214  0.00  0.00    +0.319 C 
ATOM      9  N   UNL     1      -0.165  -6.957 -27.193  0.00  0.00    -0.017 NA
ATOM     10  C   UNL     1       0.308  -5.809 -27.808  0.00  0.00    +0.416 C 
ATOM     11  C   UNL     1      -0.320  -4.608 -27.945  0.00  0.00    +0.055 C 
ATOM     15  C   UNL     1       0.466  -3.634 -28.601  0.00  0.00    +0.119 C 
ATOM     16  N   UNL     1       1.616  -4.314 -28.952  0.00  0.00    -0.196 N 
ATOM     17  H   UNL     1       2.452  -3.931 -29.499  0.00  0.00    +0.194 HD
ATOM     18  N   UNL     1       1.458  -5.628 -28.436  0.00  0.00    -0.069 N 
ATOM     19  C   UNL     1       2.307  -6.665 -28.475  0.00  0.00    +0.291 C 
ATOM     29  C   UNL     1       1.889  -7.889 -27.862  0.00  0.00    +0.193 C 
ENDROOT
BRANCH  11  12
ATOM     12  C   UNL     1      -1.613  -4.654 -27.189  0.00  0.00    +0.019 C 
ATOM     13  C   UNL     1      -2.932  -4.990 -27.883  0.00  0.00    +0.012 C 
ATOM     14  C   UNL     1      -1.665  -3.797 -25.914  0.00  0.00    +0.012 C 
ENDBRANCH  11  12
BRANCH  19  20
ATOM     20  N   UNL     1       3.514  -6.565 -29.087  0.00  0.00    -0.233 N 
ATOM     21  H   UNL     1       3.690  -5.817 -29.832  0.00  0.00    +0.291 HD
BRANCH  20  22
ATOM     22  C   UNL     1       4.587  -7.520 -28.698  0.00  0.00    +0.259 C 
BRANCH  22  23
ATOM     23  C   UNL     1       4.702  -8.666 -29.708  0.00  0.00    -0.008 A 
ATOM     24  C   UNL     1       5.052  -8.403 -31.024  0.00  0.00    +0.007 A 
ATOM     25  C   UNL     1       5.146  -9.421 -31.978  0.00  0.00    +0.000 A 
ATOM     26  C   UNL     1       4.885 -10.749 -31.632  0.00  0.00    +0.000 A 
ATOM     27  C   UNL     1       4.519 -11.033 -30.294  0.00  0.00    +0.000 A 
ATOM     28  C   UNL     1       4.426  -9.985 -29.348  0.00  0.00    +0.007 A 
ENDBRANCH  22  23
ENDBRANCH  20  22
ENDBRANCH  19  20
BRANCH   6   5
ATOM      5  C   UNL     1      -1.053  -9.450 -26.055  0.00  0.00    +0.229 C 
BRANCH   5   4
ATOM      3  C   UNL     1      -0.660  -8.950 -23.511  0.00  0.00    +0.135 C 
ATOM      4  C   UNL     1      -1.113  -9.956 -24.596  0.00  0.00    +0.060 C 
ATOM     30  C   UNL     1      -2.566 -10.380 -24.332  0.00  0.00    +0.025 C 
ATOM     31  C   UNL     1      -3.551  -9.197 -24.132  0.00  0.00    +0.081 C 
ATOM     32  N   UNL     1      -2.986  -8.218 -23.205  0.00  0.00    -0.314 NA
ATOM     33  H   UNL     1      -3.623  -7.358 -23.219  0.00  0.00    +0.122 HD
ATOM     34  C   UNL     1      -1.608  -7.754 -23.466  0.00  0.00    +0.112 C 
BRANCH   3   1
ATOM      1  O   UNL     1      -0.631  -9.564 -22.167  0.00  0.00    -0.390 OA
ATOM      2  H   UNL     1      -0.291  -8.859 -21.467  0.00  0.00    +0.210 HD
ENDBRANCH   3   1
ENDBRANCH   5   4
ENDBRANCH   6   5
TORSDOF 7
