REMARK  Name = 3kc3_ligand
REMARK  2 active torsions:
REMARK  status: ('A' for Active; 'I' for Inactive)
REMARK    1  A    between atoms: C14_14  and  N25_25
REMARK    2  A    between atoms: C16_16  and  C17_17
REMARK                            x       y       z     vdW  Elec       q    Type
REMARK                         _______ _______ _______ _____ _____    ______ ____
ROOT
ATOM      7  C   UNL     1      -6.433  57.055 -10.284  0.00  0.00    +0.039 A 
ATOM      8  C   UNL     1      -5.341  57.275 -11.097  0.00  0.00    +0.092 A 
ATOM      9  N   UNL     1      -4.560  58.363 -11.272  0.00  0.00    -0.215 N 
ATOM     10  H   UNL     1      -4.638  59.275 -10.799  0.00  0.00    +0.245 HD
ATOM     11  N   UNL     1      -3.656  57.994 -12.201  0.00  0.00    -0.208 NA
ATOM     12  C   UNL     1      -3.819  56.705 -12.641  0.00  0.00    +0.087 A 
ATOM     13  C   UNL     1      -4.913  56.234 -11.946  0.00  0.00    +0.001 A 
ATOM     14  C   UNL     1      -5.457  54.972 -12.109  0.00  0.00    +0.007 A 
ATOM     15  C   UNL     1      -6.540  54.784 -11.270  0.00  0.00    +0.054 A 
ATOM     27  C   UNL     1      -6.983  55.784 -10.414  0.00  0.00    +0.020 A 
ENDROOT
BRANCH  15  16
ATOM     16  N   UNL     1      -7.239  53.582 -11.266  0.00  0.00    -0.262 N 
ATOM     17  H   UNL     1      -8.005  53.505 -10.582  0.00  0.00    +0.213 HD
ATOM     18  C   UNL     1      -7.028  52.468 -12.077  0.00  0.00    +0.131 A 
ATOM     19  N   UNL     1      -6.279  52.441 -13.199  0.00  0.00    -0.239 NA
ATOM     20  C   UNL     1      -6.177  51.260 -13.867  0.00  0.00    +0.171 A 
ATOM     21  N   UNL     1      -6.743  50.098 -13.505  0.00  0.00    -0.273 NA
ATOM     22  C   UNL     1      -7.463  50.171 -12.383  0.00  0.00    +0.084 A 
ATOM     23  N   UNL     1      -5.428  51.215 -15.052  0.00  0.00    -0.306 N 
ATOM     24  H   UNL     1      -4.967  52.067 -15.402  0.00  0.00    +0.182 HD
ATOM     25  H   UNL     1      -5.339  50.330 -15.572  0.00  0.00    +0.182 HD
ATOM     26  C   UNL     1      -7.645  51.323 -11.639  0.00  0.00    +0.054 A 
ENDBRANCH  15  16
BRANCH   7   6
ATOM      1  C   UNL     1      -8.263  61.611  -6.908  0.00  0.00    -0.024 A 
ATOM      2  C   UNL     1      -8.813  60.469  -7.432  0.00  0.00    -0.016 A 
ATOM      3  C   UNL     1      -7.973  59.662  -8.180  0.00  0.00    -0.010 A 
ATOM      4  C   UNL     1      -6.644  60.042  -8.371  0.00  0.00    +0.123 A 
ATOM      5  O   UNL     1      -5.980  59.121  -9.135  0.00  0.00    -0.254 OA
ATOM      6  C   UNL     1      -6.904  58.140  -9.438  0.00  0.00    +0.121 A 
ATOM     28  C   UNL     1      -6.068  61.186  -7.857  0.00  0.00    +0.025 A 
ATOM     29  C   UNL     1      -8.142  58.430  -8.880  0.00  0.00    -0.004 A 
ATOM     30  C   UNL     1      -6.946  61.961  -7.110  0.00  0.00    -0.019 A 
ENDBRANCH   7   6
TORSDOF 2
