REMARK  Name = 2vu3_ligand
REMARK  4 active torsions:
REMARK  status: ('A' for Active; 'I' for Inactive)
REMARK    1  A    between atoms: C5_3  and  N6_4
REMARK    2  A    between atoms: C7_5  and  C9_7
REMARK    3  A    between atoms: C13_11  and  N14_12
REMARK    4  A    between atoms: C15_13  and  C17_15
REMARK                            x       y       z     vdW  Elec       q    Type
REMARK                         _______ _______ _______ _____ _____    ______ ____
ROOT
ATOM     11  C   UNL     1      27.875   5.318  64.682  0.00  0.00    +0.166 A 
ATOM     12  C   UNL     1      26.823   4.971  63.855  0.00  0.00    +0.101 A 
ATOM     25  C   UNL     1      26.602   3.628  64.073  0.00  0.00    +0.100 A 
ATOM     26  N   UNL     1      27.514   3.211  64.997  0.00  0.00    -0.215 NA
ATOM     27  N   UNL     1      28.305   4.237  65.403  0.00  0.00    -0.219 N 
ATOM     28  H   UNL     1      29.062   4.208  66.100  0.00  0.00    +0.249 HD
ENDROOT
BRANCH  11  10
ATOM      8  N   UNL     1      29.637   6.757  65.453  0.00  0.00    -0.286 N 
ATOM      9  H   UNL     1      29.990   5.947  65.921  0.00  0.00    +0.184 HD
ATOM     10  C   UNL     1      28.462   6.660  64.777  0.00  0.00    +0.213 C 
ATOM     29  O   UNL     1      27.891   7.633  64.255  0.00  0.00    -0.398 OA
BRANCH   8   7
ATOM      1  C   UNL     1      32.219   9.390  64.490  0.00  0.00    +0.131 C 
ATOM      2  N   UNL     1      32.852   9.543  65.830  0.00  0.00    +0.227 N 
ATOM      3  H   UNL     1      33.529   8.806  65.954  0.00  0.00    +0.201 HD
ATOM      4  H   UNL     1      33.317  10.436  65.868  0.00  0.00    +0.201 HD
ATOM      5  C   UNL     1      31.859   9.473  66.942  0.00  0.00    +0.131 C 
ATOM      6  C   UNL     1      31.086   8.157  66.888  0.00  0.00    +0.078 C 
ATOM      7  C   UNL     1      30.404   7.998  65.523  0.00  0.00    +0.106 C 
ATOM     30  C   UNL     1      31.444   8.072  64.403  0.00  0.00    +0.078 C 
ENDBRANCH   8   7
ENDBRANCH  11  10
BRANCH  12  13
ATOM     13  N   UNL     1      26.196   5.871  62.995  0.00  0.00    -0.244 N 
ATOM     14  H   UNL     1      26.394   6.843  63.121  0.00  0.00    +0.218 HD
ATOM     15  C   UNL     1      25.344   5.534  62.007  0.00  0.00    +0.227 C 
ATOM     24  O   UNL     1      24.948   4.381  61.836  0.00  0.00    -0.376 OA
BRANCH  15  16
ATOM     16  C   UNL     1      24.848   6.666  61.166  0.00  0.00    +0.082 A 
ATOM     17  C   UNL     1      25.703   7.365  60.331  0.00  0.00    +0.061 A 
ATOM     18 CL   UNL     1      27.347   6.866  60.191  0.00  0.00    -0.065 Cl
ATOM     19  C   UNL     1      25.256   8.441  59.575  0.00  0.00    +0.021 A 
ATOM     20  C   UNL     1      23.930   8.827  59.651  0.00  0.00    +0.008 A 
ATOM     21  C   UNL     1      23.068   8.154  60.498  0.00  0.00    +0.021 A 
ATOM     22  C   UNL     1      23.539   7.076  61.250  0.00  0.00    +0.061 A 
ATOM     23 CL   UNL     1      22.461   6.237  62.299  0.00  0.00    -0.065 Cl
ENDBRANCH  15  16
ENDBRANCH  12  13
TORSDOF 4
