REMARK  Name = 4FV1
REMARK  8 active torsions:
REMARK  status: ('A' for Active; 'I' for Inactive)
REMARK    1  A    between atoms: C_2  and  CA_13
REMARK    2  A    between atoms: N_3  and  CA_4
REMARK    3  A    between atoms: CA_4  and  C_5
REMARK    4  A    between atoms: CA_4  and  C_11
REMARK    5  A    between atoms: C_11  and  O_12
REMARK    6  A    between atoms: C_17  and  C_18
REMARK    7  A    between atoms: C_22  and  C_23
REMARK    8  A    between atoms: C_28  and  C_29
REMARK                            x       y       z     vdW  Elec       q    Type
REMARK                         _______ _______ _______ _____ _____    ______ ____
ROOT
ATOM      3  CA  UNL     1      17.578   4.116  16.877  0.00  0.00    +0.102 A 
ATOM      4  N   UNL     1      18.173   3.264  17.776  0.00  0.00    -0.356 N 
ATOM      5  H   UNL     1      18.051   3.523  18.750  0.00  0.00    +0.166 HD
ATOM      6  C   UNL     1      19.485   3.190  17.418  0.00  0.00    +0.093 A 
ATOM      7  C   UNL     1      19.760   3.969  16.312  0.00  0.00    +0.018 A 
ATOM     24  C   UNL     1      18.516   4.592  15.986  0.00  0.00    +0.042 A 
ENDROOT
BRANCH   7   8
ATOM      8  C   UNL     1      21.022   4.170  15.735  0.00  0.00    +0.075 A 
ATOM      9  C   UNL     1      21.583   5.167  14.818  0.00  0.00    +0.027 A 
ATOM     20  C   UNL     1      22.922   4.775  14.685  0.00  0.00    +0.143 A 
ATOM     21  N   UNL     1      23.214   3.705  15.410  0.00  0.00    -0.181 NA
ATOM     22  N   UNL     1      22.062   3.366  16.050  0.00  0.00    -0.276 N 
ATOM     23  H   UNL     1      21.908   2.363  16.068  0.00  0.00    +0.189 HD
BRANCH   9  10
ATOM     10  C   UNL     1      21.031   6.371  14.144  0.00  0.00    -0.014 A 
ATOM     11  C   UNL     1      21.350   6.646  12.818  0.00  0.00    +0.008 A 
ATOM     12  C   UNL     1      20.823   7.764  12.189  0.00  0.00    +0.001 A 
ATOM     13  C   UNL     1      19.962   8.605  12.875  0.00  0.00    +0.012 A 
ATOM     14  C   UNL     1      19.625   8.346  14.198  0.00  0.00    +0.055 A 
ATOM     19  C   UNL     1      20.182   7.237  14.831  0.00  0.00    +0.021 A 
BRANCH  14  15
ATOM     15  C   UNL     1      18.609   9.185  14.913  0.00  0.00    +0.417 C 
ATOM     16  F   UNL     1      17.562   8.499  15.289  0.00  0.00    -0.166 F 
ATOM     17  F   UNL     1      19.074   9.747  16.019  0.00  0.00    -0.166 F 
ATOM     18  F   UNL     1      18.124  10.174  14.180  0.00  0.00    -0.166 F 
ENDBRANCH  14  15
ENDBRANCH   9  10
ENDBRANCH   7   8
BRANCH   3   2
ATOM      1  O   UNL     1      15.418   3.800  17.812  0.00  0.00    -0.269 OA
ATOM      2  C   UNL     1      16.106   4.353  16.952  0.00  0.00    +0.261 C 
ATOM     25  N   UNL     1      15.589   5.180  16.029  0.00  0.00    -0.301 N 
ATOM     26  H   UNL     1      16.100   5.446  15.193  0.00  0.00    +0.150 HD
BRANCH  25  27
ATOM     27  CA  UNL     1      14.242   5.733  16.140  0.00  0.00    +0.129 C 
BRANCH  27  31
ATOM     31  C   UNL     1      14.120   6.775  17.232  0.00  0.00    -0.025 A 
ATOM     32  C   UNL     1      12.896   7.010  17.840  0.00  0.00    +0.005 A 
ATOM     33  C   UNL     1      12.709   8.123  18.642  0.00  0.00    +0.000 A 
ATOM     34  C   UNL     1      13.743   9.013  18.847  0.00  0.00    +0.000 A 
ATOM     35  C   UNL     1      14.979   8.760  18.298  0.00  0.00    +0.000 A 
ATOM     36  C   UNL     1      15.172   7.641  17.505  0.00  0.00    +0.005 A 
ENDBRANCH  27  31
BRANCH  27  28
ATOM     28  C   UNL     1      13.869   6.416  14.830  0.00  0.00    +0.183 C 
BRANCH  28  29
ATOM     29  O   UNL     1      14.142   5.588  13.710  0.00  0.00    -0.393 OA
ATOM     30  H   UNL     1      13.450   5.801  13.031  0.00  0.00    +0.209 HD
ENDBRANCH  28  29
ENDBRANCH  27  28
ENDBRANCH  25  27
ENDBRANCH   3   2
TORSDOF 8
