REMARK  Name = 3k54_ligand
REMARK  8 active torsions:
REMARK  status: ('A' for Active; 'I' for Inactive)
REMARK    1  A    between atoms: C2_2  and  C3_3
REMARK    2  A    between atoms: N6_4  and  C20_16
REMARK    3  A    between atoms: C9_7  and  C10_8
REMARK    4  A    between atoms: C11_9  and  N_18
REMARK    5  A    between atoms: C14_12  and  C15_13
REMARK    6  A    between atoms: C20_16  and  C21_17
REMARK    7  A    between atoms: C21_17  and  O1_33
REMARK    8  A    between atoms: N2_22  and  C4_23
REMARK                            x       y       z     vdW  Elec       q    Type
REMARK                         _______ _______ _______ _____ _____    ______ ____
ROOT
ATOM      1  C   UNL     1     -14.295  -4.439   1.132  0.00  0.00    +0.055 A 
ATOM      2  N   UNL     1     -14.583  -4.544  -0.200  0.00  0.00    -0.298 NA
ATOM      3  C   UNL     1     -15.885  -4.734  -0.475  0.00  0.00    +0.212 A 
ATOM      4  S   UNL     1     -16.894  -4.812   0.977  0.00  0.00    +0.035 S 
ATOM      5  N   UNL     1     -16.299  -4.852  -1.760  0.00  0.00    -0.217 N 
ATOM      6  H   UNL     1     -15.594  -4.844  -2.511  0.00  0.00    +0.230 HD
ATOM     25  C   UNL     1     -15.433  -4.554   1.940  0.00  0.00    +0.113 A 
ENDROOT
BRANCH   5   7
ATOM      7  C   UNL     1     -17.621  -4.981  -2.097  0.00  0.00    +0.135 A 
ATOM      8  N   UNL     1     -18.586  -5.023  -1.154  0.00  0.00    -0.266 NA
ATOM      9  C   UNL     1     -19.906  -5.166  -1.450  0.00  0.00    +0.070 A 
ATOM     10  N   UNL     1     -20.288  -5.275  -2.736  0.00  0.00    -0.270 NA
ATOM     11  C   UNL     1     -19.346  -5.240  -3.695  0.00  0.00    +0.109 A 
ATOM     12  N   UNL     1     -19.817  -5.326  -4.973  0.00  0.00    -0.282 N 
ATOM     13  C   UNL     1     -21.212  -5.786  -5.120  0.00  0.00    +0.187 C 
ATOM     14  C   UNL     1     -21.593  -5.788  -6.592  0.00  0.00    +0.156 C 
ATOM     15  N   UNL     1     -20.483  -6.345  -7.355  0.00  0.00    +0.240 N 
ATOM     16  H   UNL     1     -20.521  -5.552  -7.976  0.00  0.00    +0.204 HD
ATOM     17  C   UNL     1     -19.079  -6.053  -7.052  0.00  0.00    +0.156 C 
ATOM     22  C   UNL     1     -18.971  -4.914  -6.067  0.00  0.00    +0.187 C 
ATOM     23  C   UNL     1     -20.956  -5.209  -0.363  0.00  0.00    +0.135 C 
ATOM     24  C   UNL     1     -17.988  -5.086  -3.420  0.00  0.00    +0.073 A 
BRANCH  15  18
ATOM     18  C   UNL     1     -20.736  -7.257  -8.467  0.00  0.00    +0.159 C 
BRANCH  18  19
ATOM     19  C   UNL     1     -21.936  -8.095  -8.050  0.00  0.00    +0.206 C 
BRANCH  19  20
ATOM     20  O   UNL     1     -23.106  -7.451  -8.591  0.00  0.00    -0.390 OA
ATOM     21  H   UNL     1     -23.879  -7.948  -8.350  0.00  0.00    +0.210 HD
ENDBRANCH  19  20
ENDBRANCH  18  19
ENDBRANCH  15  18
ENDBRANCH   5   7
BRANCH  25  26
ATOM     26  C   UNL     1     -15.572  -4.520   3.419  0.00  0.00    +0.226 C 
ATOM     27  O   UNL     1     -16.692  -4.686   3.868  0.00  0.00    -0.386 OA
ATOM     28  N   UNL     1     -14.484  -4.278   4.173  0.00  0.00    -0.238 N 
ATOM     29  H   UNL     1     -13.613  -4.095   3.717  0.00  0.00    +0.223 HD
BRANCH  28  30
ATOM     30  C   UNL     1     -14.525  -4.273   5.547  0.00  0.00    +0.082 A 
ATOM     31  C   UNL     1     -14.793  -3.077   6.234  0.00  0.00    +0.053 A 
ATOM     32 CL   UNL     1     -15.097  -1.569   5.320  0.00  0.00    -0.085 Cl
ATOM     33  C   UNL     1     -14.823  -2.992   7.634  0.00  0.00    -0.016 A 
ATOM     34  C   UNL     1     -14.587  -4.128   8.407  0.00  0.00    -0.036 A 
ATOM     35  C   UNL     1     -14.314  -5.318   7.738  0.00  0.00    -0.022 A 
ATOM     36  C   UNL     1     -14.294  -5.397   6.333  0.00  0.00    -0.024 A 
ATOM     37  C   UNL     1     -13.997  -6.756   5.740  0.00  0.00    +0.074 C 
ENDBRANCH  28  30
ENDBRANCH  25  26
TORSDOF 6
