REMARK  Name = 2jbp_ligand
REMARK  2 active torsions:
REMARK  status: ('A' for Active; 'I' for Inactive)
REMARK    1  A    between atoms: C18_10  and  C14_11
REMARK    2  A    between atoms: C12_16  and  C2_17
REMARK                            x       y       z     vdW  Elec       q    Type
REMARK                         _______ _______ _______ _____ _____    ______ ____
ROOT
ATOM      3  C   UNL     1      30.355  64.179 192.801  0.00  0.00    +0.049 A 
ATOM      4  N   UNL     1      31.316  65.100 192.987  0.00  0.00    -0.303 NA
ATOM      5  C   UNL     1      31.554  66.064 192.114  0.00  0.00    +0.080 A 
ATOM      6  C   UNL     1      30.803  66.160 190.947  0.00  0.00    +0.030 A 
ATOM      7  C   UNL     1      29.791  65.239 190.703  0.00  0.00    +0.008 A 
ATOM     20  C   UNL     1      29.576  64.237 191.646  0.00  0.00    +0.040 A 
ENDROOT
BRANCH   7   8
ATOM      8  C   UNL     1      28.958  65.370 189.594  0.00  0.00    +0.064 A 
ATOM      9  N   UNL     1      27.820  64.706 189.397  0.00  0.00    -0.271 N 
ATOM     10  H   UNL     1      27.420  64.001 190.033  0.00  0.00    +0.235 HD
ATOM     11  C   UNL     1      27.284  65.101 188.245  0.00  0.00    +0.072 A 
ATOM     12  C   UNL     1      25.917  64.751 187.658  0.00  0.00    +0.133 C 
ATOM     13  C   UNL     1      25.914  64.953 186.142  0.00  0.00    +0.153 C 
ATOM     14  N   UNL     1      26.747  66.102 185.714  0.00  0.00    -0.290 N 
ATOM     15  H   UNL     1      26.532  66.542 184.842  0.00  0.00    +0.184 HD
ATOM     16  C   UNL     1      27.818  66.605 186.463  0.00  0.00    +0.175 C 
ATOM     17  O   UNL     1      28.490  67.519 185.987  0.00  0.00    -0.404 OA
ATOM     18  C   UNL     1      28.139  66.041 187.694  0.00  0.00    +0.041 A 
ATOM     19  C   UNL     1      29.146  66.182 188.554  0.00  0.00    -0.019 A 
ENDBRANCH   7   8
BRANCH   3   2
ATOM      1  C   UNL     1      28.947  62.548 193.948  0.00  0.00    +0.056 A 
ATOM      2  C   UNL     1      30.166  63.200 193.777  0.00  0.00    +0.027 A 
ATOM     21  C   UNL     1      31.193  62.889 194.665  0.00  0.00    +0.110 A 
ATOM     22  N   UNL     1      31.022  62.014 195.642  0.00  0.00    -0.293 NA
ATOM     23  C   UNL     1      29.857  61.379 195.832  0.00  0.00    +0.048 A 
ATOM     24  C   UNL     1      29.723  60.451 196.860  0.00  0.00    +0.026 A 
ATOM     25  C   UNL     1      28.520  59.777 197.033  0.00  0.00    +0.010 A 
ATOM     26  C   UNL     1      27.444  60.033 196.186  0.00  0.00    +0.009 A 
ATOM     27  C   UNL     1      27.576  60.963 195.160  0.00  0.00    +0.021 A 
ATOM     28  C   UNL     1      28.784  61.632 194.983  0.00  0.00    +0.009 A 
ENDBRANCH   3   2
TORSDOF 2
