REMARK  Name = 4eh3_ligand
REMARK  4 active torsions:
REMARK  status: ('A' for Active; 'I' for Inactive)
REMARK    1  A    between atoms: C2_2  and  O4_19
REMARK    2  A    between atoms: C4_4  and  O5_20
REMARK    3  A    between atoms: C9_9  and  C10_12
REMARK    4  A    between atoms: C13_15  and  O3_18
REMARK                            x       y       z     vdW  Elec       q    Type
REMARK                         _______ _______ _______ _____ _____    ______ ____
ROOT
ATOM      1  C   UNL     1      -1.416  -0.874 -23.960  0.00  0.00    +0.030 A 
ATOM      2  C   UNL     1      -2.122  -0.057 -23.078  0.00  0.00    +0.099 A 
ATOM      3  O   UNL     1      -2.979  -0.587 -22.145  0.00  0.00    -0.301 OA
ATOM      4  C   UNL     1      -2.668   0.007 -20.836  0.00  0.00    +0.208 C 
ATOM     13  C   UNL     1      -3.024   1.527 -20.853  0.00  0.00    +0.162 C 
ATOM     14  C   UNL     1      -2.650   2.105 -22.217  0.00  0.00    +0.119 C 
ATOM     15  O   UNL     1      -2.935   3.274 -22.466  0.00  0.00    -0.397 OA
ATOM     16  C   UNL     1      -1.949   1.329 -23.139  0.00  0.00    +0.079 A 
ATOM     17  C   UNL     1      -1.066   1.887 -24.064  0.00  0.00    +0.092 A 
ATOM     20  C   UNL     1      -0.364   1.071 -24.942  0.00  0.00    +0.029 A 
ATOM     21  C   UNL     1      -0.541  -0.305 -24.891  0.00  0.00    +0.076 A 
ENDROOT
BRANCH   4   5
ATOM      5  C   UNL     1      -3.316  -0.650 -19.611  0.00  0.00    -0.018 A 
ATOM      6  C   UNL     1      -2.529  -1.385 -18.725  0.00  0.00    -0.013 A 
ATOM      7  C   UNL     1      -3.115  -1.967 -17.603  0.00  0.00    +0.013 A 
ATOM      8  C   UNL     1      -4.485  -1.809 -17.379  0.00  0.00    +0.081 A 
ATOM     11  C   UNL     1      -5.271  -1.075 -18.260  0.00  0.00    +0.013 A 
ATOM     12  C   UNL     1      -4.682  -0.495 -19.377  0.00  0.00    -0.013 A 
BRANCH   8   9
ATOM      9  O   UNL     1      -5.068  -2.373 -16.293  0.00  0.00    -0.338 OA
ATOM     10  H   UNL     1      -6.006  -2.168 -16.292  0.00  0.00    +0.246 HD
ENDBRANCH   8   9
ENDBRANCH   4   5
BRANCH  17  18
ATOM     18  O   UNL     1      -0.883   3.226 -24.122  0.00  0.00    -0.333 OA
ATOM     19  H   UNL     1      -1.719   3.654 -24.320  0.00  0.00    +0.251 HD
ENDBRANCH  17  18
BRANCH  21  22
ATOM     22  O   UNL     1       0.153  -1.084 -25.762  0.00  0.00    -0.335 OA
ATOM     23  H   UNL     1      -0.068  -2.006 -25.611  0.00  0.00    +0.250 HD
ENDBRANCH  21  22
TORSDOF 4
