REMARK  Name = 5BM
REMARK  9 active torsions:
REMARK  status: ('A' for Active; 'I' for Inactive)
REMARK    1  A    between atoms: C01_1  and  C02_2
REMARK    2  A    between atoms: C01_1  and  C04_4
REMARK    3  A    between atoms: C01_1  and  C21_14
REMARK    4  A    between atoms: C04_4  and  S06_6
REMARK    5  A    between atoms: S06_6  and  C07_7
REMARK    6  A    between atoms: C21_14  and  C22_15
REMARK    7  A    between atoms: C21_14  and  C24_17
REMARK    8  A    between atoms: C24_17  and  S26_19
REMARK    9  A    between atoms: S26_19  and  C27_20
REMARK                            x       y       z     vdW  Elec       q    Type
REMARK                         _______ _______ _______ _____ _____    ______ ____
ROOT
ATOM      1  C   UNL     1      -1.393  57.214  33.810  0.00  0.00    +0.136 C 
ENDROOT
BRANCH   1  15
ATOM     15  C   UNL     1      -0.303  56.297  33.879  0.00  0.00    +0.076 C 
ATOM     16  N   UNL     1       0.578  55.565  33.935  0.00  0.00    -0.196 NA
ENDBRANCH   1  15
BRANCH   1  17
ATOM     17  C   UNL     1      -2.605  56.698  33.533  0.00  0.00    +0.158 C 
ATOM     18  N   UNL     1      -3.814  57.341  33.422  0.00  0.00    -0.120 NA
BRANCH  17  19
ATOM     19  S   UNL     1      -2.768  54.950  33.291  0.00  0.00    -0.093 S 
BRANCH  19  20
ATOM     20  C   UNL     1      -3.705  54.644  31.811  0.00  0.00    +0.043 A 
ATOM     21  C   UNL     1      -4.821  53.763  31.845  0.00  0.00    +0.095 A 
ATOM     22  N   UNL     1      -5.211  53.170  32.985  0.00  0.00    -0.128 NA
ATOM     23  C   UNL     1      -5.549  53.510  30.660  0.00  0.00    +0.019 A 
ATOM     24  C   UNL     1      -5.160  54.117  29.459  0.00  0.00    +0.001 A 
ATOM     25  C   UNL     1      -4.048  54.989  29.423  0.00  0.00    +0.001 A 
ATOM     26  C   UNL     1      -3.320  55.247  30.595  0.00  0.00    +0.007 A 
ENDBRANCH  19  20
ENDBRANCH  17  19
ENDBRANCH   1  17
BRANCH   1   2
ATOM      2  C   UNL     1      -1.174  58.479  34.454  0.00  0.00    +0.136 C 
BRANCH   2   3
ATOM      3  C   UNL     1      -2.002  58.730  35.589  0.00  0.00    +0.076 C 
ATOM      4  N   UNL     1      -2.719  58.891  36.504  0.00  0.00    -0.196 NA
ENDBRANCH   2   3
BRANCH   2   5
ATOM      5  C   UNL     1      -0.073  59.234  34.207  0.00  0.00    +0.158 C 
ATOM     14  N   UNL     1       0.836  59.121  33.146  0.00  0.00    -0.120 NA
BRANCH   5   6
ATOM      6  S   UNL     1       0.396  60.536  35.257  0.00  0.00    -0.093 S 
BRANCH   6   7
ATOM      7  C   UNL     1       1.236  61.750  34.337  0.00  0.00    +0.043 A 
ATOM      8  C   UNL     1       2.634  61.737  34.362  0.00  0.00    +0.007 A 
ATOM      9  C   UNL     1       3.347  62.694  33.661  0.00  0.00    +0.001 A 
ATOM     10  C   UNL     1       2.668  63.681  32.930  0.00  0.00    +0.001 A 
ATOM     11  C   UNL     1       1.248  63.726  32.901  0.00  0.00    +0.019 A 
ATOM     12  C   UNL     1       0.512  62.755  33.610  0.00  0.00    +0.095 A 
ATOM     13  N   UNL     1      -0.836  62.792  33.587  0.00  0.00    -0.128 NA
ENDBRANCH   6   7
ENDBRANCH   5   6
ENDBRANCH   2   5
ENDBRANCH   1   2
TORSDOF 9
