REMARK  Name = 3cgo_ligand
REMARK  5 active torsions:
REMARK  status: ('A' for Active; 'I' for Inactive)
REMARK    1  A    between atoms: C01_1  and  N02_2
REMARK    2  A    between atoms: C03_3  and  C05_5
REMARK    3  A    between atoms: C05_5  and  N06_6
REMARK    4  A    between atoms: C09_9  and  N12_12
REMARK    5  A    between atoms: C15_15  and  C19_19
REMARK                            x       y       z     vdW  Elec       q    Type
REMARK                         _______ _______ _______ _____ _____    ______ ____
ROOT
ATOM     11  N   UNL     1      22.123   6.246  32.213  0.00  0.00    -0.288 N 
ATOM     12  H   UNL     1      21.879   5.271  32.439  0.00  0.00    +0.186 HD
ATOM     13  C   UNL     1      21.225   7.246  32.571  0.00  0.00    +0.177 A 
ATOM     14  N   UNL     1      19.993   6.920  33.036  0.00  0.00    -0.267 NA
ATOM     15  C   UNL     1      19.147   7.936  33.373  0.00  0.00    +0.088 A 
ATOM     16  C   UNL     1      19.460   9.276  33.263  0.00  0.00    +0.034 A 
ATOM     17  C   UNL     1      20.752   9.541  32.769  0.00  0.00    +0.064 A 
ATOM     27  N   UNL     1      21.635   8.536  32.420  0.00  0.00    -0.264 NA
ENDROOT
BRANCH  17  18
ATOM     18  C   UNL     1      21.227  10.932  32.567  0.00  0.00    +0.119 A 
ATOM     19  C   UNL     1      20.576  12.127  32.845  0.00  0.00    +0.056 A 
ATOM     20  N   UNL     1      21.317  13.235  32.532  0.00  0.00    -0.327 NA
ATOM     21  C   UNL     1      22.432  12.767  32.057  0.00  0.00    +0.145 A 
ATOM     22  C   UNL     1      23.594  13.455  31.557  0.00  0.00    +0.049 A 
ATOM     23  C   UNL     1      24.665  12.734  31.103  0.00  0.00    +0.012 A 
ATOM     24  C   UNL     1      24.671  11.268  31.105  0.00  0.00    +0.037 A 
ATOM     25  C   UNL     1      23.578  10.609  31.575  0.00  0.00    +0.212 A 
ATOM     26  N   UNL     1      22.453  11.345  32.050  0.00  0.00    -0.192 N 
ENDBRANCH  17  18
BRANCH  11  10
ATOM      6  N   UNL     1      25.402   5.907  29.508  0.00  0.00    +0.252 N 
ATOM      7  H   UNL     1      24.987   5.101  29.068  0.00  0.00    +0.205 HD
ATOM      8  C   UNL     1      25.641   5.573  30.950  0.00  0.00    +0.135 C 
ATOM      9  C   UNL     1      24.318   5.286  31.675  0.00  0.00    +0.079 C 
ATOM     10  C   UNL     1      23.385   6.496  31.539  0.00  0.00    +0.108 C 
ATOM     28  C   UNL     1      23.124   6.775  30.041  0.00  0.00    +0.079 C 
ATOM     29  C   UNL     1      24.460   7.047  29.338  0.00  0.00    +0.135 C 
BRANCH   6   5
ATOM      5  C   UNL     1      26.688   6.178  28.849  0.00  0.00    +0.271 C 
BRANCH   5   4
ATOM      1  C   UNL     1      26.805   2.486  28.498  0.00  0.00    +0.165 C 
ATOM      2  N   UNL     1      26.368   3.836  28.246  0.00  0.00    -0.286 N 
ATOM      3  H   UNL     1      25.400   4.010  28.063  0.00  0.00    +0.185 HD
ATOM      4  C   UNL     1      27.264   4.906  28.251  0.00  0.00    +0.221 C 
ATOM     30  O   UNL     1      28.416   4.849  27.817  0.00  0.00    -0.391 OA
ENDBRANCH   5   4
ENDBRANCH   6   5
ENDBRANCH  11  10
TORSDOF 4
