REMARK  Name = 5ISO
REMARK  5 active torsions:
REMARK  status: ('A' for Active; 'I' for Inactive)
REMARK    1  A    between atoms: C_4  and  N_34
REMARK    2  A    between atoms: C_5  and  O_32
REMARK    3  A    between atoms: C_6  and  C_7
REMARK    4  A    between atoms: O_32  and  C_33
REMARK    5  A    between atoms: N_34  and  C_35
REMARK                            x       y       z     vdW  Elec       q    Type
REMARK                         _______ _______ _______ _____ _____    ______ ____
ROOT
ATOM      1  O   UNL     1     -54.235 -24.232   7.285  0.00  0.00    -0.328 OA
ATOM      2  C   UNL     1     -53.308 -24.487   8.302  0.00  0.00    +0.174 C 
ATOM      3  N   UNL     1     -51.941 -24.739   7.797  0.00  0.00    -0.307 N 
ATOM      4  C   UNL     1     -50.697 -24.454   8.363  0.00  0.00    +0.053 A 
ATOM      5  C   UNL     1     -50.303 -23.807   9.550  0.00  0.00    +0.026 A 
ATOM      6  C   UNL     1     -48.945 -23.658   9.825  0.00  0.00    +0.002 A 
ATOM      7  C   UNL     1     -47.970 -24.134   8.962  0.00  0.00    +0.001 A 
ATOM      8  C   UNL     1     -48.319 -24.783   7.778  0.00  0.00    +0.010 A 
ATOM      9  C   UNL     1     -49.682 -24.934   7.494  0.00  0.00    +0.008 A 
ATOM     10  C   UNL     1     -50.349 -25.553   6.358  0.00  0.00    +0.015 A 
ATOM     11  C   UNL     1     -49.894 -26.188   5.207  0.00  0.00    -0.008 A 
ATOM     12  C   UNL     1     -48.502 -26.476   4.696  0.00  0.00    +0.141 C 
ATOM     13  N   UNL     1     -48.681 -27.173   3.420  0.00  0.00    -0.307 N 
ATOM     14  H   UNL     1     -47.891 -27.526   2.791  0.00  0.00    +0.149 HD
ATOM     15  C   UNL     1     -49.993 -27.299   3.165  0.00  0.00    +0.245 C 
ATOM     16  O   UNL     1     -50.431 -27.848   2.167  0.00  0.00    -0.270 OA
ATOM     17  C   UNL     1     -50.783 -26.690   4.262  0.00  0.00    +0.052 A 
ATOM     18  C   UNL     1     -52.178 -26.549   4.501  0.00  0.00    +0.022 A 
ATOM     19  C   UNL     1     -53.378 -26.944   3.775  0.00  0.00    +0.009 A 
ATOM     20  C   UNL     1     -53.548 -27.608   2.563  0.00  0.00    +0.010 A 
ATOM     21  C   UNL     1     -54.847 -27.827   2.147  0.00  0.00    +0.001 A 
ATOM     22  C   UNL     1     -55.935 -27.413   2.897  0.00  0.00    +0.002 A 
ATOM     23  C   UNL     1     -55.796 -26.750   4.105  0.00  0.00    +0.026 A 
ATOM     24  C   UNL     1     -54.490 -26.525   4.544  0.00  0.00    +0.052 A 
ATOM     25  N   UNL     1     -54.001 -25.917   5.692  0.00  0.00    -0.312 N 
ATOM     26  C   UNL     1     -52.643 -25.913   5.669  0.00  0.00    +0.077 A 
ATOM     27  C   UNL     1     -51.724 -25.410   6.602  0.00  0.00    +0.077 A 
ATOM     28  C   UNL     1     -53.389 -23.194   9.121  0.00  0.00    +0.069 C 
ATOM     29  C   UNL     1     -53.727 -25.633   9.240  0.00  0.00    +0.187 C 
ATOM     32  C   UNL     1     -55.244 -25.850   9.112  0.00  0.00    +0.091 C 
ATOM     36  C   UNL     1     -55.572 -26.274   7.665  0.00  0.00    +0.076 C 
ATOM     37  C   UNL     1     -54.879 -25.317   6.695  0.00  0.00    +0.224 C 
ENDROOT
BRANCH  32  33
ATOM     33  N   UNL     1     -55.690 -26.914  10.031  0.00  0.00    -0.314 NA
ATOM     34  H   UNL     1     -55.008 -27.737   9.986  0.00  0.00    +0.122 HD
ATOM     35  C   UNL     1     -55.724 -26.377  11.395  0.00  0.00    +0.101 C 
ENDBRANCH  32  33
BRANCH  29  30
ATOM     30  O   UNL     1     -53.121 -26.850   8.766  0.00  0.00    -0.374 OA
ATOM     31  C   UNL     1     -52.154 -27.352   9.692  0.00  0.00    +0.194 C 
ENDBRANCH  29  30
TORSDOF 2
