REMARK  Name = 1bl7_ligand
REMARK  3 active torsions:
REMARK  status: ('A' for Active; 'I' for Inactive)
REMARK    1  A    between atoms: CA6_6  and  ND1_21
REMARK    2  A    between atoms: CB6_12  and  CD4_24
REMARK    3  A    between atoms: CC2_15  and  CD5_25
REMARK                            x       y       z     vdW  Elec       q    Type
REMARK                         _______ _______ _______ _____ _____    ______ ____
ROOT
ATOM      9  N   UNL     1       1.358  13.997  29.661  0.00  0.00    -0.232 N 
ATOM     10  C   UNL     1       2.298  15.014  29.689  0.00  0.00    +0.240 A 
ATOM     11  N   UNL     1       3.624  14.774  29.743  0.00  0.00    -0.303 NA
ATOM     12  C   UNL     1       3.647  13.373  29.754  0.00  0.00    +0.046 A 
ATOM     20  C   UNL     1       2.243  12.875  29.698  0.00  0.00    +0.115 A 
ENDROOT
BRANCH  20  21
ATOM     21  C   UNL     1       1.766  11.509  29.687  0.00  0.00    +0.071 A 
ATOM     22  C   UNL     1       2.291  10.509  30.595  0.00  0.00    +0.043 A 
ATOM     23  C   UNL     1       1.737   9.202  30.473  0.00  0.00    +0.094 A 
ATOM     24  N   UNL     1       0.774   8.917  29.564  0.00  0.00    -0.263 NA
ATOM     25  C   UNL     1       0.349   9.899  28.772  0.00  0.00    +0.179 A 
ATOM     26  N   UNL     1      -0.583   9.605  27.902  0.00  0.00    -0.304 N 
ATOM     27  H   UNL     1      -0.944  10.332  27.268  0.00  0.00    +0.182 HD
ATOM     28  H   UNL     1      -0.956   8.646  27.851  0.00  0.00    +0.182 HD
ATOM     29  N   UNL     1       0.789  11.155  28.788  0.00  0.00    -0.258 NA
ENDBRANCH  20  21
BRANCH   9   8
ATOM      1  C   UNL     1      -0.715  13.934  31.048  0.00  0.00    +0.088 C 
ATOM      2  C   UNL     1      -2.256  14.053  31.045  0.00  0.00    +0.132 C 
ATOM      3  N   UNL     1      -2.775  15.293  30.348  0.00  0.00    +0.227 N 
ATOM      4  H   UNL     1      -3.770  15.183  30.232  0.00  0.00    +0.201 HD
ATOM      5  H   UNL     1      -2.592  16.080  30.951  0.00  0.00    +0.201 HD
ATOM      6  C   UNL     1      -2.191  15.613  28.992  0.00  0.00    +0.132 C 
ATOM      7  C   UNL     1      -0.646  15.436  28.968  0.00  0.00    +0.088 C 
ATOM      8  C   UNL     1      -0.146  14.102  29.615  0.00  0.00    +0.147 C 
ENDBRANCH   9   8
BRANCH  12  13
ATOM     13  C   UNL     1       4.889  12.662  29.869  0.00  0.00    -0.021 A 
ATOM     14  C   UNL     1       5.362  11.746  28.861  0.00  0.00    +0.001 A 
ATOM     15  C   UNL     1       6.589  11.063  29.013  0.00  0.00    +0.031 A 
ATOM     16  C   UNL     1       7.373  11.274  30.164  0.00  0.00    +0.131 A 
ATOM     17  C   UNL     1       6.940  12.169  31.176  0.00  0.00    +0.031 A 
ATOM     18  F   UNL     1       8.551  10.615  30.303  0.00  0.00    -0.184 F 
ATOM     19  C   UNL     1       5.711  12.856  31.030  0.00  0.00    +0.001 A 
ENDBRANCH  12  13
TORSDOF 3
