REMARK  Name = 1h07_ligand
REMARK  13 active torsions:
REMARK  status: ('A' for Active; 'I' for Inactive)
REMARK    1  A    between atoms: C3_5  and  N7_18
REMARK    2  A    between atoms: C11_6  and  C15_14
REMARK    3  A    between atoms: C8_9  and  N7_18
REMARK    4  A    between atoms: C16_12  and  N7_18
REMARK    5  A    between atoms: C20_15  and  N19_21
REMARK    6  A    between atoms: C23_23  and  O26_26
REMARK    7  A    between atoms: O26_26  and  C27_27
REMARK    8  A    between atoms: C27_27  and  C28_28
REMARK    9  A    between atoms: C28_28  and  C29_29
REMARK   10  A    between atoms: C28_28  and  O33_33
REMARK   11  A    between atoms: C29_29  and  N30_30
REMARK   12  A    between atoms: N30_30  and  C31_31
REMARK   13  A    between atoms: N30_30  and  C32_32
REMARK                            x       y       z     vdW  Elec       q    Type
REMARK                         _______ _______ _______ _____ _____    ______ ____
ROOT
ATOM     16  N   UNL     1       2.940  30.053   6.712  0.00  0.00    -0.262 N 
ATOM     17  H   UNL     1       3.515  30.684   6.136  0.00  0.00    +0.213 HD
ATOM     18  C   UNL     1       1.706  30.646   7.287  0.00  0.00    +0.139 A 
ATOM     19  N   UNL     1       1.427  31.937   7.036  0.00  0.00    -0.260 NA
ATOM     20  C   UNL     1       0.307  32.440   7.568  0.00  0.00    +0.171 A 
ATOM     21  N   UNL     1      -0.580  31.777   8.331  0.00  0.00    -0.253 NA
ATOM     22  C   UNL     1      -0.365  30.462   8.643  0.00  0.00    +0.177 A 
ATOM     35  C   UNL     1       0.796  29.852   8.115  0.00  0.00    +0.108 A 
ENDROOT
BRANCH  16  15
ATOM      1  C   UNL     1       4.559  26.648   6.084  0.00  0.00    +0.010 A 
ATOM      2  C   UNL     1       4.261  26.068   7.350  0.00  0.00    +0.080 A 
ATOM     13  C   UNL     1       3.583  26.799   8.318  0.00  0.00    +0.010 A 
ATOM     14  C   UNL     1       3.192  28.076   8.079  0.00  0.00    +0.005 A 
ATOM     15  C   UNL     1       3.444  28.689   6.858  0.00  0.00    +0.053 A 
ATOM     36  C   UNL     1       4.143  27.991   5.832  0.00  0.00    +0.005 A 
BRANCH   2   3
ATOM      3  O   UNL     1       4.616  24.759   7.655  0.00  0.00    -0.323 OA
BRANCH   3   4
ATOM      4  C   UNL     1       4.094  24.076   8.839  0.00  0.00    +0.226 C 
BRANCH   4   5
ATOM      5  C   UNL     1       4.611  22.654   8.944  0.00  0.00    +0.189 C 
BRANCH   5   6
ATOM      6  O   UNL     1       4.728  22.087   7.642  0.00  0.00    -0.384 OA
ATOM      7  H   UNL     1       3.911  22.203   7.172  0.00  0.00    +0.210 HD
ENDBRANCH   5   6
BRANCH   5   8
ATOM      8  C   UNL     1       5.918  22.490   9.750  0.00  0.00    +0.165 C 
BRANCH   8   9
ATOM      9  N   UNL     1       5.941  21.339  10.702  0.00  0.00    +0.233 N 
ATOM     10  H   UNL     1       5.101  20.818  10.504  0.00  0.00    +0.203 HD
ATOM     11  C   UNL     1       7.064  20.393  10.452  0.00  0.00    +0.190 C 
ATOM     12  C   UNL     1       5.835  21.724  12.139  0.00  0.00    +0.190 C 
ENDBRANCH   8   9
ENDBRANCH   5   8
ENDBRANCH   4   5
ENDBRANCH   3   4
ENDBRANCH   2   3
ENDBRANCH  16  15
BRANCH  22  23
ATOM     23  N   UNL     1      -1.380  29.680   9.513  0.00  0.00    -0.175 N 
BRANCH  23  27
ATOM     27  C   UNL     1      -1.165  28.267  10.079  0.00  0.00    +0.112 A 
ATOM     28  C   UNL     1      -1.672  27.108   9.406  0.00  0.00    +0.033 A 
ATOM     29  C   UNL     1      -1.483  25.800   9.960  0.00  0.00    -0.001 A 
ATOM     30  C   UNL     1      -0.783  25.633  11.190  0.00  0.00    -0.047 A 
ATOM     31  C   UNL     1      -0.578  24.247  11.799  0.00  0.00    +0.084 C 
ATOM     32  C   UNL     1      -0.279  26.768  11.855  0.00  0.00    +0.006 A 
ATOM     33  C   UNL     1      -0.463  28.062  11.312  0.00  0.00    +0.045 A 
ATOM     34 BR   UNL     1       0.252  29.517  12.297  0.00  0.00    -0.053 Br
ENDBRANCH  23  27
BRANCH  23  24
ATOM     24  C   UNL     1      -2.652  30.373   9.956  0.00  0.00    +0.277 C 
ATOM     25  C   UNL     1      -2.683  31.550  10.745  0.00  0.00    +0.043 C 
ATOM     26  N   UNL     1      -2.722  32.514  11.392  0.00  0.00    -0.417 NA
ENDBRANCH  23  24
ENDBRANCH  22  23
TORSDOF 10
