REMARK  Name = 97Z
REMARK  2 active torsions:
REMARK  status: ('A' for Active; 'I' for Inactive)
REMARK    1  A    between atoms: NAR_6  and  CAO_7
REMARK    2  A    between atoms: CAL_12  and  CAD_13
REMARK                            x       y       z     vdW  Elec       q    Type
REMARK                         _______ _______ _______ _____ _____    ______ ____
ROOT
ATOM      3  C   UNL     1      -6.619 -38.292   7.899  0.00  0.00    +0.048 A 
ATOM      4  C   UNL     1      -7.192 -39.143   8.840  0.00  0.00    +0.015 A 
ATOM      5  C   UNL     1      -7.269 -38.779  10.169  0.00  0.00    +0.004 A 
ATOM      6  C   UNL     1      -6.797 -37.546  10.637  0.00  0.00    +0.036 A 
ATOM     18  C   UNL     1      -6.170 -36.699   9.699  0.00  0.00    +0.004 A 
ATOM     19  C   UNL     1      -6.085 -37.072   8.353  0.00  0.00    +0.015 A 
ENDROOT
BRANCH   6   7
ATOM      7  C   UNL     1      -6.814 -37.243  12.004  0.00  0.00    +0.165 A 
ATOM      8  N   UNL     1      -7.603 -37.943  12.913  0.00  0.00    -0.189 NA
ATOM      9  C   UNL     1      -7.561 -37.702  14.260  0.00  0.00    +0.282 A 
ATOM     10  O   UNL     1      -8.340 -38.317  14.973  0.00  0.00    -0.265 OA
ATOM     11  C   UNL     1      -6.676 -36.703  14.734  0.00  0.00    +0.076 A 
ATOM     12  C   UNL     1      -6.548 -36.385  16.062  0.00  0.00    +0.006 A 
ATOM     13  C   UNL     1      -5.663 -35.361  16.476  0.00  0.00    +0.000 A 
ATOM     14  C   UNL     1      -4.937 -34.653  15.522  0.00  0.00    +0.002 A 
ATOM     15  C   UNL     1      -5.046 -34.995  14.177  0.00  0.00    +0.019 A 
ATOM     16  C   UNL     1      -5.917 -36.006  13.770  0.00  0.00    +0.088 A 
ATOM     17  N   UNL     1      -5.988 -36.296  12.470  0.00  0.00    -0.226 NA
ENDBRANCH   6   7
BRANCH   3   2
ATOM      1  C   UNL     1      -6.341 -40.109   6.274  0.00  0.00    +0.123 C 
ATOM      2  N   UNL     1      -6.573 -38.677   6.615  0.00  0.00    -0.303 N 
ATOM     20  C   UNL     1      -6.926 -37.739   5.517  0.00  0.00    +0.123 C 
ATOM     21  C   UNL     1      -6.136 -38.117   4.252  0.00  0.00    +0.164 C 
ATOM     22  O   UNL     1      -6.347 -39.531   3.988  0.00  0.00    -0.350 OA
ATOM     23  C   UNL     1      -5.679 -40.360   4.929  0.00  0.00    +0.164 C 
ENDBRANCH   3   2
TORSDOF 2
