REMARK  Name = 3f88_ligand
REMARK  4 active torsions:
REMARK  status: ('A' for Active; 'I' for Inactive)
REMARK    1  A    between atoms: C6_3  and  N9_20
REMARK    2  A    between atoms: C15_8  and  C18_15
REMARK    3  A    between atoms: C3_21  and  O2_22
REMARK    4  A    between atoms: O2_22  and  C1_23
REMARK                            x       y       z     vdW  Elec       q    Type
REMARK                         _______ _______ _______ _____ _____    ______ ____
ROOT
ATOM      8  N   UNL     1       4.858 -13.862  36.083  0.00  0.00    -0.199 N 
ATOM      9  C   UNL     1       5.680 -13.098  36.805  0.00  0.00    +0.100 A 
ATOM     10  C   UNL     1       4.952 -12.807  37.967  0.00  0.00    +0.037 A 
ATOM     11  N   UNL     1       3.734 -13.388  37.859  0.00  0.00    -0.303 NA
ATOM     12  C   UNL     1       5.512 -12.033  38.992  0.00  0.00    -0.004 A 
ATOM     13  C   UNL     1       6.812 -11.569  38.855  0.00  0.00    -0.011 A 
ATOM     14  C   UNL     1       7.519 -11.866  37.691  0.00  0.00    +0.020 A 
ATOM     22  C   UNL     1       6.981 -12.626  36.669  0.00  0.00    +0.030 A 
ATOM     23  C   UNL     1       3.674 -14.018  36.671  0.00  0.00    +0.255 A 
ENDROOT
BRANCH  14  15
ATOM     15  C   UNL     1       8.894 -11.391  37.542  0.00  0.00    +0.217 A 
ATOM     16  O   UNL     1       9.830 -12.064  36.805  0.00  0.00    -0.192 OA
ATOM     17  C   UNL     1      10.925 -11.297  36.961  0.00  0.00    +0.253 A 
ATOM     18  N   UNL     1      10.781 -10.223  37.749  0.00  0.00    -0.164 N 
ATOM     19  H   UNL     1      11.467  -9.541  38.003  0.00  0.00    +0.265 HD
ATOM     20  S   UNL     1      12.411 -11.709  36.189  0.00  0.00    -0.285 S 
ATOM     21  N   UNL     1       9.431 -10.290  38.130  0.00  0.00    -0.157 NA
ENDBRANCH  14  15
BRANCH   8   7
ATOM      1  C   UNL     1       4.167 -14.360  32.510  0.00  0.00    +0.015 A 
ATOM      2  C   UNL     1       5.184 -15.204  32.089  0.00  0.00    +0.083 A 
ATOM      5  C   UNL     1       6.136 -15.610  33.036  0.00  0.00    +0.015 A 
ATOM      6  C   UNL     1       6.066 -15.178  34.376  0.00  0.00    +0.018 A 
ATOM      7  C   UNL     1       5.049 -14.342  34.837  0.00  0.00    +0.086 A 
ATOM     24  C   UNL     1       4.138 -13.959  33.845  0.00  0.00    +0.018 A 
BRANCH   2   3
ATOM      3  O   UNL     1       5.210 -15.581  30.764  0.00  0.00    -0.326 OA
ATOM      4  C   UNL     1       5.944 -16.715  30.297  0.00  0.00    +0.230 C 
ENDBRANCH   2   3
ENDBRANCH   8   7
TORSDOF 3
