REMARK  Name = 0S6
REMARK  4 active torsions:
REMARK  status: ('A' for Active; 'I' for Inactive)
REMARK    1  A    between atoms: C12_7  and  C8_8
REMARK    2  A    between atoms: C20_23  and  C22_24
REMARK    3  A    between atoms: C22_24  and  C23_25
REMARK    4  A    between atoms: C23_25  and  O25_27
REMARK                            x       y       z     vdW  Elec       q    Type
REMARK                         _______ _______ _______ _____ _____    ______ ____
ROOT
ATOM      6  C   UNL     1      26.533  50.991  -2.614  0.00  0.00    +0.119 C 
ATOM      7  C   UNL     1      27.084  51.076  -1.241  0.00  0.00    +0.016 A 
ATOM      8  C   UNL     1      26.504  50.595  -0.149  0.00  0.00    +0.093 A 
ATOM      9  S   UNL     1      27.352  50.764   1.328  0.00  0.00    -0.074 S 
ATOM     10  C   UNL     1      28.669  51.513   0.456  0.00  0.00    +0.005 A 
ATOM     11  C   UNL     1      29.926  51.878   1.224  0.00  0.00    +0.038 C 
ATOM     12  N   UNL     1      25.164  50.022  -0.155  0.00  0.00    -0.274 N 
ATOM     13  C   UNL     1      24.613  48.956   0.615  0.00  0.00    +0.148 A 
ATOM     14  C   UNL     1      25.367  48.107   1.593  0.00  0.00    +0.074 C 
ATOM     15  N   UNL     1      23.296  48.883   0.301  0.00  0.00    -0.133 NA
ATOM     16  N   UNL     1      22.996  49.858  -0.646  0.00  0.00    -0.132 NA
ATOM     17  C   UNL     1      24.112  50.551  -0.884  0.00  0.00    +0.164 A 
ATOM     18  C   UNL     1      24.377  51.653  -1.866  0.00  0.00    +0.143 C 
ATOM     24  C   UNL     1      28.357  51.639  -0.924  0.00  0.00    -0.020 A 
ATOM     25  C   UNL     1      29.296  52.337  -1.828  0.00  0.00    +0.031 C 
ATOM     26  N   UNL     1      25.259  51.070  -2.893  0.00  0.00    -0.204 NA
ENDROOT
BRANCH   6   5
ATOM      1 CL   UNL     1      30.078  48.607  -6.835  0.00  0.00    -0.082 Cl
ATOM      2  C   UNL     1      29.062  49.310  -5.585  0.00  0.00    +0.058 A 
ATOM      3  C   UNL     1      29.298  48.973  -4.256  0.00  0.00    +0.011 A 
ATOM      4  C   UNL     1      28.495  49.570  -3.299  0.00  0.00    -0.002 A 
ATOM      5  C   UNL     1      27.457  50.428  -3.658  0.00  0.00    -0.002 A 
ATOM     27  C   UNL     1      27.238  50.746  -4.991  0.00  0.00    -0.002 A 
ATOM     28  C   UNL     1      28.065  50.162  -5.982  0.00  0.00    +0.011 A 
ENDBRANCH   6   5
BRANCH  18  19
ATOM     19  C   UNL     1      23.076  52.049  -2.470  0.00  0.00    +0.135 C 
BRANCH  19  20
ATOM     20  C   UNL     1      23.321  53.202  -3.412  0.00  0.00    +0.319 C 
ATOM     21  O   UNL     1      24.291  53.937  -3.437  0.00  0.00    -0.250 OA
BRANCH  20  22
ATOM     22  O   UNL     1      22.219  53.494  -4.205  0.00  0.00    -0.444 OA
ATOM     23  C   UNL     1      22.310  54.603  -5.117  0.00  0.00    +0.256 C 
ENDBRANCH  20  22
ENDBRANCH  19  20
ENDBRANCH  18  19
TORSDOF 4
