REMARK  Name = A6S
REMARK  7 active torsions:
REMARK  status: ('A' for Active; 'I' for Inactive)
REMARK    1  A    between atoms: O1_4  and  C17_11
REMARK    2  A    between atoms: C13_7  and  C15_9
REMARK    3  A    between atoms: C22_16  and  C23_17
REMARK    4  A    between atoms: C22_16  and  N2_32
REMARK    5  A    between atoms: C10_23  and  N1_31
REMARK    6  A    between atoms: C8_28  and  C9_29
REMARK    7  A    between atoms: C9_29  and  N2_32
REMARK                            x       y       z     vdW  Elec       q    Type
REMARK                         _______ _______ _______ _____ _____    ______ ____
ROOT
ATOM      1  C   UNL     1      -3.000  -5.318 -14.696  0.00  0.00    +0.004 A 
ATOM      2  C   UNL     1      -3.499  -4.648 -13.554  0.00  0.00    +0.015 A 
ATOM      3  C   UNL     1      -3.571  -5.387 -12.334  0.00  0.00    +0.066 A 
ATOM      4  N   UNL     1      -4.092  -4.514 -11.384  0.00  0.00    -0.305 N 
ATOM     19  C   UNL     1      -4.328  -3.284 -11.978  0.00  0.00    +0.077 A 
ATOM     20  C   UNL     1      -3.166  -6.734 -12.268  0.00  0.00    +0.047 A 
ATOM     21  C   UNL     1      -2.675  -7.373 -13.419  0.00  0.00    +0.142 A 
ATOM     22  F   UNL     1      -2.286  -8.667 -13.358  0.00  0.00    -0.204 F 
ATOM     23  C   UNL     1      -3.980  -3.323 -13.299  0.00  0.00    +0.014 A 
ATOM     33  C   UNL     1      -2.587  -6.665 -14.631  0.00  0.00    +0.030 A 
ENDROOT
BRANCH   4   5
ATOM      5  C   UNL     1      -4.337  -4.786 -10.023  0.00  0.00    +0.067 A 
ATOM      6  C   UNL     1      -3.285  -5.204  -9.193  0.00  0.00    +0.037 A 
ATOM      7  C   UNL     1      -3.556  -5.471  -7.838  0.00  0.00    +0.083 A 
ATOM     16  N   UNL     1      -4.790  -5.326  -7.313  0.00  0.00    -0.244 NA
ATOM     17  C   UNL     1      -5.797  -4.922  -8.113  0.00  0.00    +0.100 A 
ATOM     18  C   UNL     1      -5.624  -4.640  -9.477  0.00  0.00    +0.038 A 
BRANCH   7   8
ATOM      8  C   UNL     1      -2.492  -5.907  -6.914  0.00  0.00    +0.021 A 
ATOM      9  C   UNL     1      -2.769  -6.195  -5.560  0.00  0.00    +0.002 A 
ATOM     10  C   UNL     1      -1.737  -6.600  -4.692  0.00  0.00    +0.003 A 
ATOM     11  C   UNL     1      -0.417  -6.719  -5.168  0.00  0.00    +0.037 A 
ATOM     12  C   UNL     1      -0.115  -6.433  -6.518  0.00  0.00    +0.139 A 
ATOM     15  C   UNL     1      -1.160  -6.028  -7.370  0.00  0.00    +0.038 A 
BRANCH  12  13
ATOM     13  O   UNL     1       1.145  -6.519  -7.072  0.00  0.00    -0.471 OA
ATOM     14  C   UNL     1       2.231  -6.911  -6.246  0.00  0.00    +0.253 C 
ENDBRANCH  12  13
ENDBRANCH   7   8
ENDBRANCH   4   5
BRANCH  23  24
ATOM     24  C   UNL     1      -4.099  -2.183 -14.258  0.00  0.00    +0.117 C 
BRANCH  24  25
ATOM     25  N   UNL     1      -2.886  -1.762 -14.934  0.00  0.00    -0.213 NA
BRANCH  25  26
ATOM     26  C   UNL     1      -2.023  -1.068 -13.989  0.00  0.00    +0.089 C 
BRANCH  26  27
ATOM     27  C   UNL     1      -0.767  -1.905 -13.710  0.00  0.00    +0.017 C 
ATOM     28  C   UNL     1       0.041  -1.326 -12.532  0.00  0.00    +0.001 C 
ATOM     29  C   UNL     1       1.341  -2.109 -12.287  0.00  0.00    +0.000 C 
ATOM     30  C   UNL     1       2.208  -2.139 -13.552  0.00  0.00    +0.000 C 
ATOM     31  C   UNL     1       1.418  -2.744 -14.720  0.00  0.00    +0.000 C 
ATOM     32  C   UNL     1       0.121  -1.958 -14.964  0.00  0.00    +0.001 C 
ENDBRANCH  26  27
ENDBRANCH  25  26
ENDBRANCH  24  25
ENDBRANCH  23  24
TORSDOF 7
