REMARK  Name = 1A6
REMARK  3 active torsions:
REMARK  status: ('A' for Active; 'I' for Inactive)
REMARK    1  A    between atoms: CAN_6  and  CAG_7
REMARK    2  A    between atoms: CAG_7  and  SAL_8
REMARK    3  A    between atoms: SAL_8  and  CAO_9
REMARK                            x       y       z     vdW  Elec       q    Type
REMARK                         _______ _______ _______ _____ _____    ______ ____
ROOT
ATOM      7  C   UNL     1     -12.332  -6.344  -0.159  0.00  0.00    +0.198 A 
ATOM      8  N   UNL     1     -13.424  -5.581  -0.206  0.00  0.00    -0.122 NA
ATOM      9  N   UNL     1     -13.083  -4.419  -0.879  0.00  0.00    -0.128 NA
ATOM     10  C   UNL     1     -11.773  -4.588  -1.218  0.00  0.00    +0.171 A 
ATOM     11  C   UNL     1     -10.902  -3.815  -1.922  0.00  0.00    +0.039 A 
ATOM     12  C   UNL     1      -9.618  -4.330  -2.118  0.00  0.00    +0.005 A 
ATOM     13  C   UNL     1      -9.150  -5.554  -1.635  0.00  0.00    +0.019 A 
ATOM     14  C   UNL     1     -10.076  -6.288  -0.946  0.00  0.00    +0.083 A 
ATOM     15  N   UNL     1     -11.319  -5.740  -0.788  0.00  0.00    -0.268 N 
ENDROOT
BRANCH   7   6
ATOM      6  S   UNL     1     -12.205  -7.915   0.599  0.00  0.00    -0.067 S 
BRANCH   6   5
ATOM      5  C   UNL     1     -11.558  -7.806   2.291  0.00  0.00    +0.132 C 
BRANCH   5   4
ATOM      1  C   UNL     1      -7.081  -5.770   3.765  0.00  0.00    +0.056 C 
ATOM      2  C   UNL     1      -8.029  -6.729   3.115  0.00  0.00    +0.101 A 
ATOM      3  C   UNL     1      -9.446  -6.594   3.158  0.00  0.00    +0.055 A 
ATOM      4  C   UNL     1     -10.054  -7.632   2.469  0.00  0.00    +0.165 A 
ATOM     16  O   UNL     1      -9.008  -8.371   2.046  0.00  0.00    -0.357 OA
ATOM     17  N   UNL     1      -7.757  -7.863   2.395  0.00  0.00    -0.082 NA
ENDBRANCH   5   4
ENDBRANCH   6   5
ENDBRANCH   7   6
TORSDOF 3
