REMARK  Name = 4FSY
REMARK  2 active torsions:
REMARK  status: ('A' for Active; 'I' for Inactive)
REMARK    1  A    between atoms: C_2  and  C_4
REMARK    2  A    between atoms: C_9  and  C_10
REMARK                            x       y       z     vdW  Elec       q    Type
REMARK                         _______ _______ _______ _____ _____    ______ ____
ROOT
ATOM      5  C   UNL     1      15.616  -6.413  11.422  0.00  0.00    -0.015 A 
ATOM      6  C   UNL     1      16.983  -6.235  11.509  0.00  0.00    +0.035 A 
ATOM      7  C   UNL     1      17.608  -5.128  10.855  0.00  0.00    +0.053 A 
ATOM      8  N   UNL     1      18.988  -4.969  11.071  0.00  0.00    -0.353 N 
ATOM      9  H   UNL     1      19.369  -5.481  11.860  0.00  0.00    +0.166 HD
ATOM     10  C   UNL     1      19.932  -4.692  10.050  0.00  0.00    +0.063 A 
ATOM     11  C   UNL     1      19.776  -3.623   9.146  0.00  0.00    +0.066 A 
ATOM     12  N   UNL     1      18.665  -2.754   9.114  0.00  0.00    -0.320 N 
ATOM     13  H   UNL     1      18.872  -1.821   8.775  0.00  0.00    +0.169 HD
ATOM     14  C   UNL     1      17.329  -2.970   9.479  0.00  0.00    +0.258 A 
ATOM     15  O   UNL     1      16.545  -2.009   9.224  0.00  0.00    -0.267 OA
ATOM     16  C   UNL     1      20.823  -3.351   8.214  0.00  0.00    +0.028 A 
ATOM     17  C   UNL     1      21.986  -4.120   8.194  0.00  0.00    +0.002 A 
ATOM     18  C   UNL     1      22.137  -5.188   9.088  0.00  0.00    +0.002 A 
ATOM     19  C   UNL     1      21.121  -5.478  10.005  0.00  0.00    +0.028 A 
ATOM     20  C   UNL     1      16.826  -4.228  10.100  0.00  0.00    +0.063 A 
ATOM     21  C   UNL     1      15.440  -4.477   9.999  0.00  0.00    +0.016 A 
ATOM     22  C   UNL     1      14.845  -5.536  10.655  0.00  0.00    +0.009 A 
ENDROOT
BRANCH   5   4
ATOM      3  C   UNL     1      13.868  -7.256  13.069  0.00  0.00    +0.044 A 
ATOM      4  C   UNL     1      14.944  -7.503  12.172  0.00  0.00    -0.006 A 
ATOM     23  C   UNL     1      15.331  -8.836  11.898  0.00  0.00    +0.009 A 
ATOM     24  C   UNL     1      14.617  -9.904  12.473  0.00  0.00    +0.001 A 
ATOM     25  C   UNL     1      13.508  -9.657  13.309  0.00  0.00    +0.001 A 
ATOM     26  C   UNL     1      13.135  -8.340  13.610  0.00  0.00    +0.013 A 
BRANCH   3   2
ATOM      1  O   UNL     1      12.461  -5.340  13.354  0.00  0.00    -0.270 OA
ATOM      2  C   UNL     1      13.549  -5.886  13.589  0.00  0.00    +0.242 C 
ATOM     27  N   UNL     1      14.477  -5.264  14.384  0.00  0.00    -0.325 N 
ATOM     28  H   UNL     1      15.415  -5.739  14.584  0.00  0.00    +0.145 HD
ATOM     29  H   UNL     1      14.264  -4.303  14.804  0.00  0.00    +0.145 HD
ENDBRANCH   3   2
ENDBRANCH   5   4
TORSDOF 2
