REMARK  Name = 3ZSI
REMARK  3 active torsions:
REMARK  status: ('A' for Active; 'I' for Inactive)
REMARK    1  A    between atoms: C_5  and  S_6
REMARK    2  A    between atoms: S_6  and  C_7
REMARK    3  A    between atoms: C_11  and  C_12
REMARK                            x       y       z     vdW  Elec       q    Type
REMARK                         _______ _______ _______ _____ _____    ______ ____
ROOT
ATOM      8  C   UNL     1      -3.023  -0.061  20.021  0.00  0.00    +0.123 A 
ATOM      9  N   UNL     1      -3.006  -1.333  19.681  0.00  0.00    -0.158 NA
ATOM     10  N   UNL     1      -2.621  -2.314  20.609  0.00  0.00    -0.220 N 
ATOM     11  C   UNL     1      -2.606  -3.625  20.250  0.00  0.00    +0.227 A 
ATOM     12  N   UNL     1      -2.252  -4.564  21.087  0.00  0.00    -0.197 NA
ATOM     13  C   UNL     1      -1.882  -4.286  22.351  0.00  0.00    +0.281 A 
ATOM     14  O   UNL     1      -1.558  -5.193  23.105  0.00  0.00    -0.265 OA
ATOM     15  C   UNL     1      -1.867  -2.942  22.805  0.00  0.00    +0.076 A 
ATOM     24  C   UNL     1      -2.254  -1.942  21.890  0.00  0.00    +0.080 A 
ATOM     25  C   UNL     1      -2.271  -0.575  22.246  0.00  0.00    +0.031 A 
ATOM     26  C   UNL     1      -2.653   0.347  21.324  0.00  0.00    +0.039 A 
ENDROOT
BRANCH  15  16
ATOM     16  C   UNL     1      -1.461  -2.629  24.198  0.00  0.00    +0.026 A 
ATOM     17  C   UNL     1      -0.202  -2.085  24.474  0.00  0.00    +0.050 A 
ATOM     18 CL   UNL     1       0.917  -1.758  23.191  0.00  0.00    -0.083 Cl
ATOM     19  C   UNL     1       0.154  -1.799  25.781  0.00  0.00    +0.021 A 
ATOM     20  C   UNL     1      -0.730  -2.049  26.818  0.00  0.00    +0.003 A 
ATOM     21  C   UNL     1      -1.978  -2.586  26.556  0.00  0.00    +0.021 A 
ATOM     22  C   UNL     1      -2.345  -2.876  25.255  0.00  0.00    +0.050 A 
ATOM     23 CL   UNL     1      -3.909  -3.548  24.943  0.00  0.00    -0.083 Cl
ENDBRANCH  15  16
BRANCH   8   7
ATOM      7  S   UNL     1      -3.510   1.177  18.862  0.00  0.00    -0.065 S 
BRANCH   7   6
ATOM      1  F   UNL     1      -6.475  -1.838  14.785  0.00  0.00    -0.205 F 
ATOM      2  C   UNL     1      -5.786  -1.145  15.709  0.00  0.00    +0.126 A 
ATOM      3  C   UNL     1      -6.247  -1.119  17.013  0.00  0.00    +0.077 A 
ATOM      4  C   UNL     1      -5.556  -0.415  17.984  0.00  0.00    +0.140 A 
ATOM      5  F   UNL     1      -6.015  -0.393  19.254  0.00  0.00    -0.204 F 
ATOM      6  C   UNL     1      -4.395   0.273  17.640  0.00  0.00    +0.050 A 
ATOM     27  C   UNL     1      -3.932   0.244  16.326  0.00  0.00    +0.020 A 
ATOM     28  C   UNL     1      -4.629  -0.464  15.362  0.00  0.00    +0.039 A 
ENDBRANCH   7   6
ENDBRANCH   8   7
TORSDOF 3
