REMARK  Name = 5HLN
REMARK  8 active torsions:
REMARK  status: ('A' for Active; 'I' for Inactive)
REMARK    1  A    between atoms: C_2  and  C_3
REMARK    2  A    between atoms: C_4  and  C_20
REMARK    3  A    between atoms: C_7  and  N_30
REMARK    4  A    between atoms: C_9  and  C_12
REMARK    5  A    between atoms: C_25  and  C_26
REMARK    6  A    between atoms: N_27  and  C_28
REMARK    7  A    between atoms: C_28  and  C_29
REMARK    8  A    between atoms: C_29  and  N_30
REMARK                            x       y       z     vdW  Elec       q    Type
REMARK                         _______ _______ _______ _____ _____    ______ ____
ROOT
ATOM      7  C   UNL     1      70.173  -4.846   2.871  0.00  0.00    +0.059 A 
ATOM      8  C   UNL     1      70.104  -4.153   1.679  0.00  0.00    +0.099 A 
ATOM      9  N   UNL     1      71.163  -3.477   1.244  0.00  0.00    -0.330 N 
ATOM     10  H   UNL     1      71.107  -2.946   0.317  0.00  0.00    +0.168 HD
ATOM     11  C   UNL     1      72.302  -3.452   1.954  0.00  0.00    +0.224 A 
ATOM     12  N   UNL     1      73.351  -2.747   1.477  0.00  0.00    -0.249 NA
ATOM     25  N   UNL     1      72.379  -4.108   3.113  0.00  0.00    -0.212 NA
ATOM     26  C   UNL     1      71.349  -4.842   3.585  0.00  0.00    +0.088 A 
ENDROOT
BRANCH  26  27
ATOM     27  C   UNL     1      71.578  -5.514   4.895  0.00  0.00    +0.020 A 
ATOM     28  C   UNL     1      70.866  -5.129   6.011  0.00  0.00    +0.051 A 
ATOM     29 CL   UNL     1      69.585  -3.882   5.911  0.00  0.00    -0.083 Cl
ATOM     30  C   UNL     1      71.117  -5.731   7.224  0.00  0.00    +0.040 A 
ATOM     31  C   UNL     1      72.102  -6.688   7.354  0.00  0.00    +0.042 A 
ATOM     32  C   UNL     1      72.837  -7.084   6.254  0.00  0.00    +0.021 A 
ATOM     33 CL   UNL     1      72.387  -7.383   8.967  0.00  0.00    -0.084 Cl
ATOM     34  C   UNL     1      72.567  -6.490   5.020  0.00  0.00    +0.013 A 
ENDBRANCH  26  27
BRANCH   7   6
ATOM      1  C   UNL     1      67.676  -7.138   4.132  0.00  0.00    +0.134 A 
ATOM      2  C   UNL     1      67.030  -5.957   3.701  0.00  0.00    +0.033 A 
ATOM      3  C   UNL     1      65.536  -5.923   3.858  0.00  0.00    +0.065 C 
ATOM      4  N   UNL     1      67.864  -5.025   3.214  0.00  0.00    -0.342 N 
ATOM      5  H   UNL     1      67.649  -4.052   2.825  0.00  0.00    +0.167 HD
ATOM      6  C   UNL     1      69.037  -5.649   3.349  0.00  0.00    +0.142 A 
ATOM     35  N   UNL     1      68.992  -6.930   3.893  0.00  0.00    -0.236 NA
ENDBRANCH   7   6
BRANCH  12  13
ATOM     13  C   UNL     1      74.580  -2.596   2.194  0.00  0.00    +0.164 C 
BRANCH  13  14
ATOM     14  C   UNL     1      74.326  -1.372   3.069  0.00  0.00    +0.126 C 
BRANCH  14  15
ATOM     15  N   UNL     1      75.311  -1.257   4.118  0.00  0.00    -0.327 N 
ATOM     16  H   UNL     1      76.094  -0.543   3.971  0.00  0.00    +0.147 HD
BRANCH  15  17
ATOM     17  C   UNL     1      75.338  -1.973   5.281  0.00  0.00    +0.119 A 
ATOM     18  N   UNL     1      76.495  -1.938   5.964  0.00  0.00    -0.239 NA
ATOM     19  C   UNL     1      76.704  -2.624   7.095  0.00  0.00    +0.131 A 
ATOM     20  C   UNL     1      75.728  -3.426   7.637  0.00  0.00    +0.070 A 
ATOM     23  C   UNL     1      74.508  -3.495   6.963  0.00  0.00    +0.024 A 
ATOM     24  C   UNL     1      74.308  -2.779   5.772  0.00  0.00    +0.044 A 
BRANCH  20  21
ATOM     21  C   UNL     1      75.987  -4.038   8.747  0.00  0.00    +0.101 C 
ATOM     22  N   UNL     1      76.239  -4.571   9.755  0.00  0.00    -0.191 NA
ENDBRANCH  20  21
ENDBRANCH  15  17
ENDBRANCH  14  15
ENDBRANCH  13  14
ENDBRANCH  12  13
TORSDOF 7
