REMARK  Name = A4Q
REMARK  6 active torsions:
REMARK  status: ('A' for Active; 'I' for Inactive)
REMARK    1  A    between atoms: C7_1  and  C8_2
REMARK    2  A    between atoms: C12_3  and  C11_4
REMARK    3  A    between atoms: C2_8  and  C1_13
REMARK    4  A    between atoms: C7_18  and  C8_19
REMARK    5  A    between atoms: C12_20  and  C11_21
REMARK    6  A    between atoms: C2_25  and  C1_30
REMARK                            x       y       z     vdW  Elec       q    Type
REMARK                         _______ _______ _______ _____ _____    ______ ____
ROOT
ATOM      6  C   UNL     1       4.448 142.042 351.850  0.00  0.00    +0.010 A 
ATOM      7  C   UNL     1       5.260 141.583 352.883  0.00  0.00    +0.057 A 
ATOM      8 CL   UNL     1       6.143 142.710 353.859  0.00  0.00    -0.082 Cl
ATOM      9  C   UNL     1       5.392 140.238 353.160  0.00  0.00    +0.009 A 
ATOM     10  C   UNL     1       4.710 139.295 352.404  0.00  0.00    -0.002 A 
ATOM     13  C   UNL     1       3.899 139.740 351.374  0.00  0.00    -0.003 A 
ATOM     14  C   UNL     1       3.766 141.089 351.097  0.00  0.00    +0.001 A 
ENDROOT
BRANCH   6   1
ATOM      1  C   UNL     1       4.288 143.492 351.529  0.00  0.00    -0.003 A 
ATOM      2  C   UNL     1       3.283 144.207 352.178  0.00  0.00    -0.000 A 
ATOM      3  C   UNL     1       3.131 145.564 351.961  0.00  0.00    -0.000 A 
ATOM      4  C   UNL     1       3.972 146.223 351.097  0.00  0.00    -0.000 A 
ATOM      5  C   UNL     1       4.968 145.528 350.438  0.00  0.00    -0.004 A 
ATOM     15  C   UNL     1       5.139 144.162 350.638  0.00  0.00    -0.022 A 
BRANCH  15  16
ATOM     16  C   UNL     1       6.231 143.437 349.885  0.00  0.00    +0.026 C 
ATOM     17  C   UNL     1       5.732 142.503 348.820  0.00  0.00    +0.005 C 
ENDBRANCH  15  16
ENDBRANCH   6   1
BRANCH  10  11
ATOM     11  C   UNL     1       4.859 137.827 352.702  0.00  0.00    +0.136 C 
ATOM     12  N   UNL     1       5.194 137.536 354.089  0.00  0.00    -0.126 NA
ENDBRANCH  10  11
TORSDOF 3
