REMARK  Name = 3D1
REMARK  2 active torsions:
REMARK  status: ('A' for Active; 'I' for Inactive)
REMARK    1  A    between atoms: C5'_2  and  C4'_3
REMARK    2  A    between atoms: C1'_5  and  N9_6
REMARK                            x       y       z     vdW  Elec       q    Type
REMARK                         _______ _______ _______ _____ _____    ______ ____
ROOT
ATOM      7  N9    A A   1      47.603  64.814  99.452  0.00  0.00    -0.271 N 
ATOM      8  C4    A A   1      47.422  65.952 100.101  0.00  0.00    +0.169 A 
ATOM      9  C5    A A   1      46.090  65.956 100.475  0.00  0.00    +0.152 A 
ATOM     10  C6    A A   1      45.598  67.087 101.228  0.00  0.00    +0.192 A 
ATOM     11  N6    A A   1      44.291  67.072 101.569  0.00  0.00    -0.105 NA
ATOM     12  N1    A A   1      46.439  68.102 101.542  0.00  0.00    -0.204 NA
ATOM     13  C2    A A   1      47.868  68.125 101.172  0.00  0.00    +0.202 A 
ATOM     14  N7    A A   1      45.488  64.838 100.024  0.00  0.00    -0.219 NA
ATOM     15  N3    A A   1      48.295  66.956 100.405  0.00  0.00    -0.205 NA
ATOM     16  C8    A A   1      46.450  64.132  99.392  0.00  0.00    +0.181 A 
ENDROOT
BRANCH   7   6
ATOM      3  C4*   A A   1      49.162  62.532  97.603  0.00  0.00    +0.180 C 
ATOM      4  C3*   A A   1      50.226  62.561  98.679  0.00  0.00    +0.186 C 
ATOM      5  C2*   A A   1      49.678  63.510  99.719  0.00  0.00    +0.089 C 
ATOM      6  C1*   A A   1      48.894  64.474  98.859  0.00  0.00    +0.209 C 
ATOM     17  O3*   A A   1      51.405  63.148  98.104  0.00  0.00    -0.220 OA
ATOM     18  O4*   A A   1      48.610  63.846  97.612  0.00  0.00    -0.333 OA
BRANCH   3   2
ATOM      1  O5*   A A   1      46.818  61.977  97.518  0.00  0.00    -0.218 OA
ATOM      2  C5*   A A   1      48.112  61.458  97.856  0.00  0.00    +0.214 C 
ENDBRANCH   3   2
ENDBRANCH   7   6
TORSDOF 2
