REMARK  Name = 2IZT
REMARK  4 active torsions:
REMARK  status: ('A' for Active; 'I' for Inactive)
REMARK    1  A    between atoms: C_7  and  N_8
REMARK    2  A    between atoms: N_14  and  C_15
REMARK    3  A    between atoms: C_15  and  C_16
REMARK    4  A    between atoms: N_20  and  C_21
REMARK                            x       y       z     vdW  Elec       q    Type
REMARK                         _______ _______ _______ _____ _____    ______ ____
ROOT
ATOM      3  N   UNL     1      35.605 -17.377  28.199  0.00  0.00    -0.228 NA
ATOM      4  C   UNL     1      35.899 -16.619  27.122  0.00  0.00    +0.163 C 
ATOM      5  C   UNL     1      36.276 -15.306  27.388  0.00  0.00    +0.148 C 
ATOM      6  C   UNL     1      36.674 -14.460  26.256  0.00  0.00    +0.144 C 
ATOM      7  N   UNL     1      36.630 -14.973  24.993  0.00  0.00    -0.310 N 
ATOM      8  H   UNL     1      36.886 -14.355  24.158  0.00  0.00    +0.170 HD
ATOM      9  C   UNL     1      36.266 -16.252  24.792  0.00  0.00    +0.204 C 
ATOM     10  N   UNL     1      36.243 -16.741  23.536  0.00  0.00    -0.255 NA
ATOM     11  C   UNL     1      36.522 -15.864  22.405  0.00  0.00    +0.174 C 
ATOM     12  N   UNL     1      36.997 -13.277  26.797  0.00  0.00    -0.317 NA
ATOM     15  C   UNL     1      36.819 -13.327  28.131  0.00  0.00    +0.201 C 
ATOM     16  N   UNL     1      36.389 -14.560  28.500  0.00  0.00    -0.231 NA
ATOM     17  N   UNL     1      35.905 -17.051  25.836  0.00  0.00    -0.309 N 
ATOM     18  H   UNL     1      35.614 -18.061  25.633  0.00  0.00    +0.170 HD
ENDROOT
BRANCH   3   2
ATOM      1  C   UNL     1      34.160 -19.147  28.632  0.00  0.00    +0.047 A 
ATOM      2  C   UNL     1      35.313 -18.674  28.052  0.00  0.00    +0.068 A 
ATOM     19  C   UNL     1      35.996 -19.485  27.127  0.00  0.00    +0.028 A 
ATOM     20  C   UNL     1      35.549 -20.769  26.852  0.00  0.00    +0.003 A 
ATOM     21  C   UNL     1      34.419 -21.246  27.468  0.00  0.00    +0.020 A 
ATOM     22  C   UNL     1      33.720 -20.428  28.342  0.00  0.00    +0.043 A 
ATOM     23 CL   UNL     1      32.253 -20.979  29.170  0.00  0.00    -0.084 Cl
ENDBRANCH   3   2
BRANCH  12  13
ATOM     13  C   UNL     1      37.430 -12.087  26.055  0.00  0.00    +0.121 C 
ATOM     14  C   UNL     1      38.935 -11.943  26.076  0.00  0.00    +0.027 C 
ENDBRANCH  12  13
TORSDOF 2
