REMARK  Name = 9HN
REMARK  8 active torsions:
REMARK  status: ('A' for Active; 'I' for Inactive)
REMARK    1  A    between atoms: CBF_2  and  OBD_5
REMARK    2  A    between atoms: OBD_5  and  CBA_6
REMARK    3  A    between atoms: CBA_6  and  CBD_8
REMARK    4  A    between atoms: CBD_8  and  CAZ_9
REMARK    5  A    between atoms: CBD_8  and  CAF_12
REMARK    6  A    between atoms: CAZ_9  and  CBB_10
REMARK    7  A    between atoms: CAS_23  and  OAV_24
REMARK    8  A    between atoms: CAD_28  and  CAK_29
REMARK                            x       y       z     vdW  Elec       q    Type
REMARK                         _______ _______ _______ _____ _____    ______ ____
ROOT
ATOM      9  C   UNL     1     -17.301  -6.980  -8.992  0.00  0.00    +0.172 C 
ATOM     10  C   UNL     1     -16.429  -6.285  -7.982  0.00  0.00    +0.170 A 
ATOM     11  N   UNL     1     -15.218  -6.701  -7.331  0.00  0.00    -0.131 NA
ATOM     12  N   UNL     1     -14.838  -5.654  -6.520  0.00  0.00    -0.133 NA
ATOM     13  C   UNL     1     -15.600  -4.706  -6.616  0.00  0.00    +0.147 A 
ATOM     14  C   UNL     1     -15.390  -3.457  -5.771  0.00  0.00    +0.074 C 
ATOM     15  N   UNL     1     -16.657  -4.946  -7.493  0.00  0.00    -0.279 N 
ATOM     16  C   UNL     1     -17.844  -4.307  -7.896  0.00  0.00    +0.068 A 
ATOM     17  C   UNL     1     -18.587  -3.651  -6.872  0.00  0.00    +0.021 A 
ATOM     18  C   UNL     1     -19.816  -3.003  -7.120  0.00  0.00    +0.038 A 
ATOM     19  C   UNL     1     -20.298  -3.023  -8.426  0.00  0.00    +0.139 A 
ATOM     22  C   UNL     1     -19.608  -3.671  -9.439  0.00  0.00    +0.040 A 
ATOM     23  C   UNL     1     -18.414  -4.330  -9.145  0.00  0.00    +0.036 A 
ATOM     24  C   UNL     1     -17.806  -4.954 -10.384  0.00  0.00    +0.078 C 
ATOM     32  N   UNL     1     -17.209  -6.262 -10.253  0.00  0.00    -0.264 NA
ENDROOT
BRANCH  24  25
ATOM     25  C   UNL     1     -17.640  -4.349 -11.766  0.00  0.00    +0.017 A 
ATOM     26  C   UNL     1     -17.480  -3.010 -11.827  0.00  0.00    +0.002 A 
ATOM     27  C   UNL     1     -17.284  -2.409 -13.177  0.00  0.00    +0.011 A 
ATOM     28  C   UNL     1     -17.285  -3.243 -14.256  0.00  0.00    +0.058 A 
ATOM     29  C   UNL     1     -17.405  -4.731 -14.180  0.00  0.00    +0.011 A 
ATOM     30 CL   UNL     1     -17.017  -2.539 -15.828  0.00  0.00    -0.082 Cl
ATOM     31  C   UNL     1     -17.578  -5.264 -12.968  0.00  0.00    +0.002 A 
ENDBRANCH  24  25
BRANCH  19  20
ATOM     20  O   UNL     1     -21.540  -2.408  -8.786  0.00  0.00    -0.471 OA
ATOM     21  C   UNL     1     -22.274  -1.720  -7.744  0.00  0.00    +0.253 C 
ENDBRANCH  19  20
BRANCH   9   5
ATOM      5  C   UNL     1     -16.985  -8.449  -9.215  0.00  0.00    +0.129 C 
BRANCH   5   4
ATOM      4  C   UNL     1     -17.947  -9.010 -10.279  0.00  0.00    +0.319 C 
ATOM     33  O   UNL     1     -17.638  -9.916 -11.046  0.00  0.00    -0.250 OA
BRANCH   4   3
ATOM      3  O   UNL     1     -19.228  -8.405 -10.286  0.00  0.00    -0.456 OA
BRANCH   3   2
ATOM      1  C   UNL     1     -20.746 -10.281 -10.810  0.00  0.00    +0.044 C 
ATOM      2  C   UNL     1     -20.307  -8.854 -11.164  0.00  0.00    +0.136 C 
ATOM     34  C   UNL     1     -21.461  -7.921 -10.924  0.00  0.00    +0.044 C 
ATOM     35  C   UNL     1     -19.887  -8.754 -12.633  0.00  0.00    +0.044 C 
ENDBRANCH   3   2
ENDBRANCH   4   3
ENDBRANCH   5   4
BRANCH   5   6
ATOM      6  C   UNL     1     -17.019  -9.281  -7.933  0.00  0.00    +0.014 C 
BRANCH   6   7
ATOM      7  C   UNL     1     -18.181  -8.828  -7.074  0.00  0.00    +0.001 C 
ATOM      8  C   UNL     1     -17.866  -8.138  -5.801  0.00  0.00    +0.000 C 
ENDBRANCH   6   7
ENDBRANCH   5   6
ENDBRANCH   9   5
TORSDOF 8
