REMARK  Name = 3BHU
REMARK  5 active torsions:
REMARK  status: ('A' for Active; 'I' for Inactive)
REMARK    1  A    between atoms: C_3  and  O_17
REMARK    2  A    between atoms: C_4  and  C_11
REMARK    3  A    between atoms: O_17  and  C_18
REMARK    4  A    between atoms: C_18  and  C_19
REMARK    5  A    between atoms: C_19  and  C_20
REMARK                            x       y       z     vdW  Elec       q    Type
REMARK                         _______ _______ _______ _____ _____    ______ ____
ROOT
ATOM      1  C   UNL     1      -7.174  23.026 -24.198  0.00  0.00    +0.066 A 
ATOM      2  C   UNL     1      -7.300  22.008 -23.251  0.00  0.00    +0.133 A 
ATOM      7  C   UNL     1      -8.693  21.600 -22.923  0.00  0.00    +0.071 A 
ATOM      8  C   UNL     1      -9.785  22.250 -23.660  0.00  0.00    +0.164 A 
ATOM      9  N   UNL     1      -9.552  23.234 -24.565  0.00  0.00    -0.235 NA
ATOM     10  N   UNL     1     -10.976  21.719 -23.249  0.00  0.00    -0.235 NA
ATOM     11  C   UNL     1     -10.773  20.751 -22.297  0.00  0.00    +0.124 A 
ATOM     12  C   UNL     1      -9.283  20.540 -22.129  0.00  0.00    +0.033 A 
ATOM     22  C   UNL     1      -8.283  23.599 -24.821  0.00  0.00    +0.117 A 
ENDROOT
BRANCH  12  13
ATOM     13  C   UNL     1      -8.776  19.844 -20.908  0.00  0.00    +0.078 A 
ATOM     14  N   UNL     1      -9.664  19.412 -19.979  0.00  0.00    -0.215 NA
ATOM     15  C   UNL     1      -9.267  18.705 -18.900  0.00  0.00    +0.213 A 
ATOM     16  N   UNL     1      -7.962  18.370 -18.755  0.00  0.00    -0.223 NA
ATOM     17  C   UNL     1      -7.045  18.751 -19.670  0.00  0.00    +0.116 A 
ATOM     18  N   UNL     1     -10.186  18.325 -17.978  0.00  0.00    -0.328 N 
ATOM     19  H   UNL     1     -11.214  18.596 -18.104  0.00  0.00    +0.145 HD
ATOM     20  H   UNL     1      -9.884  17.755 -17.125  0.00  0.00    +0.145 HD
ATOM     21  C   UNL     1      -7.438  19.473 -20.794  0.00  0.00    +0.048 A 
ENDBRANCH  12  13
BRANCH   2   3
ATOM      3  O   UNL     1      -6.189  21.455 -22.662  0.00  0.00    -0.491 OA
BRANCH   3   4
ATOM      4  C   UNL     1      -5.003  22.227 -22.440  0.00  0.00    +0.229 C 
BRANCH   4   5
ATOM      5  C   UNL     1      -4.299  21.750 -21.170  0.00  0.00    +0.037 C 
ATOM      6  C   UNL     1      -4.994  22.295 -19.936  0.00  0.00    +0.007 C 
ENDBRANCH   4   5
ENDBRANCH   3   4
ENDBRANCH   2   3
TORSDOF 4
