REMARK  Name = 3AQV
REMARK  6 active torsions:
REMARK  status: ('A' for Active; 'I' for Inactive)
REMARK    1  A    between atoms: N_6  and  C_7
REMARK    2  A    between atoms: C_7  and  C_8
REMARK    3  A    between atoms: C_8  and  O_9
REMARK    4  A    between atoms: O_9  and  C_10
REMARK    5  A    between atoms: C_15  and  C_16
REMARK    6  A    between atoms: C_24  and  C_25
REMARK                            x       y       z     vdW  Elec       q    Type
REMARK                         _______ _______ _______ _____ _____    ______ ____
ROOT
ATOM     10  C   UNL     1      -7.595  45.478   8.752  0.00  0.00    -0.001 C 
ATOM     11  C   UNL     1      -6.368  45.450   9.340  0.00  0.00    +0.181 C 
ATOM     12  N   UNL     1      -5.766  46.555   9.751  0.00  0.00    -0.260 NA
ATOM     13  C   UNL     1      -6.297  47.775   9.575  0.00  0.00    +0.157 A 
ATOM     14  C   UNL     1      -5.883  49.077   9.888  0.00  0.00    +0.043 A 
ATOM     21  C   UNL     1      -6.855  49.894   9.423  0.00  0.00    +0.114 A 
ATOM     22  N   UNL     1      -7.835  49.116   8.907  0.00  0.00    -0.298 N 
ATOM     23  H   UNL     1      -8.746  49.489   8.489  0.00  0.00    +0.187 HD
ATOM     24  N   UNL     1      -7.533  47.891   8.984  0.00  0.00    -0.244 N 
ATOM     25  C   UNL     1      -8.165  46.748   8.528  0.00  0.00    +0.118 C 
ENDROOT
BRANCH  10   9
ATOM      6  C   UNL     1      -9.253  41.874   7.343  0.00  0.00    +0.121 A 
ATOM      7  C   UNL     1      -7.972  41.902   7.889  0.00  0.00    +0.046 A 
ATOM      8  C   UNL     1      -7.419  43.091   8.343  0.00  0.00    +0.012 A 
ATOM      9  C   UNL     1      -8.182  44.276   8.318  0.00  0.00    -0.018 A 
ATOM     26  C   UNL     1      -9.457  44.251   7.747  0.00  0.00    +0.012 A 
ATOM     27  C   UNL     1     -10.023  43.051   7.279  0.00  0.00    +0.046 A 
BRANCH   6   5
ATOM      5  O   UNL     1      -9.735  40.656   6.895  0.00  0.00    -0.491 OA
BRANCH   5   4
ATOM      4  C   UNL     1     -10.841  40.706   5.888  0.00  0.00    +0.244 C 
BRANCH   4   3
ATOM      3  C   UNL     1     -11.185  39.254   5.388  0.00  0.00    +0.125 C 
BRANCH   3   2
ATOM      1  C   UNL     1      -9.176  39.467   3.865  0.00  0.00    +0.084 C 
ATOM      2  N   UNL     1     -10.477  38.815   4.148  0.00  0.00    -0.299 NA
ATOM     28  C   UNL     1     -10.301  37.328   4.165  0.00  0.00    +0.084 C 
ATOM     29  C   UNL     1      -8.862  36.875   3.837  0.00  0.00    +0.015 C 
ATOM     30  C   UNL     1      -8.368  37.497   2.504  0.00  0.00    +0.002 C 
ATOM     31  C   UNL     1      -8.612  39.020   2.511  0.00  0.00    +0.015 C 
ENDBRANCH   3   2
ENDBRANCH   4   3
ENDBRANCH   5   4
ENDBRANCH   6   5
ENDBRANCH  10   9
BRANCH  14  15
ATOM     15  C   UNL     1      -4.652  49.501  10.484  0.00  0.00    -0.010 A 
ATOM     16  C   UNL     1      -3.578  48.659  10.802  0.00  0.00    +0.028 A 
ATOM     17  C   UNL     1      -2.415  49.230  11.349  0.00  0.00    +0.111 A 
ATOM     18  N   UNL     1      -2.284  50.534  11.553  0.00  0.00    -0.263 NA
ATOM     19  C   UNL     1      -3.247  51.380  11.244  0.00  0.00    +0.111 A 
ATOM     20  C   UNL     1      -4.438  50.858  10.722  0.00  0.00    +0.028 A 
ENDBRANCH  14  15
TORSDOF 6
