REMARK  Name = 5IUG
REMARK  11 active torsions:
REMARK  status: ('A' for Active; 'I' for Inactive)
REMARK    1  A    between atoms: C_1  and  N_5
REMARK    2  A    between atoms: C_2  and  C_39
REMARK    3  A    between atoms: C_4  and  C_23
REMARK    4  A    between atoms: N_11  and  C_33
REMARK    5  A    between atoms: N_12  and  C_38
REMARK    6  A    between atoms: C_15  and  C_17
REMARK    7  A    between atoms: C_17  and  C_18
REMARK    8  A    between atoms: C_17  and  C_19
REMARK    9  A    between atoms: C_17  and  C_20
REMARK   10  A    between atoms: C_26  and  C_27
REMARK   11  A    between atoms: C_30  and  C_33
REMARK                            x       y       z     vdW  Elec       q    Type
REMARK                         _______ _______ _______ _____ _____    ______ ____
ROOT
ATOM      5  C   UNL     1      22.038 -12.551  -9.807  0.00  0.00    +0.068 A 
ATOM      6  C   UNL     1      21.915 -11.390  -9.086  0.00  0.00    +0.073 A 
ATOM      7  C   UNL     1      23.144 -10.776  -9.092  0.00  0.00    +0.147 A 
ATOM      8  N   UNL     1      23.526  -9.526  -8.493  0.00  0.00    -0.265 N 
ATOM      9  H   UNL     1      24.370  -9.012  -8.904  0.00  0.00    +0.157 HD
ATOM     10  C   UNL     1      22.853  -8.926  -7.386  0.00  0.00    +0.249 C 
ATOM     11  O   UNL     1      21.886  -9.454  -6.869  0.00  0.00    -0.270 OA
ATOM     26  N   UNL     1      23.979 -11.536  -9.826  0.00  0.00    -0.158 NA
ATOM     27  N   UNL     1      23.294 -12.640 -10.278  0.00  0.00    -0.275 N 
ATOM     28  H   UNL     1      23.688 -13.424 -10.891  0.00  0.00    +0.189 HD
ENDROOT
BRANCH   5   4
ATOM      1  C   UNL     1      18.983 -15.441 -10.787  0.00  0.00    +0.038 A 
ATOM      2  C   UNL     1      20.009 -15.120 -11.665  0.00  0.00    +0.024 A 
ATOM      3  C   UNL     1      20.974 -14.190 -11.327  0.00  0.00    +0.012 A 
ATOM      4  C   UNL     1      20.952 -13.572 -10.103  0.00  0.00    +0.000 A 
ATOM     29  C   UNL     1      19.935 -13.889  -9.214  0.00  0.00    +0.015 A 
ATOM     45  C   UNL     1      18.949 -14.829  -9.534  0.00  0.00    -0.029 A 
ATOM     46  C   UNL     1      17.858 -15.155  -8.532  0.00  0.00    +0.045 C 
BRANCH   1  30
ATOM     30  N   UNL     1      18.029 -16.412 -11.181  0.00  0.00    -0.269 N 
ATOM     31  H   UNL     1      17.821 -17.240 -10.536  0.00  0.00    +0.156 HD
ATOM     32  C   UNL     1      17.344 -16.300 -12.423  0.00  0.00    +0.309 C 
ATOM     33  O   UNL     1      17.543 -15.366 -13.172  0.00  0.00    -0.252 OA
ATOM     34  N   UNL     1      16.421 -17.329 -12.733  0.00  0.00    -0.251 N 
ATOM     35  H   UNL     1      16.292 -18.122 -12.026  0.00  0.00    +0.158 HD
ATOM     36  C   UNL     1      15.659 -17.367 -13.926  0.00  0.00    +0.169 A 
ATOM     37  C   UNL     1      16.052 -16.941 -15.153  0.00  0.00    +0.092 A 
ATOM     38  C   UNL     1      15.192 -17.458 -16.088  0.00  0.00    +0.144 A 
ATOM     39  O   UNL     1      14.187 -18.113 -15.409  0.00  0.00    -0.357 OA
ATOM     44  N   UNL     1      14.731 -18.307 -14.120  0.00  0.00    -0.063 NA
BRANCH  38  40
ATOM     40  C   UNL     1      15.033 -17.014 -17.531  0.00  0.00    +0.023 C 
ATOM     41  C   UNL     1      16.220 -16.217 -18.022  0.00  0.00    +0.019 C 
ATOM     42  C   UNL     1      13.776 -16.173 -17.634  0.00  0.00    +0.019 C 
ATOM     43  C   UNL     1      14.867 -18.248 -18.399  0.00  0.00    +0.019 C 
ENDBRANCH  38  40
ENDBRANCH   1  30
ENDBRANCH   5   4
BRANCH  10  12
ATOM     12  C   UNL     1      23.385  -7.575  -6.911  0.00  0.00    +0.037 A 
ATOM     13  C   UNL     1      24.609  -7.142  -7.380  0.00  0.00    +0.013 A 
ATOM     14  C   UNL     1      25.116  -5.911  -6.986  0.00  0.00    +0.006 A 
ATOM     15  C   UNL     1      24.389  -5.098  -6.125  0.00  0.00    -0.033 A 
ATOM     24  C   UNL     1      23.154  -5.529  -5.663  0.00  0.00    +0.006 A 
ATOM     25  C   UNL     1      22.647  -6.762  -6.056  0.00  0.00    +0.013 A 
BRANCH  15  16
ATOM     16  C   UNL     1      24.943  -3.739  -5.705  0.00  0.00    +0.119 C 
BRANCH  16  17
ATOM     17  N   UNL     1      24.552  -2.832  -6.588  0.00  0.00    -0.296 NA
ATOM     18  C   UNL     1      24.074  -1.694  -6.143  0.00  0.00    +0.100 C 
ATOM     19  C   UNL     1      24.785  -0.464  -6.667  0.00  0.00    +0.099 C 
ATOM     20  N   UNL     1      26.061  -0.674  -6.821  0.00  0.00    -0.303 NA
ATOM     21  C   UNL     1      26.707   0.433  -7.092  0.00  0.00    +0.105 C 
ATOM     22  C   UNL     1      26.253  -1.571  -7.751  0.00  0.00    +0.099 C 
ATOM     23  C   UNL     1      25.278  -2.736  -7.679  0.00  0.00    +0.100 C 
ENDBRANCH  16  17
ENDBRANCH  15  16
ENDBRANCH  10  12
TORSDOF 6
