REMARK  Name = 5TQ5
REMARK  7 active torsions:
REMARK  status: ('A' for Active; 'I' for Inactive)
REMARK    1  A    between atoms: C_4  and  C_7
REMARK    2  A    between atoms: C_6  and  N_22
REMARK    3  A    between atoms: C_8  and  C_20
REMARK    4  A    between atoms: C_10  and  C_11
REMARK    5  A    between atoms: C_11  and  C_12
REMARK    6  A    between atoms: C_13  and  O_28
REMARK    7  A    between atoms: C_25  and  C_27
REMARK                            x       y       z     vdW  Elec       q    Type
REMARK                         _______ _______ _______ _____ _____    ______ ____
ROOT
ATOM      8  C   UNL     1       3.070   0.929  10.617  0.00  0.00    -0.016 A 
ATOM      9  C   UNL     1       2.264   0.400  11.632  0.00  0.00    +0.036 A 
ATOM     10  C   UNL     1       2.474  -0.913  12.047  0.00  0.00    +0.067 A 
ATOM     11  N   UNL     1       1.852  -1.684  12.969  0.00  0.00    -0.276 N 
ATOM     12  H   UNL     1       1.045  -1.347  13.585  0.00  0.00    +0.189 HD
ATOM     13  N   UNL     1       2.375  -2.938  13.019  0.00  0.00    -0.168 NA
ATOM     14  C   UNL     1       3.367  -3.001  12.118  0.00  0.00    +0.155 A 
ATOM     26  C   UNL     1       3.477  -1.715  11.476  0.00  0.00    +0.032 A 
ATOM     27  C   UNL     1       4.281  -1.169  10.478  0.00  0.00    +0.013 A 
ATOM     28  C   UNL     1       4.073   0.132  10.062  0.00  0.00    +0.009 A 
ENDROOT
BRANCH   8   7
ATOM      1  C   UNL     1       3.655   4.508   9.537  0.00  0.00    +0.049 A 
ATOM      2  C   UNL     1       2.527   4.733   8.758  0.00  0.00    +0.117 A 
ATOM      5  C   UNL     1       1.550   3.752   8.654  0.00  0.00    +0.046 A 
ATOM      6  C   UNL     1       1.705   2.550   9.326  0.00  0.00    +0.012 A 
ATOM      7  C   UNL     1       2.844   2.303  10.097  0.00  0.00    -0.014 A 
ATOM     29  C   UNL     1       3.818   3.306  10.222  0.00  0.00    -0.036 A 
BRANCH   2   3
ATOM      3  O   UNL     1       2.379   5.920   8.090  0.00  0.00    -0.507 OA
ATOM      4  H   UNL     1       2.372   6.712   8.780  0.00  0.00    +0.292 HD
ENDBRANCH   2   3
BRANCH  29  30
ATOM     30  C   UNL     1       5.023   3.112  11.122  0.00  0.00    +0.032 C 
ATOM     31  C   UNL     1       4.643   2.953  12.638  0.00  0.00    +0.009 C 
ENDBRANCH  29  30
ENDBRANCH   8   7
BRANCH  14  15
ATOM     15  C   UNL     1       4.311  -4.111  11.831  0.00  0.00    +0.269 C 
ATOM     16  N   UNL     1       4.044  -5.287  12.431  0.00  0.00    -0.279 N 
ATOM     17  H   UNL     1       3.098  -5.359  12.926  0.00  0.00    +0.155 HD
ATOM     25  O   UNL     1       5.319  -3.908  11.180  0.00  0.00    -0.268 OA
BRANCH  16  18
ATOM     18  C   UNL     1       4.866  -6.442  12.485  0.00  0.00    +0.052 A 
ATOM     19  C   UNL     1       4.520  -7.478  13.338  0.00  0.00    +0.026 A 
ATOM     20  C   UNL     1       5.341  -8.586  13.445  0.00  0.00    +0.025 A 
ATOM     21  C   UNL     1       6.515  -8.646  12.693  0.00  0.00    +0.038 A 
ATOM     22  C   UNL     1       7.415  -9.845  12.731  0.00  0.00    +0.065 C 
ATOM     23  N   UNL     1       6.863  -7.645  11.864  0.00  0.00    -0.258 NA
ATOM     24  C   UNL     1       6.045  -6.592  11.760  0.00  0.00    +0.134 A 
ENDBRANCH  16  18
ENDBRANCH  14  15
TORSDOF 5
