REMARK  Name = 3LXN
REMARK  6 active torsions:
REMARK  status: ('A' for Active; 'I' for Inactive)
REMARK    1  A    between atoms: C_1  and  N_13
REMARK    2  A    between atoms: C_5  and  C_12
REMARK    3  A    between atoms: C_8  and  C_9
REMARK    4  A    between atoms: C_9  and  C_10
REMARK    5  A    between atoms: N_13  and  C_14
REMARK    6  A    between atoms: N_13  and  C_15
REMARK                            x       y       z     vdW  Elec       q    Type
REMARK                         _______ _______ _______ _____ _____    ______ ____
ROOT
ATOM      1  C   UNL     1      -7.647   7.950  16.075  0.00  0.00    +0.095 C 
ATOM     13  C   UNL     1      -8.652   6.802  16.262  0.00  0.00    +0.009 C 
ATOM     14  C   UNL     1      -8.760   6.285  17.687  0.00  0.00    +0.009 C 
ATOM     15  C   UNL     1      -8.365   5.648  15.327  0.00  0.00    +0.024 C 
ATOM     16  C   UNL     1      -6.948   5.154  15.512  0.00  0.00    +0.108 C 
ATOM     17  N   UNL     1      -6.019   6.260  15.442  0.00  0.00    -0.299 N 
ATOM     18  C   UNL     1      -4.898   6.225  14.679  0.00  0.00    +0.230 C 
ATOM     22  O   UNL     1      -4.028   7.073  14.795  0.00  0.00    -0.275 OA
ATOM     23  C   UNL     1      -6.231   7.461  16.201  0.00  0.00    +0.130 C 
ENDROOT
BRANCH   1   2
ATOM      2  N   UNL     1      -7.876   8.930  17.128  0.00  0.00    -0.313 N 
ATOM     12  C   UNL     1      -7.058   9.057  18.506  0.00  0.00    +0.131 C 
BRANCH   2   3
ATOM      3  C   UNL     1      -8.750  10.000  16.832  0.00  0.00    +0.134 A 
ATOM      4  N   UNL     1      -8.833  10.970  17.752  0.00  0.00    -0.220 NA
ATOM      5  C   UNL     1      -9.663  11.993  17.559  0.00  0.00    +0.225 A 
ATOM      6  N   UNL     1     -10.478  12.218  16.533  0.00  0.00    -0.216 NA
ATOM      7  C   UNL     1     -10.366  11.247  15.635  0.00  0.00    +0.165 A 
ATOM      8  N   UNL     1     -11.078  11.200  14.475  0.00  0.00    -0.235 NA
ATOM      9  C   UNL     1     -10.735  10.070  13.781  0.00  0.00    +0.114 A 
ATOM     10  C   UNL     1      -9.796   9.386  14.516  0.00  0.00    +0.035 A 
ATOM     11  C   UNL     1      -9.552  10.130  15.706  0.00  0.00    +0.060 A 
ENDBRANCH   2   3
ENDBRANCH   1   2
BRANCH  18  19
ATOM     19  C   UNL     1      -4.855   5.085  13.695  0.00  0.00    +0.214 C 
BRANCH  19  20
ATOM     20  C   UNL     1      -3.785   5.307  12.717  0.00  0.00    +0.072 C 
ATOM     21  N   UNL     1      -2.921   5.540  11.973  0.00  0.00    -0.196 NA
ENDBRANCH  19  20
ENDBRANCH  18  19
TORSDOF 4
