REMARK  Name = 4k0y_ligand
REMARK  4 active torsions:
REMARK  status: ('A' for Active; 'I' for Inactive)
REMARK    1  A    between atoms: C6_6  and  N7_7
REMARK    2  A    between atoms: C8_8  and  C10_10
REMARK    3  A    between atoms: C16_16  and  C20_20
REMARK    4  A    between atoms: C18_18  and  O19_19
REMARK                            x       y       z     vdW  Elec       q    Type
REMARK                         _______ _______ _______ _____ _____    ______ ____
ROOT
ATOM      6  C   UNL     1     -67.556  46.945  -0.791  0.00  0.00    +0.071 A 
ATOM      7  C   UNL     1     -66.640  47.844  -0.211  0.00  0.00    +0.168 A 
ATOM      8  N   UNL     1     -66.337  48.143   1.059  0.00  0.00    -0.288 NA
ATOM      9  C   UNL     1     -65.422  49.061   1.337  0.00  0.00    +0.019 A 
ATOM     18  C   UNL     1     -64.746  49.713   0.299  0.00  0.00    +0.084 A 
ATOM     19  C   UNL     1     -65.059  49.416  -0.996  0.00  0.00    +0.276 A 
ATOM     22  N   UNL     1     -66.010  48.471  -1.253  0.00  0.00    -0.099 N 
ATOM     23  N   UNL     1     -66.516  47.954  -2.450  0.00  0.00    -0.208 NA
ATOM     24  C   UNL     1     -67.415  47.033  -2.190  0.00  0.00    +0.066 A 
ENDROOT
BRANCH   9  10
ATOM     10  C   UNL     1     -65.019  49.402   2.752  0.00  0.00    +0.072 C 
ATOM     11  C   UNL     1     -63.662  48.703   2.985  0.00  0.00    +0.074 C 
ATOM     12  C   UNL     1     -63.158  48.822   4.432  0.00  0.00    +0.132 C 
ATOM     13  N   UNL     1     -64.209  48.384   5.367  0.00  0.00    +0.227 N 
ATOM     14  H   UNL     1     -63.882  48.507   6.313  0.00  0.00    +0.201 HD
ATOM     15  H   UNL     1     -64.410  47.410   5.205  0.00  0.00    +0.201 HD
ATOM     16  C   UNL     1     -65.439  49.170   5.175  0.00  0.00    +0.132 C 
ATOM     17  C   UNL     1     -66.015  48.878   3.786  0.00  0.00    +0.074 C 
ENDBRANCH   9  10
BRANCH   6   5
ATOM      3  N   UNL     1     -68.164  46.039   1.296  0.00  0.00    -0.243 N 
ATOM      4  H   UNL     1     -67.501  46.711   1.625  0.00  0.00    +0.222 HD
ATOM      5  C   UNL     1     -68.401  46.036  -0.037  0.00  0.00    +0.196 C 
ATOM     25  O   UNL     1     -69.195  45.305  -0.608  0.00  0.00    -0.400 OA
BRANCH   3   2
ATOM      1  C   UNL     1     -68.147  45.232   3.533  0.00  0.00    +0.006 A 
ATOM      2  C   UNL     1     -68.738  45.213   2.266  0.00  0.00    +0.061 A 
ATOM     26  C   UNL     1     -69.777  44.329   1.986  0.00  0.00    +0.006 A 
ATOM     27  C   UNL     1     -70.256  43.514   2.990  0.00  0.00    +0.015 A 
ATOM     28  C   UNL     1     -69.685  43.551   4.259  0.00  0.00    +0.116 A 
ATOM     29  F   UNL     1     -70.166  42.738   5.229  0.00  0.00    -0.196 F 
ATOM     30  C   UNL     1     -68.629  44.412   4.535  0.00  0.00    +0.015 A 
ENDBRANCH   3   2
ENDBRANCH   6   5
BRANCH  19  20
ATOM     20  O   UNL     1     -64.416  50.028  -2.010  0.00  0.00    -0.271 OA
ATOM     21  H   UNL     1     -63.957  49.379  -2.530  0.00  0.00    +0.270 HD
ENDBRANCH  19  20
TORSDOF 4
