REMARK  Name = 3eta_ligand
REMARK  8 active torsions:
REMARK  status: ('A' for Active; 'I' for Inactive)
REMARK    1  A    between atoms: N1_1  and  C2_2
REMARK    2  A    between atoms: C2_2  and  C3_3
REMARK    3  A    between atoms: C6_6  and  C9_9
REMARK    4  A    between atoms: C15_15  and  C16_16
REMARK    5  A    between atoms: C20_20  and  N21_21
REMARK    6  A    between atoms: N24_24  and  C25_25
REMARK    7  A    between atoms: C30_30  and  O31_31
REMARK    8  A    between atoms: O31_31  and  C32_32
REMARK                            x       y       z     vdW  Elec       q    Type
REMARK                         _______ _______ _______ _____ _____    ______ ____
ROOT
ATOM     14  C   UNL     1      50.140  17.096   7.717  0.00  0.00    -0.052 A 
ATOM     15  C   UNL     1      50.268  15.845   8.289  0.00  0.00    -0.000 A 
ATOM     16  C   UNL     1      49.217  15.280   8.987  0.00  0.00    +0.060 A 
ATOM     36  C   UNL     1      48.041  15.984   9.112  0.00  0.00    -0.002 A 
ATOM     37  C   UNL     1      47.915  17.234   8.547  0.00  0.00    -0.025 A 
ATOM     38  C   UNL     1      48.960  17.792   7.847  0.00  0.00    -0.035 A 
ENDROOT
BRANCH  14  13
ATOM     10  C   UNL     1      50.774  20.045   4.123  0.00  0.00    -0.010 A 
ATOM     11  C   UNL     1      50.307  19.230   5.134  0.00  0.00    +0.020 A 
ATOM     12  C   UNL     1      51.265  18.570   5.885  0.00  0.00    +0.012 A 
ATOM     13  C   UNL     1      51.241  17.665   6.982  0.00  0.00    -0.008 A 
ATOM     39  C   UNL     1      52.548  17.360   7.287  0.00  0.00    +0.147 A 
ATOM     40  N   UNL     1      53.351  18.044   6.425  0.00  0.00    -0.259 N 
ATOM     41  H   UNL     1      54.380  18.009   6.422  0.00  0.00    +0.234 HD
ATOM     42  C   UNL     1      52.592  18.781   5.567  0.00  0.00    +0.140 A 
ATOM     43  N   UNL     1      53.096  19.559   4.609  0.00  0.00    -0.284 NA
ATOM     44  C   UNL     1      52.131  20.163   3.915  0.00  0.00    +0.077 A 
BRANCH  10   9
ATOM      6  C   UNL     1      48.143  22.114   1.581  0.00  0.00    +0.002 A 
ATOM      7  C   UNL     1      49.381  21.715   1.126  0.00  0.00    +0.001 A 
ATOM      8  C   UNL     1      50.232  21.037   1.967  0.00  0.00    -0.001 A 
ATOM      9  C   UNL     1      49.859  20.752   3.265  0.00  0.00    -0.025 A 
ATOM     45  C   UNL     1      48.612  21.149   3.706  0.00  0.00    -0.001 A 
ATOM     46  C   UNL     1      47.750  21.829   2.871  0.00  0.00    +0.001 A 
BRANCH   6   5
ATOM      5  C   UNL     1      47.236  22.850   0.667  0.00  0.00    +0.195 C 
BRANCH   5   1
ATOM      1  N   UNL     1      46.236  21.909   0.136  0.00  0.00    +0.231 N 
ATOM      2  H   UNL     1      46.703  21.171  -0.367  0.00  0.00    +0.201 HD
ATOM      3  H   UNL     1      45.708  21.515   0.898  0.00  0.00    +0.201 HD
ATOM      4  H   UNL     1      45.613  22.398  -0.487  0.00  0.00    +0.201 HD
ENDBRANCH   5   1
ENDBRANCH   6   5
ENDBRANCH  10   9
ENDBRANCH  14  13
BRANCH  16  17
ATOM     17  N   UNL     1      49.313  14.009   9.586  0.00  0.00    -0.216 N 
ATOM     18  H   UNL     1      48.885  13.875  10.480  0.00  0.00    +0.226 HD
ATOM     19  C   UNL     1      49.964  12.937   9.009  0.00  0.00    +0.314 C 
ATOM     20  N   UNL     1      50.100  11.891   9.904  0.00  0.00    -0.216 N 
ATOM     21  H   UNL     1      49.973  12.085  10.877  0.00  0.00    +0.223 HD
ATOM     35  O   UNL     1      50.375  12.918   7.855  0.00  0.00    -0.381 OA
BRANCH  20  22
ATOM     22  C   UNL     1      50.406  10.571   9.527  0.00  0.00    +0.102 A 
ATOM     23  C   UNL     1      49.641   9.533  10.014  0.00  0.00    +0.138 A 
ATOM     31  C   UNL     1      49.907   8.223   9.669  0.00  0.00    +0.009 A 
ATOM     32  C   UNL     1      50.969   7.949   8.836  0.00  0.00    -0.039 A 
ATOM     33  C   UNL     1      51.747   8.981   8.354  0.00  0.00    -0.037 A 
ATOM     34  C   UNL     1      51.468  10.290   8.695  0.00  0.00    -0.002 A 
BRANCH  23  24
ATOM     24  O   UNL     1      48.584   9.853  10.843  0.00  0.00    -0.264 OA
BRANCH  24  25
ATOM     25  C   UNL     1      48.476   9.149  12.028  0.00  0.00    +0.113 A 
ATOM     26  C   UNL     1      47.205   8.900  12.499  0.00  0.00    +0.026 A 
ATOM     27  C   UNL     1      47.038   8.208  13.679  0.00  0.00    -0.011 A 
ATOM     28  C   UNL     1      48.143   7.775  14.380  0.00  0.00    -0.020 A 
ATOM     29  C   UNL     1      49.413   8.029  13.903  0.00  0.00    -0.011 A 
ATOM     30  C   UNL     1      49.588   8.721  12.721  0.00  0.00    +0.026 A 
ENDBRANCH  24  25
ENDBRANCH  23  24
ENDBRANCH  20  22
ENDBRANCH  16  17
TORSDOF 8
