REMARK  Name = 2zyb_ligand
REMARK  4 active torsions:
REMARK  status: ('A' for Active; 'I' for Inactive)
REMARK    1  A    between atoms: C8_1  and  C7_2
REMARK    2  A    between atoms: C6_6  and  N9_9
REMARK    3  A    between atoms: C2_7  and  C1_8
REMARK    4  A    between atoms: C13_16  and  C19_19
REMARK                            x       y       z     vdW  Elec       q    Type
REMARK                         _______ _______ _______ _____ _____    ______ ____
ROOT
ATOM      4  N   UNL     1      21.082  37.543   8.046  0.00  0.00    -0.198 N 
ATOM      5  H   UNL     1      20.914  38.164   8.851  0.00  0.00    +0.275 HD
ATOM      6  C   UNL     1      22.375  37.068   7.875  0.00  0.00    +0.230 A 
ATOM      7  N   UNL     1      22.636  36.018   7.082  0.00  0.00    -0.215 NA
ATOM      8  C   UNL     1      23.880  35.554   6.926  0.00  0.00    +0.167 A 
ATOM      9  C   UNL     1      24.936  36.071   7.676  0.00  0.00    +0.084 A 
ATOM     16  N   UNL     1      24.724  37.099   8.540  0.00  0.00    -0.309 N 
ATOM     17  C   UNL     1      25.568  37.777   9.350  0.00  0.00    +0.133 A 
ATOM     18  N   UNL     1      24.894  38.724  10.037  0.00  0.00    -0.312 N 
ATOM     19  H   UNL     1      25.293  39.365  10.738  0.00  0.00    +0.264 HD
ATOM     20  C   UNL     1      23.605  38.680   9.641  0.00  0.00    +0.097 A 
ATOM     21  C   UNL     1      23.512  37.641   8.645  0.00  0.00    +0.116 A 
ENDROOT
BRANCH   4   3
ATOM      1  C   UNL     1      19.186  35.339   8.797  0.00  0.00    +0.118 C 
ATOM      2  C   UNL     1      19.014  36.214   7.554  0.00  0.00    +0.030 A 
ATOM      3  C   UNL     1      20.006  37.261   7.240  0.00  0.00    +0.157 A 
ATOM     22  C   UNL     1      19.837  37.992   5.971  0.00  0.00    +0.030 A 
ATOM     23  C   UNL     1      20.812  39.092   5.644  0.00  0.00    +0.118 C 
ATOM     24  C   UNL     1      18.766  37.642   5.112  0.00  0.00    +0.021 A 
ATOM     25  C   UNL     1      17.804  36.703   5.494  0.00  0.00    +0.027 A 
ATOM     26  C   UNL     1      17.986  35.945   6.654  0.00  0.00    +0.021 A 
ENDBRANCH   4   3
BRANCH   9  10
ATOM     10  C   UNL     1      26.285  35.440   7.531  0.00  0.00    +0.024 A 
ATOM     11  C   UNL     1      26.586  34.701   6.396  0.00  0.00    +0.033 A 
ATOM     12  C   UNL     1      27.845  34.112   6.243  0.00  0.00    +0.016 A 
ATOM     13  C   UNL     1      28.765  34.209   7.250  0.00  0.00    +0.021 A 
ATOM     14  C   UNL     1      28.435  34.869   8.443  0.00  0.00    +0.016 A 
ATOM     15  C   UNL     1      27.214  35.533   8.544  0.00  0.00    +0.033 A 
ENDBRANCH   9  10
TORSDOF 2
