REMARK  Name = BNB
REMARK  6 active torsions:
REMARK  status: ('A' for Active; 'I' for Inactive)
REMARK    1  A    between atoms: C1_1  and  C23_15
REMARK    2  A    between atoms: C5_5  and  N7_19
REMARK    3  A    between atoms: C9_8  and  C10_20
REMARK    4  A    between atoms: C14_23  and  N17_24
REMARK    5  A    between atoms: N31_31  and  C32_32
REMARK    6  A    between atoms: C35_35  and  C38_38
REMARK                            x       y       z     vdW  Elec       q    Type
REMARK                         _______ _______ _______ _____ _____    ______ ____
ROOT
ATOM     23  C   UNL     1      24.198   5.863   2.555  0.00  0.00    +0.100 C 
ATOM     24  C   UNL     1      23.035   5.682   3.260  0.00  0.00    +0.098 C 
ATOM     25  N   UNL     1      21.872   5.323   2.635  0.00  0.00    -0.288 N 
ATOM     26  C   UNL     1      20.636   5.155   3.411  0.00  0.00    +0.134 C 
ATOM     27  C   UNL     1      21.882   5.124   1.286  0.00  0.00    +0.294 C 
ATOM     28  O   UNL     1      20.877   4.799   0.667  0.00  0.00    -0.264 OA
ATOM     29  C   UNL     1      23.138   5.311   0.547  0.00  0.00    +0.209 C 
ATOM     30  N   UNL     1      23.093   5.088  -0.834  0.00  0.00    -0.190 NA
ATOM     46  N   UNL     1      24.222   5.671   1.216  0.00  0.00    -0.223 NA
ENDROOT
BRANCH  23   1
ATOM      1  C   UNL     1      25.467   6.250   3.254  0.00  0.00    +0.017 A 
ATOM      2  C   UNL     1      25.539   7.172   4.324  0.00  0.00    -0.005 A 
ATOM      3  C   UNL     1      26.779   7.457   4.921  0.00  0.00    +0.070 A 
ATOM     19  C   UNL     1      27.945   6.851   4.452  0.00  0.00    +0.016 A 
ATOM     20  C   UNL     1      27.872   5.948   3.400  0.00  0.00    +0.001 A 
ATOM     21  C   UNL     1      24.296   7.864   4.849  0.00  0.00    +0.032 C 
ATOM     22  C   UNL     1      26.655   5.649   2.811  0.00  0.00    +0.001 A 
BRANCH   3   4
ATOM      4  N   UNL     1      26.820   8.382   5.976  0.00  0.00    -0.176 NA
ATOM      5  C   UNL     1      26.521   8.078   7.270  0.00  0.00    +0.269 C 
ATOM     18  O   UNL     1      26.212   6.941   7.597  0.00  0.00    -0.268 OA
BRANCH   5   6
ATOM      6  C   UNL     1      26.532   9.151   8.293  0.00  0.00    +0.056 A 
ATOM      7  C   UNL     1      26.531   8.848   9.662  0.00  0.00    +0.006 A 
ATOM      8  C   UNL     1      26.517   9.871  10.591  0.00  0.00    +0.015 A 
ATOM      9  C   UNL     1      26.489  11.221  10.197  0.00  0.00    +0.048 A 
ATOM     16  C   UNL     1      26.492  11.513   8.827  0.00  0.00    +0.015 A 
ATOM     17  C   UNL     1      26.502  10.498   7.888  0.00  0.00    +0.006 A 
BRANCH   9  10
ATOM     10  N   UNL     1      26.492  12.264  11.150  0.00  0.00    -0.308 N 
ATOM     11  C   UNL     1      26.042  11.856  12.504  0.00  0.00    +0.091 C 
ATOM     12  C   UNL     1      24.519  11.908  12.710  0.00  0.00    +0.021 C 
ATOM     13  C   UNL     1      23.937  13.257  12.259  0.00  0.00    +0.004 C 
ATOM     14  C   UNL     1      24.316  13.493  10.793  0.00  0.00    +0.021 C 
ATOM     15  C   UNL     1      25.850  13.514  10.681  0.00  0.00    +0.091 C 
ENDBRANCH   9  10
ENDBRANCH   5   6
ENDBRANCH   3   4
ENDBRANCH  23   1
BRANCH  30  31
ATOM     31  C   UNL     1      24.113   5.214  -1.776  0.00  0.00    +0.072 A 
ATOM     32  C   UNL     1      25.399   5.664  -1.461  0.00  0.00    +0.017 A 
ATOM     33  C   UNL     1      26.362   5.772  -2.448  0.00  0.00    +0.006 A 
ATOM     34  C   UNL     1      26.056   5.436  -3.776  0.00  0.00    +0.054 A 
ATOM     35  C   UNL     1      24.766   4.972  -4.087  0.00  0.00    +0.006 A 
ATOM     45  C   UNL     1      23.810   4.871  -3.097  0.00  0.00    +0.017 A 
BRANCH  34  36
ATOM     36  C   UNL     1      27.094   5.541  -4.835  0.00  0.00    +0.249 C 
ATOM     37  O   UNL     1      28.082   4.835  -4.739  0.00  0.00    -0.270 OA
ATOM     38  N   UNL     1      26.990   6.381  -5.901  0.00  0.00    -0.273 N 
ATOM     39  C   UNL     1      25.837   7.283  -6.125  0.00  0.00    +0.111 C 
ATOM     40  C   UNL     1      25.277   7.005  -7.525  0.00  0.00    +0.094 C 
ATOM     41  N   UNL     1      26.325   7.167  -8.551  0.00  0.00    -0.269 NA
ATOM     42  C   UNL     1      27.415   6.199  -8.315  0.00  0.00    +0.094 C 
ATOM     43  C   UNL     1      25.703   6.791  -9.831  0.00  0.00    +0.090 C 
ATOM     44  C   UNL     1      28.054   6.442  -6.935  0.00  0.00    +0.111 C 
ENDBRANCH  34  36
ENDBRANCH  30  31
TORSDOF 6
