REMARK  Name = 2x2k_ligand
REMARK  4 active torsions:
REMARK  status: ('A' for Active; 'I' for Inactive)
REMARK    1  A    between atoms: CAB_1  and  CAN_2
REMARK    2  A    between atoms: CAL_4  and  CAA_5
REMARK    3  A    between atoms: CAO_7  and  CAE_8
REMARK    4  A    between atoms: CAM_12  and  NAC_13
REMARK                            x       y       z     vdW  Elec       q    Type
REMARK                         _______ _______ _______ _____ _____    ______ ____
ROOT
ATOM      4  C   UNL     1     -10.547   9.024  11.056  0.00  0.00    +0.033 C 
ATOM      5  C   UNL     1     -11.610   8.110  11.192  0.00  0.00    +0.027 C 
ATOM      6  C   UNL     1     -12.900   8.341  11.717  0.00  0.00    +0.202 C 
ATOM      7  O   UNL     1     -13.337   9.408  12.160  0.00  0.00    -0.393 OA
ATOM      8  N   UNL     1     -13.615   7.206  11.680  0.00  0.00    -0.249 N 
ATOM      9  H   UNL     1     -14.578   7.098  12.000  0.00  0.00    +0.220 HD
ATOM     10  C   UNL     1     -12.844   6.229  11.147  0.00  0.00    +0.052 A 
ATOM     11  C   UNL     1     -13.130   4.878  10.904  0.00  0.00    -0.011 A 
ATOM     12  C   UNL     1     -12.177   4.035  10.346  0.00  0.00    -0.019 A 
ATOM     13  C   UNL     1     -10.899   4.523  10.022  0.00  0.00    +0.014 A 
ATOM     17  C   UNL     1     -10.582   5.895  10.248  0.00  0.00    -0.019 A 
ATOM     18  C   UNL     1     -11.559   6.746  10.819  0.00  0.00    -0.021 A 
ENDROOT
BRANCH   4   3
ATOM      1  C   UNL     1      -7.955  10.614  10.707  0.00  0.00    +0.069 C 
ATOM      2  C   UNL     1      -9.334  11.153  11.205  0.00  0.00    -0.048 A 
ATOM      3  C   UNL     1     -10.523  10.401  11.367  0.00  0.00    +0.059 A 
ATOM     19  N   UNL     1     -11.445  11.275  11.805  0.00  0.00    -0.278 N 
ATOM     20  H   UNL     1     -12.418  11.063  12.026  0.00  0.00    +0.228 HD
ATOM     21  C   UNL     1     -10.851  12.483  11.900  0.00  0.00    +0.046 A 
ATOM     22  C   UNL     1     -11.550  13.778  12.366  0.00  0.00    +0.131 C 
ATOM     23  C   UNL     1      -9.560  12.432  11.535  0.00  0.00    -0.032 A 
ENDBRANCH   4   3
BRANCH  13  14
ATOM     14  N   UNL     1     -10.016   3.623   9.483  0.00  0.00    -0.346 N 
ATOM     15  H   UNL     1      -9.075   3.922   9.229  0.00  0.00    +0.167 HD
ATOM     16  H   UNL     1     -10.301   2.655   9.336  0.00  0.00    +0.167 HD
ENDBRANCH  13  14
TORSDOF 2
