REMARK  Name = ETV
REMARK  2 active torsions:
REMARK  status: ('A' for Active; 'I' for Inactive)
REMARK    1  A    between atoms: N4_9  and  C13_10
REMARK    2  A    between atoms: C15_12  and  C16_13
REMARK                            x       y       z     vdW  Elec       q    Type
REMARK                         _______ _______ _______ _____ _____    ______ ____
ROOT
ATOM      1  O   UNL     1      48.812  68.188  99.849  0.00  0.00    -0.244 OA
ATOM      2  C   UNL     1      47.740  67.592  99.827  0.00  0.00    +0.353 A 
ATOM      3  N   UNL     1      46.538  68.234 100.101  0.00  0.00    -0.172 NA
ATOM      4  C   UNL     1      45.387  67.597 100.058  0.00  0.00    +0.203 A 
ATOM      5  N   UNL     1      44.263  68.289 100.371  0.00  0.00    -0.105 NA
ATOM      6  C   UNL     1      45.418  66.194  99.670  0.00  0.00    +0.192 A 
ATOM      7  F   UNL     1      44.247  65.510  99.595  0.00  0.00    -0.200 F 
ATOM      8  C   UNL     1      46.579  65.553  99.386  0.00  0.00    +0.115 A 
ATOM      9  N   UNL     1      47.754  66.258  99.444  0.00  0.00    -0.253 N 
ENDROOT
BRANCH   9  10
ATOM     10  C   UNL     1      49.074  65.634  99.143  0.00  0.00    +0.220 C 
ATOM     11  O   UNL     1      48.898  64.243  99.043  0.00  0.00    -0.323 OA
ATOM     12  C   UNL     1      49.109  63.710  97.715  0.00  0.00    +0.198 C 
ATOM     15  S   UNL     1      48.938  65.124  96.596  0.00  0.00    -0.105 S 
ATOM     16  C   UNL     1      49.733  66.140  97.850  0.00  0.00    +0.114 C 
BRANCH  12  13
ATOM     13  C   UNL     1      48.177  62.606  97.317  0.00  0.00    +0.223 C 
ATOM     14  O   UNL     1      48.169  61.526  98.217  0.00  0.00    -0.217 OA
ENDBRANCH  12  13
ENDBRANCH   9  10
TORSDOF 2
