REMARK  Name = 2c3l_ligand
REMARK  1 active torsions:
REMARK  status: ('A' for Active; 'I' for Inactive)
REMARK    1  A    between atoms: C6_6  and  C7_7
REMARK                            x       y       z     vdW  Elec       q    Type
REMARK                         _______ _______ _______ _____ _____    ______ ____
ROOT
ATOM      1  C   UNL     1      12.969  -1.058  10.527  0.00  0.00    +0.023 A 
ATOM      2  C   UNL     1      14.183  -0.643   9.989  0.00  0.00    +0.093 A 
ATOM      3  N   UNL     1      14.555   0.458   9.304  0.00  0.00    -0.205 N 
ATOM      4  H   UNL     1      13.912   1.227   9.069  0.00  0.00    +0.251 HD
ATOM      5  N   UNL     1      15.771   0.445   8.983  0.00  0.00    -0.178 NA
ATOM      6  C   UNL     1      16.302  -0.697   9.441  0.00  0.00    +0.120 A 
ATOM     17  C   UNL     1      15.322  -1.425  10.121  0.00  0.00    +0.026 A 
ATOM     18  C   UNL     1      15.276  -2.651  10.747  0.00  0.00    -0.003 A 
ATOM     19  C   UNL     1      14.070  -3.083  11.298  0.00  0.00    -0.018 A 
ATOM     20  C   UNL     1      12.921  -2.289  11.198  0.00  0.00    -0.012 A 
ENDROOT
BRANCH   6   7
ATOM      7  C   UNL     1      17.624  -1.092   9.281  0.00  0.00    +0.150 A 
ATOM      8  N   UNL     1      18.149  -2.224   9.720  0.00  0.00    -0.249 N 
ATOM      9  H   UNL     1      17.660  -2.981  10.219  0.00  0.00    +0.230 HD
ATOM     10  C   UNL     1      19.441  -2.187   9.385  0.00  0.00    +0.082 A 
ATOM     11  C   UNL     1      20.475  -3.115   9.549  0.00  0.00    +0.015 A 
ATOM     12  C   UNL     1      21.750  -2.821   9.031  0.00  0.00    -0.020 A 
ATOM     13  C   UNL     1      21.999  -1.614   8.368  0.00  0.00    -0.024 A 
ATOM     14  C   UNL     1      20.949  -0.695   8.182  0.00  0.00    -0.006 A 
ATOM     15  C   UNL     1      19.685  -0.991   8.694  0.00  0.00    +0.032 A 
ATOM     16  N   UNL     1      18.549  -0.331   8.663  0.00  0.00    -0.306 NA
ENDBRANCH   6   7
TORSDOF 1
