REMARK  Name = 2ycq_ligand
REMARK  6 active torsions:
REMARK  status: ('A' for Active; 'I' for Inactive)
REMARK    1  A    between atoms: NAB_2  and  CAJ_4
REMARK    2  A    between atoms: CAN_12  and  CAP_13
REMARK    3  A    between atoms: NAC_15  and  CAQ_16
REMARK    4  A    between atoms: CAT_21  and  CAW_22
REMARK    5  A    between atoms: CAW_22  and  CAX_23
REMARK    6  A    between atoms: NAD_24  and  NAE_25
REMARK                            x       y       z     vdW  Elec       q    Type
REMARK                         _______ _______ _______ _____ _____    ______ ____
ROOT
ATOM      8  C   UNL     1     -47.848 -14.914  -7.076  0.00  0.00    +0.292 C 
ATOM      9  N   UNL     1     -47.127 -14.910  -5.937  0.00  0.00    -0.183 N 
ATOM     10  H   UNL     1     -46.381 -15.602  -5.868  0.00  0.00    +0.276 HD
ATOM     28  O   UNL     1     -48.742 -14.115  -7.376  0.00  0.00    -0.350 OA
ENDROOT
BRANCH   8   7
ATOM      3  C   UNL     1     -47.994 -17.606 -11.175  0.00  0.00    +0.105 A 
ATOM      4  C   UNL     1     -47.671 -17.118  -9.916  0.00  0.00    +0.102 A 
ATOM      5  N   UNL     1     -48.133 -16.076  -9.254  0.00  0.00    -0.261 N 
ATOM      6  H   UNL     1     -48.845 -15.424  -9.583  0.00  0.00    +0.228 HD
ATOM      7  C   UNL     1     -47.510 -16.024  -8.087  0.00  0.00    +0.150 A 
ATOM     29  C   UNL     1     -46.633 -17.035  -7.976  0.00  0.00    +0.005 A 
ATOM     30  C   UNL     1     -46.715 -17.739  -9.117  0.00  0.00    -0.009 A 
ATOM     31  C   UNL     1     -46.067 -18.878  -9.599  0.00  0.00    -0.003 A 
ATOM     32  C   UNL     1     -46.375 -19.370 -10.865  0.00  0.00    -0.012 A 
ATOM     33  C   UNL     1     -47.338 -18.739 -11.661  0.00  0.00    +0.025 A 
BRANCH   3   2
ATOM      1  O   UNL     1     -49.568 -15.812 -11.411  0.00  0.00    -0.494 OA
ATOM      2  N   UNL     1     -48.916 -16.967 -11.891  0.00  0.00    -0.223 N 
ATOM     34  O   UNL     1     -49.238 -17.374 -13.180  0.00  0.00    -0.494 OA
ENDBRANCH   3   2
ENDBRANCH   8   7
BRANCH   9  11
ATOM     11  C   UNL     1     -47.287 -14.087  -4.875  0.00  0.00    +0.146 A 
ATOM     12  C   UNL     1     -48.217 -13.067  -4.826  0.00  0.00    +0.097 A 
ATOM     13  C   UNL     1     -48.344 -12.281  -3.671  0.00  0.00    +0.083 A 
ATOM     14  C   UNL     1     -47.548 -12.493  -2.542  0.00  0.00    +0.083 A 
ATOM     26  C   UNL     1     -46.617 -13.538  -2.587  0.00  0.00    +0.083 A 
ATOM     27  C   UNL     1     -46.498 -14.309  -3.742  0.00  0.00    +0.097 A 
BRANCH  14  15
ATOM     15  C   UNL     1     -47.683 -11.699  -1.392  0.00  0.00    +0.184 C 
ATOM     16  N   UNL     1     -47.310 -12.204  -0.211  0.00  0.00    -0.007 NA
ATOM     25  C   UNL     1     -48.294 -10.288  -1.451  0.00  0.00    +0.201 C 
BRANCH  16  17
ATOM     17  N   UNL     1     -47.357 -11.586   0.869  0.00  0.00    -0.059 N 
ATOM     18  H   UNL     1     -47.683 -10.620   0.895  0.00  0.00    +0.342 HD
ATOM     19  C   UNL     1     -46.974 -12.205   2.003  0.00  0.00    +0.362 A 
ATOM     20  N   UNL     1     -46.534 -13.456   2.040  0.00  0.00    -0.178 N 
ATOM     21  H   UNL     1     -46.469 -14.072   1.230  0.00  0.00    +0.258 HD
ATOM     22  C   UNL     1     -46.155 -13.831   3.402  0.00  0.00    +0.236 A 
ATOM     23  C   UNL     1     -46.501 -12.608   4.219  0.00  0.00    +0.133 A 
ATOM     24  N   UNL     1     -47.018 -11.676   3.228  0.00  0.00    -0.217 NA
ENDBRANCH  16  17
ENDBRANCH  14  15
ENDBRANCH   9  11
TORSDOF 5
