REMARK  Name = 3gcu_ligand
REMARK  10 active torsions:
REMARK  status: ('A' for Active; 'I' for Inactive)
REMARK    1  A    between atoms: C2B_3  and  N1E_4
REMARK    2  A    between atoms: N1Y_12  and  C2D_13
REMARK    3  A    between atoms: C2C_18  and  N1W_19
REMARK    4  A    between atoms: N1X_22  and  C2G_23
REMARK    5  A    between atoms: C2F_25  and  C2L_26
REMARK    6  A    between atoms: C2L_26  and  C1C_27
REMARK    7  A    between atoms: C2L_26  and  C1D_28
REMARK    8  A    between atoms: C2L_26  and  C1B_29
REMARK    9  A    between atoms: N2K_31  and  C2E_32
REMARK   10  A    between atoms: C2A_35  and  C1A_36
REMARK                            x       y       z     vdW  Elec       q    Type
REMARK                         _______ _______ _______ _____ _____    ______ ____
ROOT
ATOM     10  N   UNL     1      13.616  -4.700  -0.019  0.00  0.00    -0.216 N 
ATOM     11  H   UNL     1      13.206  -5.178  -0.795  0.00  0.00    +0.226 HD
ATOM     12  C   UNL     1      14.917  -4.936   0.164  0.00  0.00    +0.323 C 
ATOM     13  N   UNL     1      15.470  -5.774  -0.732  0.00  0.00    -0.179 N 
ATOM     14  H   UNL     1      14.886  -6.045  -1.497  0.00  0.00    +0.234 HD
ATOM     31  O   UNL     1      15.556  -4.414   1.073  0.00  0.00    -0.379 OA
ENDROOT
BRANCH  10   9
ATOM      5  C   UNL     1      12.043  -1.813   1.719  0.00  0.00    +0.054 A 
ATOM      6  C   UNL     1      10.858  -2.444   2.128  0.00  0.00    -0.011 A 
ATOM      7  C   UNL     1      10.626  -3.796   1.816  0.00  0.00    -0.029 A 
ATOM      8  C   UNL     1      11.577  -4.527   1.096  0.00  0.00    -0.011 A 
ATOM      9  C   UNL     1      12.769  -3.918   0.679  0.00  0.00    +0.058 A 
ATOM     32  C   UNL     1      12.991  -2.565   0.978  0.00  0.00    +0.024 A 
BRANCH   5   3
ATOM      1  C   UNL     1      12.061   1.480   3.338  0.00  0.00    +0.045 A 
ATOM      2  C   UNL     1      12.177   0.080   3.208  0.00  0.00    +0.156 A 
ATOM      3  N   UNL     1      12.266  -0.479   1.981  0.00  0.00    -0.251 N 
ATOM      4  H   UNL     1      12.517   0.132   1.190  0.00  0.00    +0.221 HD
ATOM     33  N   UNL     1      12.228  -0.677   4.344  0.00  0.00    -0.256 NA
ATOM     34  C   UNL     1      12.145  -0.120   5.559  0.00  0.00    +0.159 A 
ATOM     35  N   UNL     1      12.029   1.217   5.702  0.00  0.00    -0.299 NA
ATOM     36  C   UNL     1      11.978   2.020   4.633  0.00  0.00    +0.036 A 
ATOM     37  C   UNL     1      11.856   3.399   4.800  0.00  0.00    +0.017 A 
ATOM     38  C   UNL     1      11.802   4.233   3.668  0.00  0.00    +0.029 A 
ATOM     39  C   UNL     1      11.872   3.732   2.370  0.00  0.00    +0.043 A 
ATOM     43  C   UNL     1      12.007   2.338   2.209  0.00  0.00    +0.027 A 
BRANCH  39  40
ATOM     40  N   UNL     1      11.824   4.587   1.297  0.00  0.00    -0.336 N 
ATOM     41  H   UNL     1      11.887   4.215   0.339  0.00  0.00    +0.172 HD
ATOM     42  H   UNL     1      11.725   5.601   1.450  0.00  0.00    +0.172 HD
ENDBRANCH  39  40
ENDBRANCH   5   3
ENDBRANCH  10   9
BRANCH  13  15
ATOM     15  C   UNL     1      16.729  -6.300  -0.726  0.00  0.00    +0.219 A 
ATOM     16  N   UNL     1      17.343  -6.931  -1.733  0.00  0.00    -0.107 N 
ATOM     24  N   UNL     1      18.451  -7.410  -1.365  0.00  0.00    -0.167 NA
ATOM     25  C   UNL     1      18.613  -7.173  -0.066  0.00  0.00    -0.004 A 
ATOM     30  C   UNL     1      17.512  -6.502   0.364  0.00  0.00    +0.003 A 
BRANCH  16  17
ATOM     17  C   UNL     1      16.879  -7.026  -2.995  0.00  0.00    +0.123 A 
ATOM     18  C   UNL     1      16.314  -5.963  -3.723  0.00  0.00    +0.033 A 
ATOM     19  C   UNL     1      15.865  -6.204  -5.037  0.00  0.00    -0.006 A 
ATOM     20  C   UNL     1      15.962  -7.481  -5.588  0.00  0.00    -0.049 A 
ATOM     21  C   UNL     1      15.502  -7.757  -7.024  0.00  0.00    +0.083 C 
ATOM     22  C   UNL     1      16.522  -8.520  -4.869  0.00  0.00    -0.006 A 
ATOM     23  C   UNL     1      16.971  -8.291  -3.579  0.00  0.00    +0.033 A 
ENDBRANCH  16  17
BRANCH  25  26
ATOM     26  C   UNL     1      19.824  -7.619   0.809  0.00  0.00    -0.046 C 
ATOM     27  C   UNL     1      20.242  -6.517   1.755  0.00  0.00    -0.047 C 
ATOM     28  C   UNL     1      21.084  -8.074   0.065  0.00  0.00    -0.047 C 
ATOM     29  C   UNL     1      19.335  -8.818   1.619  0.00  0.00    -0.047 C 
ENDBRANCH  25  26
ENDBRANCH  13  15
TORSDOF 6
