REMARK  Name = 2P55
REMARK  8 active torsions:
REMARK  status: ('A' for Active; 'I' for Inactive)
REMARK    1  A    between atoms: C_3  and  N_9
REMARK    2  A    between atoms: C_6  and  C_7
REMARK    3  A    between atoms: N_9  and  C_10
REMARK    4  A    between atoms: C_11  and  C_18
REMARK    5  A    between atoms: N_20  and  O_21
REMARK    6  A    between atoms: O_21  and  C_22
REMARK    7  A    between atoms: C_22  and  C_23
REMARK    8  A    between atoms: C_23  and  O_24
REMARK                            x       y       z     vdW  Elec       q    Type
REMARK                         _______ _______ _______ _____ _____    ______ ____
ROOT
ATOM     10  C   UNL     1      50.169  26.390  -5.670  0.00  0.00    +0.082 A 
ATOM     11  C   UNL     1      50.088  24.994  -5.509  0.00  0.00    +0.180 A 
ATOM     12  F   UNL     1      49.309  24.267  -6.312  0.00  0.00    -0.201 F 
ATOM     13  C   UNL     1      50.801  24.333  -4.524  0.00  0.00    +0.160 A 
ATOM     14  F   UNL     1      50.681  23.009  -4.403  0.00  0.00    -0.202 F 
ATOM     15  C   UNL     1      51.645  25.021  -3.653  0.00  0.00    +0.042 A 
ATOM     16  C   UNL     1      51.773  26.416  -3.788  0.00  0.00    +0.018 A 
ATOM     17  C   UNL     1      51.045  27.116  -4.789  0.00  0.00    +0.063 A 
ENDROOT
BRANCH  17  18
ATOM     18  C   UNL     1      51.200  28.574  -4.940  0.00  0.00    +0.269 C 
ATOM     19  N   UNL     1      51.752  29.268  -3.919  0.00  0.00    -0.190 N 
ATOM     20  H   UNL     1      52.026  28.774  -3.066  0.00  0.00    +0.183 HD
ATOM     26  O   UNL     1      50.870  29.150  -5.967  0.00  0.00    -0.268 OA
BRANCH  19  21
ATOM     21  O   UNL     1      51.961  30.675  -4.009  0.00  0.00    -0.277 OA
BRANCH  21  22
ATOM     22  C   UNL     1      53.012  31.111  -4.890  0.00  0.00    +0.217 C 
BRANCH  22  23
ATOM     23  C   UNL     1      53.763  32.357  -4.418  0.00  0.00    +0.186 C 
BRANCH  23  24
ATOM     24  O   UNL     1      53.598  32.594  -3.036  0.00  0.00    -0.393 OA
ATOM     25  H   UNL     1      54.267  33.230  -2.761  0.00  0.00    +0.209 HD
ENDBRANCH  23  24
ENDBRANCH  22  23
ENDBRANCH  21  22
ENDBRANCH  19  21
ENDBRANCH  17  18
BRANCH  10   8
ATOM      8  N   UNL     1      49.446  27.065  -6.646  0.00  0.00    -0.309 N 
ATOM      9  H   UNL     1      50.010  27.674  -7.244  0.00  0.00    +0.152 HD
BRANCH   8   7
ATOM      1  C   UNL     1      46.355  27.975  -8.464  0.00  0.00    +0.057 A 
ATOM      2  C   UNL     1      45.373  27.214  -7.809  0.00  0.00    +0.028 A 
ATOM      5  C   UNL     1      45.715  26.378  -6.730  0.00  0.00    +0.019 A 
ATOM      6  C   UNL     1      47.052  26.297  -6.300  0.00  0.00    +0.027 A 
ATOM      7  C   UNL     1      48.081  27.054  -6.953  0.00  0.00    +0.067 A 
ATOM     27  C   UNL     1      47.692  27.881  -8.023  0.00  0.00    +0.146 A 
ATOM     28  F   UNL     1      48.640  28.604  -8.648  0.00  0.00    -0.203 F 
BRANCH   2   3
ATOM      3  C   UNL     1      44.010  27.292  -8.254  0.00  0.00    -0.070 C 
ATOM      4  C   UNL     1      42.878  27.325  -8.628  0.00  0.00    +0.009 C 
ENDBRANCH   2   3
ENDBRANCH   8   7
ENDBRANCH  10   8
TORSDOF 8
