REMARK  Name = 559
REMARK  2 active torsions:
REMARK  status: ('A' for Active; 'I' for Inactive)
REMARK    1  A    between atoms: CAO_7  and  CAM_8
REMARK    2  A    between atoms: NAD_23  and  CAP_24
REMARK                            x       y       z     vdW  Elec       q    Type
REMARK                         _______ _______ _______ _____ _____    ______ ____
ROOT
ATOM      3  C   UNL     1     -27.506 -59.530 137.897  0.00  0.00    +0.003 A 
ATOM      4  C   UNL     1     -27.858 -59.212 139.171  0.00  0.00    +0.002 A 
ATOM      5  C   UNL     1     -26.998 -58.424 139.950  0.00  0.00    +0.019 A 
ATOM      6  C   UNL     1     -25.773 -57.973 139.411  0.00  0.00    +0.080 A 
ATOM      7  N   UNL     1     -24.904 -57.222 140.229  0.00  0.00    -0.280 N 
ATOM      8  C   UNL     1     -25.094 -56.234 141.095  0.00  0.00    +0.147 A 
ATOM      9  N   UNL     1     -23.979 -55.855 141.607  0.00  0.00    -0.133 NA
ATOM     10  N   UNL     1     -22.931 -56.710 141.088  0.00  0.00    -0.133 NA
ATOM     11  C   UNL     1     -26.440 -55.619 141.352  0.00  0.00    +0.074 C 
ATOM     12  C   UNL     1     -23.545 -57.533 140.239  0.00  0.00    +0.148 A 
ATOM     13  C   UNL     1     -22.767 -58.558 139.530  0.00  0.00    +0.079 C 
ATOM     14  C   UNL     1     -23.253 -59.913 139.997  0.00  0.00    +0.010 C 
ATOM     15  C   UNL     1     -22.884 -58.362 138.034  0.00  0.00    +0.103 C 
ATOM     16  N   UNL     1     -24.204 -57.880 137.500  0.00  0.00    -0.285 N 
ATOM     24  C   UNL     1     -25.422 -58.294 138.078  0.00  0.00    +0.068 A 
ATOM     25  C   UNL     1     -26.316 -59.086 137.335  0.00  0.00    +0.016 A 
ENDROOT
BRANCH   3   2
ATOM      1  C   UNL     1     -27.934 -61.130 135.978  0.00  0.00    +0.004 A 
ATOM      2  C   UNL     1     -28.419 -60.309 137.021  0.00  0.00    +0.019 A 
ATOM     26  C   UNL     1     -29.819 -60.309 137.247  0.00  0.00    +0.100 A 
ATOM     27  N   UNL     1     -30.657 -61.097 136.399  0.00  0.00    -0.226 NA
ATOM     28  C   UNL     1     -30.138 -61.827 135.414  0.00  0.00    +0.170 A 
ATOM     29  N   UNL     1     -30.891 -62.534 134.602  0.00  0.00    -0.107 NA
ATOM     30  C   UNL     1     -28.777 -61.868 135.187  0.00  0.00    +0.038 A 
ENDBRANCH   3   2
BRANCH  16  17
ATOM     17  C   UNL     1     -24.214 -57.365 136.235  0.00  0.00    +0.052 A 
ATOM     18  C   UNL     1     -25.316 -56.698 135.734  0.00  0.00    +0.016 A 
ATOM     19  C   UNL     1     -25.367 -56.071 134.509  0.00  0.00    +0.013 A 
ATOM     20  C   UNL     1     -24.256 -56.092 133.717  0.00  0.00    +0.058 A 
ATOM     21  C   UNL     1     -23.101 -56.818 134.176  0.00  0.00    +0.013 A 
ATOM     22 CL   UNL     1     -24.180 -55.349 132.179  0.00  0.00    -0.082 Cl
ATOM     23  C   UNL     1     -23.042 -57.419 135.412  0.00  0.00    +0.016 A 
ENDBRANCH  16  17
TORSDOF 2
