REMARK  Name = 62G
REMARK  3 active torsions:
REMARK  status: ('A' for Active; 'I' for Inactive)
REMARK    1  A    between atoms: C13_7  and  C21_10
REMARK    2  A    between atoms: C15_8  and  C17_9
REMARK    3  A    between atoms: C17_9  and  C18_20
REMARK                            x       y       z     vdW  Elec       q    Type
REMARK                         _______ _______ _______ _____ _____    ______ ____
ROOT
ATOM      1  N   UNL     1      13.579  -4.702   0.217  0.00  0.00    -0.082 NA
ATOM      2  C   UNL     1      12.281  -4.762   0.562  0.00  0.00    +0.101 A 
ATOM      3  C   UNL     1      11.717  -3.700   1.418  0.00  0.00    +0.056 C 
ATOM      4  C   UNL     1      11.648  -5.870  -0.059  0.00  0.00    +0.052 A 
ATOM      5  C   UNL     1      10.280  -6.366  -0.193  0.00  0.00    +0.005 A 
ATOM      6  C   UNL     1       9.429  -6.410   0.909  0.00  0.00    +0.000 A 
ATOM      7  C   UNL     1       8.170  -6.961   0.793  0.00  0.00    +0.000 A 
ATOM      8  C   UNL     1       7.735  -7.470  -0.416  0.00  0.00    +0.000 A 
ATOM      9  C   UNL     1       8.568  -7.423  -1.525  0.00  0.00    +0.001 A 
ATOM     10  C   UNL     1       9.844  -6.914  -1.391  0.00  0.00    +0.017 A 
ATOM     11  C   UNL     1      10.643  -6.857  -2.635  0.00  0.00    +0.076 C 
ATOM     12  N   UNL     1      11.891  -7.165  -2.810  0.00  0.00    -0.264 NA
ATOM     13  C   UNL     1      12.642  -7.632  -1.651  0.00  0.00    +0.172 C 
ATOM     24  C   UNL     1      12.665  -6.469  -0.765  0.00  0.00    +0.176 A 
ATOM     25  O   UNL     1      13.829  -5.809  -0.584  0.00  0.00    -0.356 OA
ENDROOT
BRANCH  11  18
ATOM     18  C   UNL     1       9.890  -6.417  -3.822  0.00  0.00    +0.017 A 
ATOM     19  C   UNL     1       8.764  -5.653  -3.620  0.00  0.00    +0.001 A 
ATOM     20  C   UNL     1       8.044  -5.218  -4.712  0.00  0.00    +0.000 A 
ATOM     21  C   UNL     1       8.465  -5.535  -5.982  0.00  0.00    +0.000 A 
ATOM     22  C   UNL     1       9.605  -6.301  -6.188  0.00  0.00    +0.000 A 
ATOM     23  C   UNL     1      10.322  -6.754  -5.089  0.00  0.00    +0.001 A 
ENDBRANCH  11  18
BRANCH  13  14
ATOM     14  C   UNL     1      14.039  -8.052  -2.074  0.00  0.00    +0.121 C 
BRANCH  14  15
ATOM     15  C   UNL     1      13.890  -9.047  -3.185  0.00  0.00    +0.263 C 
ATOM     16  O   UNL     1      12.914  -9.763  -3.336  0.00  0.00    -0.272 OA
ATOM     17  N   UNL     1      14.983  -9.100  -3.992  0.00  0.00    -0.088 NA
ENDBRANCH  14  15
ENDBRANCH  13  14
TORSDOF 3
