REMARK  Name = 3lcd_ligand
REMARK  8 active torsions:
REMARK  status: ('A' for Active; 'I' for Inactive)
REMARK    1  A    between atoms: N1_1  and  C2_14
REMARK    2  A    between atoms: C5_4  and  C18_23
REMARK    3  A    between atoms: C7_5  and  N8_16
REMARK    4  A    between atoms: C10_6  and  C9_17
REMARK    5  A    between atoms: C21_10  and  C24_12
REMARK    6  A    between atoms: N8_16  and  C9_17
REMARK    7  A    between atoms: C30_30  and  C31_31
REMARK    8  A    between atoms: C31_31  and  N32_32
REMARK                            x       y       z     vdW  Elec       q    Type
REMARK                         _______ _______ _______ _____ _____    ______ ____
ROOT
ATOM      4  C   UNL     1     -20.749   3.766 -17.893  0.00  0.00    +0.163 A 
ATOM      5  C   UNL     1     -22.123   3.853 -17.724  0.00  0.00    +0.165 A 
ATOM     17  N   UNL     1     -22.914   2.842 -18.108  0.00  0.00    -0.271 NA
ATOM     18  C   UNL     1     -22.316   1.773 -18.651  0.00  0.00    +0.052 A 
ATOM     39  C   UNL     1     -20.956   1.720 -18.819  0.00  0.00    +0.094 A 
ATOM     40  N   UNL     1     -20.139   2.706 -18.445  0.00  0.00    -0.274 NA
ENDROOT
BRANCH  18  19
ATOM     19  C   UNL     1     -23.175   0.677 -19.042  0.00  0.00    -0.003 A 
ATOM     20  C   UNL     1     -22.842  -0.157 -20.091  0.00  0.00    +0.016 A 
ATOM     21  C   UNL     1     -23.670  -1.199 -20.455  0.00  0.00    +0.025 A 
ATOM     22  C   UNL     1     -24.841  -1.423 -19.763  0.00  0.00    +0.050 A 
ATOM     37  C   UNL     1     -25.186  -0.597 -18.717  0.00  0.00    +0.025 A 
ATOM     38  C   UNL     1     -24.356   0.445 -18.363  0.00  0.00    +0.016 A 
BRANCH  22  23
ATOM     23  C   UNL     1     -25.773  -2.516 -20.108  0.00  0.00    +0.208 C 
ATOM     24  N   UNL     1     -25.287  -3.730 -20.608  0.00  0.00    -0.264 N 
ATOM     25  C   UNL     1     -26.208  -4.849 -20.689  0.00  0.00    +0.145 C 
ATOM     33  C   UNL     1     -25.469  -6.087 -20.230  0.00  0.00    +0.035 C 
ATOM     34  C   UNL     1     -24.024  -5.696 -20.083  0.00  0.00    +0.027 C 
ATOM     35  C   UNL     1     -23.950  -4.204 -20.327  0.00  0.00    +0.138 C 
ATOM     36  O   UNL     1     -26.958  -2.271 -19.923  0.00  0.00    -0.385 OA
BRANCH  25  26
ATOM     26  C   UNL     1     -26.774  -5.104 -22.077  0.00  0.00    +0.159 C 
BRANCH  26  27
ATOM     27  N   UNL     1     -27.285  -3.890 -22.706  0.00  0.00    +0.237 N 
ATOM     28  H   UNL     1     -26.734  -3.088 -22.444  0.00  0.00    +0.203 HD
ATOM     29  C   UNL     1     -28.686  -3.704 -22.326  0.00  0.00    +0.131 C 
ATOM     30  C   UNL     1     -29.485  -3.422 -23.576  0.00  0.00    +0.056 C 
ATOM     31  C   UNL     1     -28.555  -3.660 -24.739  0.00  0.00    +0.056 C 
ATOM     32  C   UNL     1     -27.239  -4.117 -24.151  0.00  0.00    +0.131 C 
ENDBRANCH  26  27
ENDBRANCH  25  26
ENDBRANCH  22  23
ENDBRANCH  18  19
BRANCH   4   1
ATOM      1  N   UNL     1     -19.948   4.831 -17.470  0.00  0.00    -0.318 N 
ATOM      2  H   UNL     1     -18.926   4.785 -17.587  0.00  0.00    +0.177 HD
ATOM      3  H   UNL     1     -20.380   5.662 -17.041  0.00  0.00    +0.177 HD
ENDBRANCH   4   1
BRANCH   5   6
ATOM      6  N   UNL     1     -22.648   5.026 -17.127  0.00  0.00    -0.293 N 
ATOM      7  H   UNL     1     -22.032   5.771 -16.773  0.00  0.00    +0.183 HD
BRANCH   6   8
ATOM      8  C   UNL     1     -24.107   5.131 -17.036  0.00  0.00    +0.198 C 
BRANCH   8   9
ATOM      9  C   UNL     1     -24.687   4.461 -15.814  0.00  0.00    +0.007 A 
ATOM     10  C   UNL     1     -24.210   4.675 -14.533  0.00  0.00    +0.044 A 
ATOM     11 CL   UNL     1     -22.893   5.739 -14.204  0.00  0.00    -0.077 Cl
ATOM     12  C   UNL     1     -24.776   4.042 -13.447  0.00  0.00    +0.006 A 
ATOM     13  C   UNL     1     -25.840   3.183 -13.597  0.00  0.00    -0.012 A 
ATOM     14  C   UNL     1     -26.339   2.964 -14.859  0.00  0.00    +0.006 A 
ATOM     15  C   UNL     1     -25.762   3.595 -15.940  0.00  0.00    +0.044 A 
ATOM     16 CL   UNL     1     -26.456   3.272 -17.478  0.00  0.00    -0.077 Cl
ENDBRANCH   8   9
ENDBRANCH   6   8
ENDBRANCH   5   6
TORSDOF 8
