REMARK  Name = 501
REMARK  0 active torsions:
REMARK  status: ('A' for Active; 'I' for Inactive)
REMARK                            x       y       z     vdW  Elec       q    Type
REMARK                         _______ _______ _______ _____ _____    ______ ____
ROOT
ATOM      1  C   UNL     1      12.000   3.925  23.550  0.00  0.00    +0.000 C 
ENDROOT
TORSDOF 0
