REMARK  Name = 2btr_ligand
REMARK  5 active torsions:
REMARK  status: ('A' for Active; 'I' for Inactive)
REMARK    1  A    between atoms: C10_2  and  C12_12
REMARK    2  A    between atoms: C1_8  and  C6_9
REMARK    3  A    between atoms: C6_9  and  C8_10
REMARK    4  A    between atoms: C6_9  and  C7_11
REMARK    5  A    between atoms: C12_12  and  C13_13
REMARK                            x       y       z     vdW  Elec       q    Type
REMARK                         _______ _______ _______ _____ _____    ______ ____
ROOT
ATOM      1  O   UNL     1      10.880  45.713  25.963  0.00  0.00    -0.378 OA
ATOM      2  C   UNL     1      10.089  46.361  25.281  0.00  0.00    +0.226 C 
ATOM     10  N   UNL     1      10.341  46.684  24.019  0.00  0.00    -0.197 N 
ATOM     11  H   UNL     1       9.611  47.135  23.505  0.00  0.00    +0.238 HD
ATOM     12  C   UNL     1      11.636  46.427  23.299  0.00  0.00    +0.198 A 
ATOM     13  S   UNL     1      12.887  45.492  24.088  0.00  0.00    +0.018 S 
ATOM     14  C   UNL     1      13.723  45.673  22.640  0.00  0.00    +0.015 A 
ATOM     18  C   UNL     1      13.042  46.341  21.695  0.00  0.00    -0.017 A 
ATOM     19  N   UNL     1      11.853  46.738  21.973  0.00  0.00    -0.339 NA
ENDROOT
BRANCH  14  15
ATOM     15  C   UNL     1      15.104  45.097  22.395  0.00  0.00    +0.036 C 
ATOM     16  C   UNL     1      16.056  45.231  23.578  0.00  0.00    +0.022 C 
ATOM     17  C   UNL     1      14.965  43.633  21.927  0.00  0.00    +0.022 C 
ENDBRANCH  14  15
BRANCH   2   3
ATOM      3  C   UNL     1       8.724  46.722  25.823  0.00  0.00    +0.220 C 
BRANCH   3   4
ATOM      4  C   UNL     1       8.710  47.876  26.770  0.00  0.00    +0.004 A 
ATOM      5  C   UNL     1       8.491  49.142  26.283  0.00  0.00    +0.092 A 
ATOM      6  N   UNL     1       8.500  50.183  27.116  0.00  0.00    -0.304 NA
ATOM      7  C   UNL     1       8.715  50.033  28.428  0.00  0.00    +0.081 A 
ATOM      8  C   UNL     1       8.916  48.790  28.967  0.00  0.00    +0.029 A 
ATOM      9  C   UNL     1       8.915  47.679  28.124  0.00  0.00    +0.030 A 
ENDBRANCH   3   4
ENDBRANCH   2   3
TORSDOF 3
