REMARK  Name = DBQ
REMARK  0 active torsions:
REMARK  status: ('A' for Active; 'I' for Inactive)
REMARK                            x       y       z     vdW  Elec       q    Type
REMARK                         _______ _______ _______ _____ _____    ______ ____
ROOT
ATOM      1  O   UNL     1       7.131  13.973  27.125  0.00  0.00    -0.267 OA
ATOM      2  C   UNL     1       6.687  13.200  26.257  0.00  0.00    +0.282 C 
ATOM      3  N   UNL     1       6.170  12.015  26.521  0.00  0.00    -0.200 NA
ATOM      4  C   UNL     1       5.669  11.020  25.568  0.00  0.00    +0.120 C 
ATOM      5  C   UNL     1       4.751  11.553  24.468  0.00  0.00    +0.053 C 
ATOM      6  C   UNL     1       5.594  12.130  23.345  0.00  0.00    +0.022 C 
ATOM      7  C   UNL     1       6.469  13.278  23.594  0.00  0.00    +0.023 A 
ATOM      8  C   UNL     1       6.967  14.240  22.707  0.00  0.00    +0.022 A 
ATOM      9  C   UNL     1       7.673  15.172  23.398  0.00  0.00    +0.099 A 
ATOM     10  N   UNL     1       7.599  14.881  24.711  0.00  0.00    -0.239 NA
ATOM     11  C   UNL     1       5.507  11.608  21.967  0.00  0.00    +0.227 C 
ATOM     12  C   UNL     1       4.631  10.513  21.501  0.00  0.00    +0.376 C 
ATOM     13  O   UNL     1       3.833   9.836  22.224  0.00  0.00    -0.245 OA
ATOM     14  N   UNL     1       4.769  10.272  20.201  0.00  0.00    +0.009 NA
ATOM     15  C   UNL     1       5.726  11.160  19.904  0.00  0.00    +0.485 C 
ATOM     16  N   UNL     1       6.214  11.310  18.666  0.00  0.00    +0.148 NA
ATOM     17  N   UNL     1       6.203  11.966  20.873  0.00  0.00    -0.061 NA
ATOM     18  C   UNL     1       6.864  13.783  24.915  0.00  0.00    +0.136 A 
ENDROOT
TORSDOF 0
