REMARK  Name = 3L8P
REMARK  5 active torsions:
REMARK  status: ('A' for Active; 'I' for Inactive)
REMARK    1  A    between atoms: N_5  and  C_14
REMARK    2  A    between atoms: N_10  and  C_21
REMARK    3  A    between atoms: C_21  and  C_22
REMARK    4  A    between atoms: C_21  and  C_23
REMARK    5  A    between atoms: C_27  and  C_28
REMARK                            x       y       z     vdW  Elec       q    Type
REMARK                         _______ _______ _______ _____ _____    ______ ____
ROOT
ATOM      1  C   UNL     1      18.593  73.680  41.143  0.00  0.00    +0.013 A 
ATOM      2  C   UNL     1      19.694  72.848  40.896  0.00  0.00    +0.008 A 
ATOM      3  C   UNL     1      21.102  73.086  40.813  0.00  0.00    +0.016 A 
ATOM      4  C   UNL     1      21.980  71.980  40.532  0.00  0.00    -0.018 A 
ATOM      5  C   UNL     1      21.434  70.687  40.347  0.00  0.00    +0.008 A 
ATOM      6  C   UNL     1      20.042  70.452  40.431  0.00  0.00    +0.027 A 
ATOM     13  C   UNL     1      19.159  71.557  40.709  0.00  0.00    +0.050 A 
ATOM     14  N   UNL     1      17.785  71.515  40.819  0.00  0.00    -0.337 N 
ATOM     18  C   UNL     1      18.517  75.087  41.397  0.00  0.00    -0.008 A 
ATOM     19  C   UNL     1      19.650  76.111  41.481  0.00  0.00    +0.141 C 
ATOM     20  N   UNL     1      18.909  77.327  41.742  0.00  0.00    -0.307 N 
ATOM     21  H   UNL     1      19.379  78.281  41.864  0.00  0.00    +0.149 HD
ATOM     22  C   UNL     1      17.592  77.153  41.817  0.00  0.00    +0.245 C 
ATOM     23  O   UNL     1      16.793  78.055  42.027  0.00  0.00    -0.270 OA
ATOM     24  C   UNL     1      17.250  75.687  41.603  0.00  0.00    +0.050 A 
ATOM     25  C   UNL     1      16.038  74.923  41.570  0.00  0.00    +0.003 A 
ATOM     26  C   UNL     1      14.625  75.511  41.788  0.00  0.00    +0.024 A 
ATOM     27  C   UNL     1      14.105  76.749  41.777  0.00  0.00    +0.116 A 
ATOM     28  N   UNL     1      12.827  76.656  42.025  0.00  0.00    -0.274 N 
ATOM     29  C   UNL     1      11.902  77.773  42.103  0.00  0.00    +0.172 C 
ATOM     30  N   UNL     1      12.477  75.371  42.203  0.00  0.00    -0.176 NA
ATOM     31  C   UNL     1      13.490  74.634  42.079  0.00  0.00    +0.071 A 
ATOM     32  C   UNL     1      13.611  73.145  42.191  0.00  0.00    +0.062 C 
ATOM     33  C   UNL     1      14.782  72.662  41.280  0.00  0.00    +0.044 C 
ATOM     34  C   UNL     1      16.120  73.479  41.314  0.00  0.00    -0.014 A 
ATOM     35  C   UNL     1      17.421  72.857  41.090  0.00  0.00    +0.055 A 
ENDROOT
BRANCH   4   7
ATOM      7  C   UNL     1      23.504  72.108  40.405  0.00  0.00    +0.148 C 
ATOM      8  C   UNL     1      24.218  73.180  41.291  0.00  0.00    +0.036 C 
ATOM      9  C   UNL     1      25.750  73.122  41.042  0.00  0.00    +0.005 C 
ATOM     10  C   UNL     1      26.043  73.370  39.534  0.00  0.00    +0.028 C 
ATOM     11  C   UNL     1      25.245  72.331  38.688  0.00  0.00    +0.161 C 
ATOM     12  O   UNL     1      23.828  72.380  39.011  0.00  0.00    -0.372 OA
ENDBRANCH   4   7
BRANCH  14  15
ATOM     15  C   UNL     1      17.183  70.525  39.853  0.00  0.00    +0.082 C 
ATOM     16  C   UNL     1      16.484  71.179  38.617  0.00  0.00    +0.030 C 
ATOM     17  C   UNL     1      16.246  69.463  40.494  0.00  0.00    +0.030 C 
ENDBRANCH  14  15
TORSDOF 2
