REMARK  Name = 2SJ
REMARK  4 active torsions:
REMARK  status: ('A' for Active; 'I' for Inactive)
REMARK    1  A    between atoms: N1_4  and  C11_5
REMARK    2  A    between atoms: C5_12  and  O3_19
REMARK    3  A    between atoms: C3_13  and  O2_17
REMARK    4  A    between atoms: C1_14  and  O1_15
REMARK                            x       y       z     vdW  Elec       q    Type
REMARK                         _______ _______ _______ _____ _____    ______ ____
ROOT
ATOM      4  C   UNL     1       5.165  51.290   5.948  0.00  0.00    +0.118 C 
ATOM      5  C   UNL     1       4.980  51.026   7.444  0.00  0.00    +0.031 C 
ATOM      6  C   UNL     1       4.360  49.662   7.759  0.00  0.00    +0.029 C 
ATOM      7  C   UNL     1       4.707  48.580   6.751  0.00  0.00    -0.016 A 
ATOM      8  C   UNL     1       5.491  47.497   7.133  0.00  0.00    +0.036 A 
ATOM      9  C   UNL     1       5.816  46.494   6.229  0.00  0.00    +0.175 A 
ATOM     12  C   UNL     1       5.367  46.571   4.935  0.00  0.00    +0.206 A 
ATOM     13  C   UNL     1       4.573  47.627   4.551  0.00  0.00    +0.175 A 
ATOM     18  C   UNL     1       4.244  48.643   5.452  0.00  0.00    +0.033 A 
ATOM     19  C   UNL     1       3.382  49.787   4.989  0.00  0.00    +0.001 A 
ATOM     20  C   UNL     1       2.239  49.384   4.387  0.00  0.00    +0.003 A 
ATOM     21  C   UNL     1       1.165  50.140   3.788  0.00  0.00    +0.045 A 
ATOM     22  C   UNL     1       1.044  51.465   3.711  0.00  0.00    +0.234 A 
ATOM     23  C   UNL     1       1.946  52.487   4.218  0.00  0.00    +0.234 A 
ATOM     24  C   UNL     1       3.213  52.296   4.917  0.00  0.00    +0.043 A 
ATOM     25  O   UNL     1       1.623  53.654   4.017  0.00  0.00    -0.283 OA
ATOM     26  O   UNL     1      -0.021  51.923   3.084  0.00  0.00    -0.283 OA
ATOM     27  C   UNL     1       3.839  51.153   5.244  0.00  0.00    +0.001 A 
ENDROOT
BRANCH   4   3
ATOM      1  O   UNL     1       6.919  54.014   4.407  0.00  0.00    -0.273 OA
ATOM      2  C   UNL     1       6.319  52.951   4.546  0.00  0.00    +0.242 C 
ATOM      3  N   UNL     1       5.811  52.571   5.726  0.00  0.00    -0.203 NA
ATOM     28  C   UNL     1       6.132  52.080   3.364  0.00  0.00    +0.096 C 
ENDBRANCH   4   3
BRANCH   9  10
ATOM     10  O   UNL     1       6.578  45.405   6.556  0.00  0.00    -0.468 OA
ATOM     11  C   UNL     1       7.121  45.229   7.855  0.00  0.00    +0.253 C 
ENDBRANCH   9  10
BRANCH  13  14
ATOM     14  O   UNL     1       4.145  47.679   3.255  0.00  0.00    -0.468 OA
ATOM     15  C   UNL     1       4.709  48.671   2.397  0.00  0.00    +0.253 C 
ENDBRANCH  13  14
BRANCH  12  16
ATOM     16  O   UNL     1       5.631  45.558   4.059  0.00  0.00    -0.465 OA
ATOM     17  C   UNL     1       6.681  45.661   3.156  0.00  0.00    +0.253 C 
ENDBRANCH  12  16
TORSDOF 4
