REMARK  Name = 5KX7
REMARK  6 active torsions:
REMARK  status: ('A' for Active; 'I' for Inactive)
REMARK    1  A    between atoms: N_1  and  C_15
REMARK    2  A    between atoms: C_2  and  C_4
REMARK    3  A    between atoms: C_6  and  C_10
REMARK    4  A    between atoms: N_13  and  C_24
REMARK    5  A    between atoms: N_17  and  C_20
REMARK    6  A    between atoms: C_19  and  C_21
REMARK                            x       y       z     vdW  Elec       q    Type
REMARK                         _______ _______ _______ _____ _____    ______ ____
ROOT
ATOM      1  N   UNL     1      34.823  40.437  60.755  0.00  0.00    -0.281 N 
ATOM      2  H   UNL     1      34.516  40.682  59.760  0.00  0.00    +0.155 HD
ATOM     15  C   UNL     1      33.862  40.298  61.726  0.00  0.00    +0.266 C 
ATOM     28  O   UNL     1      34.150  40.103  62.902  0.00  0.00    -0.268 OA
ENDROOT
BRANCH   1   3
ATOM      3  C   UNL     1      36.207  40.269  61.019  0.00  0.00    +0.054 C 
ATOM      4  C   UNL     1      37.235  40.056  60.050  0.00  0.00    +0.122 C 
ATOM     10  N   UNL     1      38.450  39.940  60.600  0.00  0.00    -0.272 N 
ATOM     11  H   UNL     1      39.384  39.780  60.103  0.00  0.00    +0.167 HD
ATOM     12  N   UNL     1      38.227  40.072  61.930  0.00  0.00    -0.227 NA
ATOM     13  C   UNL     1      39.353  39.975  62.851  0.00  0.00    +0.128 C 
ATOM     14  C   UNL     1      36.938  40.260  62.237  0.00  0.00    +0.158 C 
BRANCH   4   5
ATOM      5  C   UNL     1      37.041  39.925  58.598  0.00  0.00    +0.258 C 
ATOM      6  O   UNL     1      35.969  40.305  58.071  0.00  0.00    -0.269 OA
ATOM      7  N   UNL     1      38.029  39.351  57.911  0.00  0.00    -0.324 N 
ATOM      8  H   UNL     1      37.943  39.229  56.851  0.00  0.00    +0.145 HD
ATOM      9  H   UNL     1      38.908  39.012  58.419  0.00  0.00    +0.145 HD
ENDBRANCH   4   5
ENDBRANCH   1   3
BRANCH  15  16
ATOM     16  C   UNL     1      32.432  40.240  61.258  0.00  0.00    +0.126 A 
ATOM     17  C   UNL     1      31.442  39.811  62.140  0.00  0.00    +0.033 A 
ATOM     18  C   UNL     1      30.157  39.639  61.662  0.00  0.00    +0.004 A 
ATOM     19  C   UNL     1      29.888  39.904  60.335  0.00  0.00    +0.028 A 
ATOM     20  C   UNL     1      30.934  40.319  59.515  0.00  0.00    +0.075 A 
ATOM     27  N   UNL     1      32.193  40.474  59.958  0.00  0.00    -0.242 NA
BRANCH  20  21
ATOM     21  C   UNL     1      30.724  40.579  58.072  0.00  0.00    +0.038 A 
ATOM     22  C   UNL     1      31.707  40.593  57.111  0.00  0.00    +0.118 A 
ATOM     23  N   UNL     1      31.141  40.852  55.927  0.00  0.00    -0.274 N 
ATOM     24  C   UNL     1      31.809  40.967  54.639  0.00  0.00    +0.172 C 
ATOM     25  N   UNL     1      29.755  41.004  56.066  0.00  0.00    -0.179 NA
ATOM     26  C   UNL     1      29.534  40.825  57.357  0.00  0.00    +0.144 A 
ENDBRANCH  20  21
ENDBRANCH  15  16
TORSDOF 4
