REMARK  Name = 4f65_ligand
REMARK  7 active torsions:
REMARK  status: ('A' for Active; 'I' for Inactive)
REMARK    1  A    between atoms: C23_9  and  C22_18
REMARK    2  A    between atoms: C2_11  and  C1_17
REMARK    3  A    between atoms: C18_12  and  C21_19
REMARK    4  A    between atoms: C4_13  and  C7_20
REMARK    5  A    between atoms: C16_14  and  N15_26
REMARK    6  A    between atoms: C22_18  and  C21_19
REMARK    7  A    between atoms: C7_20  and  N8_27
REMARK                            x       y       z     vdW  Elec       q    Type
REMARK                         _______ _______ _______ _____ _____    ______ ____
ROOT
ATOM     12  N   UNL     1      19.679  -1.261 -14.419  0.00  0.00    -0.228 N 
ATOM     13  H   UNL     1      20.090  -0.477 -14.926  0.00  0.00    +0.223 HD
ATOM     14  C   UNL     1      20.531  -2.350 -14.189  0.00  0.00    +0.146 A 
ATOM     15  N   UNL     1      20.097  -3.393 -13.464  0.00  0.00    -0.235 NA
ATOM     16  C   UNL     1      20.955  -4.407 -13.254  0.00  0.00    +0.180 A 
ATOM     17  N   UNL     1      20.569  -5.536 -12.506  0.00  0.00    -0.274 N 
ATOM     18  H   UNL     1      21.234  -6.258 -12.227  0.00  0.00    +0.190 HD
ATOM     26  N   UNL     1      22.222  -4.423 -13.708  0.00  0.00    -0.269 NA
ATOM     27  C   UNL     1      22.639  -3.384 -14.449  0.00  0.00    +0.098 A 
ATOM     28  C   UNL     1      21.812  -2.327 -14.739  0.00  0.00    +0.071 A 
ATOM     29 BR   UNL     1      22.487  -0.931 -15.833  0.00  0.00    -0.054 Br
ENDROOT
BRANCH  12  11
ATOM      7  C   UNL     1      16.410  -1.396 -13.062  0.00  0.00    -0.010 A 
ATOM      8  N   UNL     1      16.428  -0.302 -13.864  0.00  0.00    -0.252 NA
ATOM      9  N   UNL     1      17.608  -0.082 -14.446  0.00  0.00    -0.211 N 
ATOM     10  H   UNL     1      17.870   0.695 -15.053  0.00  0.00    +0.247 HD
ATOM     11  C   UNL     1      18.373  -1.111 -14.055  0.00  0.00    +0.174 A 
ATOM     30  C   UNL     1      17.661  -1.958 -13.169  0.00  0.00    -0.009 A 
BRANCH   7   6
ATOM      6  C   UNL     1      15.178  -1.705 -12.306  0.00  0.00    +0.075 C 
BRANCH   6   5
ATOM      5  C   UNL     1      15.135  -3.042 -11.611  0.00  0.00    +0.079 C 
BRANCH   5   4
ATOM      1  C   UNL     1      11.272  -3.625  -9.911  0.00  0.00    -0.013 A 
ATOM      2  C   UNL     1      11.496  -3.965 -11.232  0.00  0.00    -0.009 A 
ATOM      3  C   UNL     1      12.752  -3.780 -11.782  0.00  0.00    -0.004 A 
ATOM      4  C   UNL     1      13.776  -3.246 -11.021  0.00  0.00    -0.041 A 
ATOM     31  C   UNL     1      13.543  -2.917  -9.700  0.00  0.00    -0.004 A 
ATOM     32  C   UNL     1      12.292  -3.099  -9.142  0.00  0.00    -0.009 A 
ENDBRANCH   5   4
ENDBRANCH   6   5
ENDBRANCH   7   6
ENDBRANCH  12  11
BRANCH  17  19
ATOM     19  C   UNL     1      19.148  -5.604 -12.155  0.00  0.00    +0.253 C 
BRANCH  19  20
ATOM     20  C   UNL     1      18.823  -5.024 -10.830  0.00  0.00    +0.154 A 
ATOM     21  O   UNL     1      17.556  -5.168 -10.352  0.00  0.00    -0.179 OA
ATOM     22  N   UNL     1      17.443  -4.554  -9.108  0.00  0.00    -0.174 NA
ATOM     23  C   UNL     1      18.663  -4.063  -8.847  0.00  0.00    +0.008 A 
ATOM     24  C   UNL     1      18.941  -3.342  -7.591  0.00  0.00    +0.083 C 
ATOM     25  C   UNL     1      19.566  -4.329  -9.903  0.00  0.00    -0.005 A 
ENDBRANCH  19  20
ENDBRANCH  17  19
TORSDOF 6
