REMARK  Name = 4gk4_ligand
REMARK  7 active torsions:
REMARK  status: ('A' for Active; 'I' for Inactive)
REMARK    1  A    between atoms: C5_7  and  C10_20
REMARK    2  A    between atoms: N3_8  and  C6_9
REMARK    3  A    between atoms: C6_9  and  C7_10
REMARK    4  A    between atoms: C7_10  and  C8_11
REMARK    5  A    between atoms: C8_11  and  C9_12
REMARK    6  A    between atoms: N5_16  and  C18_17
REMARK    7  A    between atoms: C11_28  and  C26_29
REMARK                            x       y       z     vdW  Elec       q    Type
REMARK                         _______ _______ _______ _____ _____    ______ ____
ROOT
ATOM      1  O   UNL     1      -8.598   5.335  47.588  0.00  0.00    -0.382 OA
ATOM      2  C   UNL     1      -8.423   4.595  48.576  0.00  0.00    +0.245 A 
ATOM      3  C   UNL     1      -8.621   5.046  49.871  0.00  0.00    +0.189 A 
ATOM      4  C   UNL     1      -8.414   4.189  50.947  0.00  0.00    +0.291 A 
ATOM      5  N   UNL     1      -8.022   2.926  50.756  0.00  0.00    -0.123 N 
ATOM      6  C   UNL     1      -7.831   2.491  49.497  0.00  0.00    +0.366 A 
ATOM      7  O   UNL     1      -7.464   1.307  49.306  0.00  0.00    -0.361 OA
ATOM      8  C   UNL     1      -7.802   2.032  51.899  0.00  0.00    +0.272 C 
ATOM      9  N   UNL     1      -8.666   4.843  52.140  0.00  0.00    -0.144 N 
ATOM     10  H   UNL     1      -8.599   4.487  53.104  0.00  0.00    +0.252 HD
ATOM     11  C   UNL     1      -9.037   6.117  51.690  0.00  0.00    +0.297 A 
ATOM     12  N   UNL     1      -9.402   7.317  52.255  0.00  0.00    -0.186 N 
ATOM     17  C   UNL     1      -9.635   8.187  51.223  0.00  0.00    +0.102 A 
ATOM     29  C   UNL     1      -9.380   7.539  49.974  0.00  0.00    +0.058 A 
ATOM     30  N   UNL     1      -9.016   6.260  50.372  0.00  0.00    -0.272 N 
ATOM     31  N   UNL     1      -8.036   3.307  48.424  0.00  0.00    -0.171 N 
ATOM     32  H   UNL     1      -7.897   2.945  47.502  0.00  0.00    +0.227 HD
ENDROOT
BRANCH  17  18
ATOM     18  C   UNL     1     -10.086   9.599  51.443  0.00  0.00    +0.039 A 
ATOM     19  C   UNL     1     -11.356  10.022  51.053  0.00  0.00    -0.024 A 
ATOM     20  C   UNL     1     -12.321   9.103  50.346  0.00  0.00    +0.099 C 
ATOM     21  C   UNL     1     -11.764  11.329  51.295  0.00  0.00    +0.005 A 
ATOM     22  C   UNL     1     -10.917  12.219  51.934  0.00  0.00    +0.006 A 
ATOM     23  C   UNL     1      -9.660  11.789  52.331  0.00  0.00    -0.014 A 
ATOM     24  N   UNL     1      -8.643  12.403  52.959  0.00  0.00    -0.336 NA
ATOM     25  N   UNL     1      -7.577  11.503  53.127  0.00  0.00    -0.245 N 
ATOM     26  H   UNL     1      -6.678  11.722  53.581  0.00  0.00    +0.293 HD
ATOM     27  C   UNL     1      -7.916  10.303  52.599  0.00  0.00    +0.248 A 
ATOM     28  C   UNL     1      -9.239  10.491  52.103  0.00  0.00    +0.045 A 
ENDBRANCH  17  18
BRANCH  12  13
ATOM     13  C   UNL     1      -9.514   7.346  53.716  0.00  0.00    +0.188 C 
BRANCH  13  14
ATOM     14  C   UNL     1      -8.314   7.975  54.408  0.00  0.00    +0.033 C 
BRANCH  14  15
ATOM     15  C   UNL     1      -6.977   7.472  53.885  0.00  0.00    -0.001 C 
ATOM     16  C   UNL     1      -5.883   8.430  54.308  0.00  0.00    +0.004 C 
ENDBRANCH  14  15
ENDBRANCH  13  14
ENDBRANCH  12  13
TORSDOF 4
