REMARK  Name = 6F26
REMARK  6 active torsions:
REMARK  status: ('A' for Active; 'I' for Inactive)
REMARK    1  A    between atoms: C15_2  and  C09_14
REMARK    2  A    between atoms: C22_5  and  C24_6
REMARK    3  A    between atoms: C28_7  and  C29_20
REMARK    4  A    between atoms: C07_12  and  C39_29
REMARK    5  A    between atoms: C25_19  and  C36_26
REMARK    6  A    between atoms: C42_32  and  O43_46
REMARK                            x       y       z     vdW  Elec       q    Type
REMARK                         _______ _______ _______ _____ _____    ______ ____
ROOT
ATOM     10  C   UNL     1      16.666   3.354  25.449  0.00  0.00    +0.600 C 
ATOM     11  O   UNL     1      15.556   3.432  25.692  0.00  0.00    -0.550 OA
ATOM     12  N   UNL     1      17.532   4.473  25.174  0.00  0.00    -0.350 NA
ATOM     13  C   UNL     1      17.125   5.835  25.230  0.00  0.00    +0.430 A 
ATOM     14  N   UNL     1      18.079   6.704  25.169  0.00  0.00    -0.760 NA
ATOM     15  C   UNL     1      17.813   7.959  25.254  0.00  0.00    +0.250 A 
ATOM     16  C   UNL     1      16.531   8.414  25.486  0.00  0.00    -0.130 A 
ATOM     17  C   UNL     1      15.493   7.510  25.595  0.00  0.00    +0.000 A 
ATOM     33  C   UNL     1      15.817   6.173  25.476  0.00  0.00    -0.130 A 
ENDROOT
BRANCH  10   8
ATOM      1  C   UNL     1      14.214  -1.217  27.288  0.00  0.00    +0.200 C 
ATOM      2  O   UNL     1      13.346  -0.555  28.217  0.00  0.00    -0.650 OA
ATOM      3  C   UNL     1      15.451  -0.713  27.237  0.00  0.00    +0.050 C 
ATOM      4  N   UNL     1      16.256  -1.898  26.548  0.00  0.00    -0.300 NA
ATOM      5  C   UNL     1      17.609  -1.603  26.200  0.00  0.00    +0.000 C 
ATOM      6  C   UNL     1      17.861  -0.133  25.743  0.00  0.00    +0.050 C 
ATOM      7  N   UNL     1      16.912   0.839  25.900  0.00  0.00    -0.200 NA
ATOM      8  C   UNL     1      17.402   1.985  25.424  0.00  0.00    +0.050 C 
ATOM      9  C   UNL     1      18.684   1.764  24.977  0.00  0.00    -0.100 C 
ATOM     34  C   UNL     1      18.973   0.421  25.189  0.00  0.00    +0.000 C 
ATOM     43  C   UNL     1      15.731  -3.013  27.042  0.00  0.00    +0.000 C 
ATOM     44  C   UNL     1      15.597   0.614  26.486  0.00  0.00    +0.000 C 
ATOM     45  C   UNL     1      14.475  -2.627  27.853  0.00  0.00    +0.200 C 
ATOM     46  O   UNL     1      14.701  -2.598  29.189  0.00  0.00    -0.650 OA
BRANCH  34  35
ATOM     35  C   UNL     1      20.224  -0.327  24.772  0.00  0.00    +0.000 A 
ATOM     36  C   UNL     1      20.887  -1.254  25.530  0.00  0.00    -0.130 A 
ATOM     37  C   UNL     1      22.010  -1.898  25.028  0.00  0.00    -0.130 A 
ATOM     38  C   UNL     1      22.416  -1.637  23.725  0.00  0.00    +0.185 A 
ATOM     41  C   UNL     1      21.716  -0.720  22.972  0.00  0.00    -0.130 A 
ATOM     42  C   UNL     1      20.624  -0.080  23.489  0.00  0.00    -0.130 A 
BRANCH  38  39
ATOM     39  O   UNL     1      23.528  -2.302  23.173  0.00  0.00    -0.365 OA
ATOM     40  C   UNL     1      23.463  -2.396  21.778  0.00  0.00    +0.030 C 
ENDBRANCH  38  39
ENDBRANCH  34  35
ENDBRANCH  10   8
BRANCH  17  18
ATOM     18  C   UNL     1      14.064   7.948  25.856  0.00  0.00    +0.050 A 
ATOM     19  C   UNL     1      13.151   7.280  26.612  0.00  0.00    -0.050 A 
ATOM     20  O   UNL     1      12.042   7.951  26.628  0.00  0.00    +0.000 OA
ATOM     21  N   UNL     1      12.175   9.085  25.919  0.00  0.00    -0.100 NA
ATOM     25  C   UNL     1      13.415   9.118  25.462  0.00  0.00    +0.100 A 
BRANCH  25  26
ATOM     26  C   UNL     1      13.891  10.224  24.535  0.00  0.00    +0.000 A 
ATOM     27  C   UNL     1      14.490   9.844  23.368  0.00  0.00    -0.130 A 
ATOM     28  C   UNL     1      14.893  10.787  22.475  0.00  0.00    -0.130 A 
ATOM     29  C   UNL     1      14.650  12.097  22.749  0.00  0.00    +0.300 A 
ATOM     30  F   UNL     1      15.038  13.002  21.884  0.00  0.00    -0.300 F 
ATOM     31  C   UNL     1      14.017  12.480  23.893  0.00  0.00    -0.130 A 
ATOM     32  C   UNL     1      13.608  11.537  24.787  0.00  0.00    -0.130 A 
ENDBRANCH  25  26
BRANCH  19  22
ATOM     22  C   UNL     1      13.322   5.953  27.324  0.00  0.00    -0.050 C 
ATOM     23  C   UNL     1      12.652   4.860  26.471  0.00  0.00    -0.150 C 
ATOM     24  C   UNL     1      12.695   6.055  28.722  0.00  0.00    -0.150 C 
ENDBRANCH  19  22
ENDBRANCH  17  18
TORSDOF 6
