REMARK  Name = 1P60
REMARK  4 active torsions:
REMARK  status: ('A' for Active; 'I' for Inactive)
REMARK    1  A    between atoms: N1_1  and  C1*_9
REMARK    2  A    between atoms: C3*_11  and  O3*_14
REMARK    3  A    between atoms: C4*_12  and  C5*_15
REMARK    4  A    between atoms: C5*_15  and  O5*_16
REMARK                            x       y       z     vdW  Elec       q    Type
REMARK                         _______ _______ _______ _____ _____    ______ ____
ROOT
ATOM      1  N1    C A   1      47.945  65.149 100.411  0.00  0.00    -0.273 N 
ATOM     12  C6    C A   1      46.769  64.598 100.354  0.00  0.00    +0.096 C 
ATOM     13  C5    C A   1      45.739  65.157 100.910  0.00  0.00    +0.061 C 
ATOM     14  C4    C A   1      45.830  66.315 101.518  0.00  0.00    +0.123 C 
ATOM     15  N4    C A   1      44.736  66.976 102.033  0.00  0.00    -0.343 N 
ATOM     16  H41   C A   1      43.770  66.516 102.004  0.00  0.00    +0.144 HD
ATOM     17  H42   C A   1      44.852  67.949 102.462  0.00  0.00    +0.144 HD
ATOM     18  N3    C A   1      46.962  66.942 101.593  0.00  0.00    -0.178 NA
ATOM     19  C2    C A   1      48.033  66.326 101.024  0.00  0.00    +0.352 C 
ATOM     20  O2    C A   1      49.117  66.972 101.190  0.00  0.00    -0.244 OA
ENDROOT
BRANCH   1   2
ATOM      2  C1*   C A   1      49.133  64.560  99.738  0.00  0.00    +0.226 C 
ATOM      3  O4*   C A   1      48.684  64.089  98.424  0.00  0.00    -0.348 OA
ATOM      4  C4*   C A   1      49.351  62.887  98.035  0.00  0.00    +0.175 C 
ATOM      8  C3*   C A   1      50.379  62.628  99.175  0.00  0.00    +0.150 C 
ATOM     11  C2*   C A   1      49.840  63.401 100.405  0.00  0.00    +0.088 C 
BRANCH   8   9
ATOM      9  O3*   C A   1      51.656  63.159  98.788  0.00  0.00    -0.389 OA
ATOM     10  H3*   C A   1      51.553  64.175  98.542  0.00  0.00    +0.210 HD
ENDBRANCH   8   9
BRANCH   4   5
ATOM      5  C5*   C A   1      48.430  61.720  97.837  0.00  0.00    +0.190 C 
BRANCH   5   6
ATOM      6  O5*   C A   1      47.823  61.302  99.049  0.00  0.00    -0.392 OA
ATOM      7  H5*   C A   1      48.567  61.017  99.733  0.00  0.00    +0.209 HD
ENDBRANCH   5   6
ENDBRANCH   4   5
ENDBRANCH   1   2
TORSDOF 4
