REMARK  Name = 59E
REMARK  5 active torsions:
REMARK  status: ('A' for Active; 'I' for Inactive)
REMARK    1  A    between atoms: OAU_2  and  CAT_3
REMARK    2  A    between atoms: CAT_3  and  CAS_5
REMARK    3  A    between atoms: CAS_5  and  CAI_6
REMARK    4  A    between atoms: CAB_17  and  OAL_18
REMARK    5  A    between atoms: CAG_22  and  CAQ_23
REMARK                            x       y       z     vdW  Elec       q    Type
REMARK                         _______ _______ _______ _____ _____    ______ ____
ROOT
ATOM      5  C   UNL     1      -7.657  -8.969  -7.015  0.00  0.00    +0.173 C 
ATOM      6  N   UNL     1      -6.335  -9.084  -6.309  0.00  0.00    -0.264 NA
ATOM      7  C   UNL     1      -6.113  -8.646  -5.057  0.00  0.00    +0.078 C 
ATOM      8  C   UNL     1      -7.186  -8.157  -4.270  0.00  0.00    +0.036 A 
ATOM      9  C   UNL     1      -6.862  -7.094  -3.422  0.00  0.00    +0.040 A 
ATOM     10  C   UNL     1      -7.818  -6.520  -2.586  0.00  0.00    +0.139 A 
ATOM     13  C   UNL     1      -9.135  -6.999  -2.586  0.00  0.00    +0.038 A 
ATOM     14  C   UNL     1      -9.473  -8.050  -3.433  0.00  0.00    +0.021 A 
ATOM     15  C   UNL     1      -8.506  -8.647  -4.268  0.00  0.00    +0.068 A 
ATOM     16  N   UNL     1      -8.953  -9.685  -5.048  0.00  0.00    -0.279 N 
ATOM     17  C   UNL     1      -9.759 -10.757  -4.792  0.00  0.00    +0.147 A 
ATOM     18  C   UNL     1     -10.450 -11.064  -3.472  0.00  0.00    +0.074 C 
ATOM     19  N   UNL     1      -9.899 -11.521  -5.870  0.00  0.00    -0.133 NA
ATOM     20  N   UNL     1      -9.134 -10.955  -6.839  0.00  0.00    -0.131 NA
ATOM     30  C   UNL     1      -8.564  -9.842  -6.328  0.00  0.00    +0.170 A 
ENDROOT
BRANCH   7  21
ATOM     21  C   UNL     1      -4.779  -8.833  -4.564  0.00  0.00    +0.019 A 
ATOM     22  C   UNL     1      -4.625  -9.313  -3.252  0.00  0.00    +0.002 A 
ATOM     23  C   UNL     1      -3.365  -9.555  -2.719  0.00  0.00    +0.002 A 
ATOM     24  C   UNL     1      -2.248  -9.273  -3.507  0.00  0.00    +0.019 A 
ATOM     25  C   UNL     1      -2.412  -8.807  -4.755  0.00  0.00    +0.081 A 
ATOM     26  N   UNL     1      -1.478  -8.471  -5.652  0.00  0.00    -0.244 NA
ATOM     27  C   UNL     1      -2.102  -8.040  -6.746  0.00  0.00    +0.099 A 
ATOM     28  C   UNL     1      -3.425  -8.091  -6.522  0.00  0.00    +0.022 A 
ATOM     29  C   UNL     1      -3.639  -8.572  -5.279  0.00  0.00    +0.021 A 
ENDBRANCH   7  21
BRANCH  10  11
ATOM     11  O   UNL     1      -7.379  -5.470  -1.777  0.00  0.00    -0.471 OA
ATOM     12  C   UNL     1      -8.350  -4.707  -1.050  0.00  0.00    +0.253 C 
ENDBRANCH  10  11
BRANCH   5   4
ATOM      4  C   UNL     1      -7.495  -9.262  -8.527  0.00  0.00    +0.141 C 
BRANCH   4   3
ATOM      3  C   UNL     1      -6.437  -8.303  -9.105  0.00  0.00    +0.320 C 
ATOM     31  O   UNL     1      -5.652  -8.695  -9.973  0.00  0.00    -0.250 OA
BRANCH   3   2
ATOM      1  C   UNL     1      -5.515  -6.146  -9.308  0.00  0.00    +0.256 C 
ATOM      2  O   UNL     1      -6.453  -7.031  -8.656  0.00  0.00    -0.444 OA
ENDBRANCH   3   2
ENDBRANCH   4   3
ENDBRANCH   5   4
TORSDOF 5
