REMARK  Name = 4HY2
REMARK  35 active torsions:
REMARK  status: ('A' for Active; 'I' for Inactive)
REMARK    1  A    between atoms: O_2  and  C_6
REMARK    2  A    between atoms: O_2  and  C_7
REMARK    3  A    between atoms: C_3  and  C_13
REMARK    4  A    between atoms: C_3  and  N_14
REMARK    5  A    between atoms: C_5  and  O_11
REMARK    6  A    between atoms: C_8  and  O_9
REMARK    7  A    between atoms: O_9  and  C_10
REMARK    8  A    between atoms: O_11  and  C_12
REMARK    9  A    between atoms: C_16  and  C_19
REMARK   10  A    between atoms: N_41  and  CA_42
REMARK   11  A    between atoms: CA_42  and  C_43
REMARK   12  A    between atoms: CA_42  and  CB_45
REMARK   13  A    between atoms: CB_45  and  CG_46
REMARK   14  A    between atoms: CG_46  and  CD1_47
REMARK   15  A    between atoms: CG_46  and  CD2_48
REMARK   16  A    between atoms: N_60  and  CA_61
REMARK   17  A    between atoms: CA_61  and  C_62
REMARK   18  A    between atoms: CA_61  and  CB_64
REMARK   19  A    between atoms: CB_64  and  CG_65
REMARK   20  A    between atoms: N_77  and  C_78
REMARK   21  A    between atoms: C_78  and  C_79
REMARK   22  A    between atoms: C_78  and  C_81
REMARK   23  A    between atoms: C_81  and  O_82
REMARK   24  A    between atoms: N_88  and  C_89
REMARK   25  A    between atoms: C_89  and  C_90
REMARK   26  A    between atoms: C_89  and  C_97
REMARK   27  A    between atoms: C_90  and  C_91
REMARK   28  A    between atoms: C_90  and  O_92
REMARK   29  A    between atoms: O_92  and  P_93
REMARK   30  A    between atoms: N_105  and  C_106
REMARK   31  A    between atoms: C_106  and  C_107
REMARK   32  A    between atoms: C_106  and  C_109
REMARK   33  A    between atoms: C_109  and  C_110
REMARK   34  A    between atoms: C_110  and  S_111
REMARK   35  A    between atoms: S_111  and  C_112
REMARK                            x       y       z     vdW  Elec       q    Type
REMARK                         _______ _______ _______ _____ _____    ______ ____
ROOT
ATOM     24  CA  HIS A   2      10.459  12.961  11.764  0.00  0.00    +0.165 C 
ENDROOT
BRANCH  24  22
ATOM     21  C   LEU A   1       9.120  14.321  10.264  0.00  0.00    +0.234 C 
ATOM     22  N   HIS A   2       9.544  14.055  11.495  0.00  0.00    -0.302 N 
ATOM     23  H   HIS A   2       9.203  14.662  12.307  0.00  0.00    +0.149 HD
ATOM     66  O   LEU A   1       9.483  13.689   9.284  0.00  0.00    -0.274 OA
BRANCH  21  16
ATOM     16  CA  LEU A   1       8.153  15.488  10.120  0.00  0.00    +0.159 C 
BRANCH  16  14
ATOM     13  C   UNK A   0       6.954  15.710  12.217  0.00  0.00    +0.231 C 
ATOM     14  N   LEU A   1       7.923  16.123  11.411  0.00  0.00    -0.303 N 
ATOM     15  H   LEU A   1       8.547  16.937  11.714  0.00  0.00    +0.149 HD
ATOM     67  O   UNK A   0       6.190  14.789  11.923  0.00  0.00    -0.274 OA
BRANCH  13  12
ATOM     11  N   UNK A   0       5.437  16.774  13.898  0.00  0.00    -0.287 NA
ATOM     12  C   UNK A   0       6.823  16.450  13.545  0.00  0.00    +0.143 C 
ATOM     68  C   UNK A   0       7.296  15.614  14.736  0.00  0.00    +0.029 C 
ATOM     69  C   UNK A   0       6.025  14.943  15.206  0.00  0.00    +0.017 C 
ATOM     70  C   UNK A   0       5.031  16.081  15.133  0.00  0.00    +0.085 C 
BRANCH  11  10
ATOM     10  C   UNK A   0       5.052  18.144  13.411  0.00  0.00    +0.120 C 
BRANCH  10   2
ATOM      1  C   UNK A   0       3.913  18.134  11.157  0.00  0.00    +0.054 A 
ATOM      2  C   UNK A   0       4.817  18.724  12.038  0.00  0.00    -0.026 A 
ATOM      3  C   UNK A   0       5.497  19.865  11.621  0.00  0.00    +0.054 A 
ATOM      4  C   UNK A   0       5.549  20.176  10.278  0.00  0.00    +0.166 A 
ATOM      7  C   UNK A   0       4.615  19.628   9.419  0.00  0.00    +0.203 A 
ATOM     71  C   UNK A   0       3.935  18.482   9.817  0.00  0.00    +0.166 A 
BRANCH   4   5
ATOM      5  O   UNK A   0       6.492  20.983   9.703  0.00  0.00    -0.491 OA
ATOM      6  C   UNK A   0       7.649  21.296  10.482  0.00  0.00    +0.277 C 
ENDBRANCH   4   5
BRANCH   7   8
ATOM      8  O   UNK A   0       4.358  20.218   8.192  0.00  0.00    -0.488 OA
ATOM      9  C   UNK A   0       5.258  19.868   7.140  0.00  0.00    +0.277 C 
ENDBRANCH   7   8
BRANCH  71  72
ATOM     72  O   UNK A   0       3.348  17.754   8.820  0.00  0.00    -0.491 OA
ATOM     73  C   UNK A   0       2.745  16.511   9.181  0.00  0.00    +0.277 C 
ENDBRANCH  71  72
ENDBRANCH  10   2
ENDBRANCH  11  10
ENDBRANCH  13  12
ENDBRANCH  16  14
BRANCH  16  17
ATOM     17  CB  LEU A   1       8.715  16.500   9.123  0.00  0.00    +0.034 C 
BRANCH  17  18
ATOM     18  CG  LEU A   1       7.761  17.624   8.713  0.00  0.00    -0.015 C 
ATOM     19  CD2 LEU A   1       6.599  17.047   7.910  0.00  0.00    +0.007 C 
ATOM     20  CD1 LEU A   1       8.524  18.664   7.907  0.00  0.00    +0.007 C 
ENDBRANCH  17  18
ENDBRANCH  16  17
ENDBRANCH  21  16
ENDBRANCH  24  22
BRANCH  24  32
ATOM     32  C   HIS A   2      10.400  12.607  13.242  0.00  0.00    +0.234 C 
ATOM     33  N   UNK A   3      10.883  11.415  13.573  0.00  0.00    -0.301 N 
ATOM     34  H   UNK A   3      11.268  10.780  12.803  0.00  0.00    +0.150 HD
ATOM     65  O   HIS A   2       9.912  13.390  14.060  0.00  0.00    -0.274 OA
BRANCH  33  35
ATOM     35  C   UNK A   3      10.904  10.947  14.950  0.00  0.00    +0.184 C 
BRANCH  35  39
ATOM     39  C   UNK A   3      12.047  11.643  15.695  0.00  0.00    +0.236 C 
ATOM     40  N   UNK A   3      12.235  11.309  16.976  0.00  0.00    -0.300 N 
ATOM     41  H   UNK A   3      11.751  10.414  17.308  0.00  0.00    +0.150 HD
ATOM     64  O   UNK A   3      12.755  12.470  15.131  0.00  0.00    -0.274 OA
BRANCH  40  42
ATOM     42  C   UNK A   3      13.028  12.028  17.978  0.00  0.00    +0.188 C 
BRANCH  42  43
ATOM     43  C   UNK A   3      14.496  12.070  17.509  0.00  0.00    +0.236 C 
ATOM     44  N   UNK A   3      15.115  13.240  17.630  0.00  0.00    -0.302 N 
ATOM     45  H   UNK A   3      14.610  14.072  18.076  0.00  0.00    +0.149 HD
ATOM     56  O   UNK A   3      15.049  11.080  17.054  0.00  0.00    -0.274 OA
BRANCH  44  46
ATOM     46  C   UNK A   3      16.482  13.385  17.154  0.00  0.00    +0.159 C 
BRANCH  46  51
ATOM     51  C   UNK A   3      17.488  12.852  18.163  0.00  0.00    +0.231 C 
ATOM     52  N   UNK A   3      18.687  12.512  17.698  0.00  0.00    -0.328 N 
ATOM     53  H   UNK A   3      19.432  12.132  18.366  0.00  0.00    +0.145 HD
ATOM     54  H   UNK A   3      18.907  12.619  16.656  0.00  0.00    +0.145 HD
ATOM     55  O   UNK A   3      17.191  12.739  19.352  0.00  0.00    -0.274 OA
ENDBRANCH  46  51
BRANCH  46  47
ATOM     47  C   UNK A   3      16.767  14.850  16.852  0.00  0.00    +0.042 C 
BRANCH  47  48
ATOM     48  C   UNK A   3      15.831  15.410  15.804  0.00  0.00    +0.071 C 
BRANCH  48  49
ATOM     49  S   UNK A   3      16.403  16.964  15.137  0.00  0.00    -0.164 S 
ATOM     50  C   UNK A   3      17.503  16.399  13.852  0.00  0.00    +0.084 C 
ENDBRANCH  48  49
ENDBRANCH  47  48
ENDBRANCH  46  47
ENDBRANCH  44  46
ENDBRANCH  42  43
BRANCH  42  57
ATOM     57  C   UNK A   3      12.966  11.426  19.434  0.00  0.00    +0.148 C 
ATOM     63  C   UNK A   3      13.718  12.242  20.472  0.00  0.00    +0.040 C 
BRANCH  57  58
ATOM     58  O   UNK A   3      11.550  11.408  19.740  0.00  0.00    -0.362 OA
BRANCH  58  59
ATOM     59  P   UNK A   3      10.701  10.036  19.824  0.00  0.00    -0.015 P 
ATOM     60  O   UNK A   3       9.339  10.510  20.232  0.00  0.00    -0.638 OA
ATOM     61  O   UNK A   3      10.659   9.575  18.398  0.00  0.00    -0.577 OA
ATOM     62  O   UNK A   3      11.249   9.018  20.668  0.00  0.00    -0.577 OA
ENDBRANCH  58  59
ENDBRANCH  57  58
ENDBRANCH  42  57
ENDBRANCH  40  42
ENDBRANCH  35  39
BRANCH  35  36
ATOM     36  C   UNK A   3      11.126   9.439  14.972  0.00  0.00    +0.187 C 
BRANCH  36  37
ATOM     37  O   UNK A   3      12.301   9.126  14.244  0.00  0.00    -0.393 OA
ATOM     38  H   UNK A   3      12.195   9.450  13.251  0.00  0.00    +0.209 HD
ENDBRANCH  36  37
ENDBRANCH  35  36
ENDBRANCH  33  35
ENDBRANCH  24  32
BRANCH  24  25
ATOM     25  CB  HIS A   2      11.887  13.358  11.368  0.00  0.00    +0.086 C 
BRANCH  25  26
ATOM     26  CG  HIS A   2      12.401  14.549  12.111  0.00  0.00    +0.037 A 
ATOM     27  CD2 HIS A   2      12.481  15.853  11.758  0.00  0.00    +0.133 A 
ATOM     28  NE2 HIS A   2      12.918  16.546  12.861  0.00  0.00    -0.244 NA
ATOM     29  CE1 HIS A   2      13.108  15.696  13.854  0.00  0.00    +0.196 A 
ATOM     30  ND1 HIS A   2      12.806  14.483  13.426  0.00  0.00    -0.348 N 
ATOM     31  HD1 HIS A   2      12.867  13.589  14.010  0.00  0.00    +0.167 HD
ENDBRANCH  25  26
ENDBRANCH  24  25
TORSDOF 28
