REMARK  Name = 2xj1_ligand
REMARK  5 active torsions:
REMARK  status: ('A' for Active; 'I' for Inactive)
REMARK    1  A    between atoms: C5_3  and  N8_4
REMARK    2  A    between atoms: C2_7  and  N1_8
REMARK    3  A    between atoms: C11_14  and  C15_15
REMARK    4  A    between atoms: C17_20  and  C21_21
REMARK    5  A    between atoms: C22_22  and  C23_23
REMARK                            x       y       z     vdW  Elec       q    Type
REMARK                         _______ _______ _______ _____ _____    ______ ____
ROOT
ATOM      3  N   UNL     1     -21.593 -34.368  -5.088  0.00  0.00    -0.299 N 
ATOM      4  H   UNL     1     -20.901 -34.616  -5.810  0.00  0.00    +0.183 HD
ATOM      5  C   UNL     1     -22.116 -35.422  -4.448  0.00  0.00    +0.139 A 
ATOM      6  C   UNL     1     -22.633 -36.488  -5.190  0.00  0.00    +0.140 A 
ATOM      7  N   UNL     1     -23.101 -37.565  -4.562  0.00  0.00    -0.286 NA
ATOM      8  C   UNL     1     -23.091 -37.652  -3.221  0.00  0.00    +0.114 A 
ATOM      9  C   UNL     1     -22.551 -36.612  -2.453  0.00  0.00    +0.066 A 
ATOM     21  N   UNL     1     -22.080 -35.519  -3.103  0.00  0.00    -0.258 NA
ENDROOT
BRANCH   3   2
ATOM      1  C   UNL     1     -20.482 -32.170  -4.756  0.00  0.00    +0.033 C 
ATOM      2  C   UNL     1     -21.826 -32.908  -4.949  0.00  0.00    +0.095 C 
ATOM     22  C   UNL     1     -22.771 -32.520  -3.811  0.00  0.00    +0.033 C 
ATOM     23  C   UNL     1     -22.964 -30.990  -3.754  0.00  0.00    +0.056 C 
ATOM     24  C   UNL     1     -21.646 -30.235  -3.591  0.00  0.00    +0.061 C 
ATOM     29  C   UNL     1     -20.709 -30.643  -4.742  0.00  0.00    +0.056 C 
BRANCH  24  25
ATOM     25  N   UNL     1     -21.883 -28.774  -3.570  0.00  0.00    +0.221 N 
ATOM     26  H   UNL     1     -21.005 -28.293  -3.450  0.00  0.00    +0.200 HD
ATOM     27  H   UNL     1     -22.306 -28.490  -4.439  0.00  0.00    +0.200 HD
ATOM     28  H   UNL     1     -22.499 -28.544  -2.806  0.00  0.00    +0.200 HD
ENDBRANCH  24  25
ENDBRANCH   3   2
BRANCH   9  10
ATOM     10  C   UNL     1     -22.537 -36.625  -1.033  0.00  0.00    +0.005 A 
ATOM     11  C   UNL     1     -22.736 -37.777  -0.268  0.00  0.00    +0.019 A 
ATOM     12  C   UNL     1     -22.745 -37.709   1.140  0.00  0.00    +0.007 A 
ATOM     13  C   UNL     1     -22.559 -36.485   1.782  0.00  0.00    +0.017 A 
ATOM     14  C   UNL     1     -22.347 -35.327   1.032  0.00  0.00    -0.016 A 
ATOM     20  C   UNL     1     -22.362 -35.414  -0.359  0.00  0.00    +0.028 A 
BRANCH  14  15
ATOM     15  C   UNL     1     -22.190 -34.087   1.665  0.00  0.00    +0.025 C 
ATOM     16  C   UNL     1     -21.483 -32.992   1.162  0.00  0.00    +0.036 C 
BRANCH  16  17
ATOM     17  C   UNL     1     -21.424 -31.788   1.882  0.00  0.00    +0.052 C 
ATOM     18  O   UNL     1     -22.035 -31.670   2.976  0.00  0.00    -0.563 OA
ATOM     19  O   UNL     1     -20.768 -30.865   1.376  0.00  0.00    -0.563 OA
ENDBRANCH  16  17
ENDBRANCH  14  15
ENDBRANCH   9  10
TORSDOF 5
