REMARK  Name = AN2
REMARK  6 active torsions:
REMARK  status: ('A' for Active; 'I' for Inactive)
REMARK    1  A    between atoms: PB_2  and  O3A_5
REMARK    2  A    between atoms: O3A_5  and  PA_6
REMARK    3  A    between atoms: PA_6  and  O5'_9
REMARK    4  A    between atoms: O5'_9  and  C5'_10
REMARK    5  A    between atoms: C5'_10  and  C4'_11
REMARK    6  A    between atoms: C1'_17  and  N9_18
REMARK                            x       y       z     vdW  Elec       q    Type
REMARK                         _______ _______ _______ _____ _____    ______ ____
ROOT
ATOM     11  C   UNL     1      34.377  27.298  35.451  0.00  0.00    +0.180 C 
ATOM     12  O   UNL     1      33.319  26.356  35.106  0.00  0.00    -0.331 OA
ATOM     13  C   UNL     1      32.558  26.887  33.980  0.00  0.00    +0.241 C 
ATOM     24  C   UNL     1      33.378  28.076  33.431  0.00  0.00    +0.234 C 
ATOM     25  O   UNL     1      34.373  27.609  32.508  0.00  0.00    -0.216 OA
ATOM     26  C   UNL     1      34.002  28.617  34.735  0.00  0.00    +0.216 C 
ATOM     27  O   UNL     1      35.143  29.438  34.469  0.00  0.00    -0.218 OA
ENDROOT
BRANCH  13  14
ATOM     14  N   UNL     1      31.181  27.318  34.321  0.00  0.00    -0.269 N 
ATOM     15  C   UNL     1      30.747  27.785  35.531  0.00  0.00    +0.182 A 
ATOM     16  N   UNL     1      29.485  28.073  35.466  0.00  0.00    -0.219 NA
ATOM     17  C   UNL     1      29.017  27.827  34.209  0.00  0.00    +0.152 A 
ATOM     18  C   UNL     1      27.757  27.943  33.557  0.00  0.00    +0.192 A 
ATOM     19  N   UNL     1      26.641  28.406  34.239  0.00  0.00    -0.105 NA
ATOM     20  N   UNL     1      27.665  27.583  32.266  0.00  0.00    -0.204 NA
ATOM     21  C   UNL     1      28.718  27.137  31.595  0.00  0.00    +0.202 A 
ATOM     22  N   UNL     1      29.904  27.012  32.173  0.00  0.00    -0.205 NA
ATOM     23  C   UNL     1      30.102  27.337  33.460  0.00  0.00    +0.169 A 
ENDBRANCH  13  14
BRANCH  11  10
ATOM     10  C   UNL     1      34.538  27.479  36.971  0.00  0.00    +0.181 C 
BRANCH  10   9
ATOM      9  O   UNL     1      33.269  27.757  37.575  0.00  0.00    -0.311 OA
BRANCH   9   6
ATOM      6  P   UNL     1      33.358  28.896  38.725  0.00  0.00    +0.222 P 
ATOM      7  O   UNL     1      34.721  29.769  38.602  0.00  0.00    -0.437 OA
ATOM      8  O   UNL     1      32.173  29.776  38.562  0.00  0.00    -0.517 OA
BRANCH   6   5
ATOM      5  O   UNL     1      33.224  28.143  40.164  0.00  0.00    -0.235 OA
BRANCH   5   2
ATOM      1  N   UNL     1      33.647  30.292  41.687  0.00  0.00    -0.018 NA
ATOM      2  P   UNL     1      34.106  28.780  41.375  0.00  0.00    +0.474 P 
ATOM      3  O   UNL     1      33.871  27.890  42.704  0.00  0.00    -0.125 OA
ATOM      4  O   UNL     1      35.544  28.777  40.999  0.00  0.00    -0.234 OA
ENDBRANCH   5   2
ENDBRANCH   6   5
ENDBRANCH   9   6
ENDBRANCH  10   9
ENDBRANCH  11  10
TORSDOF 6
