REMARK  Name = 3ekn_ligand
REMARK  10 active torsions:
REMARK  status: ('A' for Active; 'I' for Inactive)
REMARK    1  A    between atoms: C1_1  and  O1_2
REMARK    2  A    between atoms: O1_2  and  C2_3
REMARK    3  A    between atoms: C4_5  and  N7_30
REMARK    4  A    between atoms: C7_8  and  N1_9
REMARK    5  A    between atoms: C9_12  and  N3_13
REMARK    6  A    between atoms: N3_13  and  C10_14
REMARK    7  A    between atoms: C15_20  and  C16_21
REMARK    8  A    between atoms: N8_33  and  C25_36
REMARK    9  A    between atoms: C25_36  and  C26_37
REMARK   10  A    between atoms: C25_36  and  C27_38
REMARK                            x       y       z     vdW  Elec       q    Type
REMARK                         _______ _______ _______ _____ _____    ______ ____
ROOT
ATOM      5  N   UNL     1       3.546  19.938  18.854  0.00  0.00    -0.261 N 
ATOM      6  H   UNL     1       2.757  19.466  18.389  0.00  0.00    +0.210 HD
ATOM      7  C   UNL     1       4.596  20.336  18.013  0.00  0.00    +0.169 A 
ATOM      8  N   UNL     1       4.536  19.865  16.757  0.00  0.00    -0.266 NA
ATOM      9  C   UNL     1       5.561  20.259  16.001  0.00  0.00    +0.120 A 
ATOM     10  N   UNL     1       5.770  19.949  14.684  0.00  0.00    -0.273 N 
ATOM     11  H   UNL     1       5.150  19.363  14.107  0.00  0.00    +0.230 HD
ATOM     12  C   UNL     1       6.924  20.533  14.252  0.00  0.00    +0.106 A 
ATOM     13  C   UNL     1       7.466  21.228  15.305  0.00  0.00    -0.032 A 
ATOM     14  C   UNL     1       6.600  21.056  16.415  0.00  0.00    +0.036 A 
ATOM     15  C   UNL     1       6.587  21.497  17.727  0.00  0.00    +0.129 A 
ATOM     30  N   UNL     1       5.563  21.119  18.505  0.00  0.00    -0.252 NA
ENDROOT
BRANCH   5   4
ATOM      3  C   UNL     1       2.162  19.955  20.796  0.00  0.00    +0.105 A 
ATOM      4  C   UNL     1       3.424  20.098  20.255  0.00  0.00    +0.082 A 
ATOM     31  C   UNL     1       4.471  20.387  21.108  0.00  0.00    -0.010 A 
ATOM     32  C   UNL     1       4.239  20.537  22.459  0.00  0.00    -0.025 A 
ATOM     33  C   UNL     1       2.977  20.393  23.006  0.00  0.00    +0.020 A 
ATOM     44  C   UNL     1       1.938  20.089  22.150  0.00  0.00    +0.017 A 
BRANCH  33  34
ATOM     34  N   UNL     1       2.747  20.531  24.395  0.00  0.00    -0.306 N 
ATOM     35  C   UNL     1       1.985  21.725  24.759  0.00  0.00    +0.177 C 
ATOM     36  C   UNL     1       1.621  21.586  26.231  0.00  0.00    +0.155 C 
ATOM     37  N   UNL     1       2.842  21.304  27.063  0.00  0.00    +0.240 N 
ATOM     38  H   UNL     1       3.423  22.119  26.948  0.00  0.00    +0.204 HD
ATOM     42  C   UNL     1       3.658  20.165  26.566  0.00  0.00    +0.155 C 
ATOM     43  C   UNL     1       3.997  20.454  25.127  0.00  0.00    +0.177 C 
BRANCH  37  39
ATOM     39  C   UNL     1       2.596  21.203  28.541  0.00  0.00    +0.058 C 
ATOM     40  C   UNL     1       1.714  22.351  28.962  0.00  0.00    +0.063 C 
ATOM     41  C   UNL     1       3.910  21.389  29.275  0.00  0.00    +0.063 C 
ENDBRANCH  37  39
ENDBRANCH  33  34
BRANCH   3   2
ATOM      1  C   UNL     1      -0.116  19.872  20.551  0.00  0.00    +0.229 C 
ATOM      2  O   UNL     1       1.132  19.669  19.898  0.00  0.00    -0.328 OA
ENDBRANCH   3   2
ENDBRANCH   5   4
BRANCH  15  16
ATOM     16  N   UNL     1       7.638  22.317  18.172  0.00  0.00    -0.253 N 
ATOM     17  H   UNL     1       8.345  22.584  17.472  0.00  0.00    +0.220 HD
BRANCH  16  18
ATOM     18  C   UNL     1       7.822  22.810  19.474  0.00  0.00    +0.084 A 
ATOM     19  C   UNL     1       9.101  22.968  19.966  0.00  0.00    +0.106 A 
ATOM     25  C   UNL     1       9.338  23.452  21.234  0.00  0.00    +0.145 A 
ATOM     26  F   UNL     1      10.618  23.578  21.659  0.00  0.00    -0.180 F 
ATOM     27  C   UNL     1       8.276  23.799  22.041  0.00  0.00    +0.019 A 
ATOM     28  C   UNL     1       6.993  23.653  21.557  0.00  0.00    -0.007 A 
ATOM     29  C   UNL     1       6.766  23.165  20.289  0.00  0.00    +0.016 A 
BRANCH  19  20
ATOM     20  C   UNL     1      10.274  22.607  19.156  0.00  0.00    +0.195 C 
ATOM     21  N   UNL     1      11.190  21.869  19.861  0.00  0.00    -0.303 N 
ATOM     22  H   UNL     1      11.015  21.637  20.818  0.00  0.00    +0.180 HD
ATOM     23  H   UNL     1      12.033  21.562  19.418  0.00  0.00    +0.180 HD
ATOM     24  O   UNL     1      10.376  22.948  17.988  0.00  0.00    -0.394 OA
ENDBRANCH  19  20
ENDBRANCH  16  18
ENDBRANCH  15  16
TORSDOF 7
