REMARK  Name = 4X7H
REMARK  11 active torsions:
REMARK  status: ('A' for Active; 'I' for Inactive)
REMARK    1  A    between atoms: N_2  and  C_11
REMARK    2  A    between atoms: C_8  and  O_18
REMARK    3  A    between atoms: C_11  and  C_31
REMARK    4  A    between atoms: C_13  and  N_37
REMARK    5  A    between atoms: C_14  and  N_33
REMARK    6  A    between atoms: C_17  and  C_38
REMARK    7  A    between atoms: O_18  and  C_19
REMARK    8  A    between atoms: C_21  and  O_22
REMARK    9  A    between atoms: O_22  and  C_23
REMARK   10  A    between atoms: C_24  and  O_25
REMARK   11  A    between atoms: O_25  and  C_26
REMARK                            x       y       z     vdW  Elec       q    Type
REMARK                         _______ _______ _______ _____ _____    ______ ____
ROOT
ATOM      6  C   UNL     1     -12.106  32.750  30.759  0.00  0.00    +0.144 C 
ATOM      7  C   UNL     1     -13.148  33.390  30.099  0.00  0.00    +0.130 C 
ATOM      8  N   UNL     1     -13.551  32.967  28.909  0.00  0.00    -0.345 N 
ATOM      9  H   UNL     1     -14.348  33.487  28.421  0.00  0.00    +0.167 HD
ATOM     10  C   UNL     1     -12.996  31.909  28.292  0.00  0.00    +0.124 C 
ATOM     11  C   UNL     1     -11.933  31.233  28.901  0.00  0.00    +0.047 C 
ATOM     12  N   UNL     1     -13.475  31.595  27.084  0.00  0.00    -0.159 NA
ATOM     34  C   UNL     1     -11.484  31.660  30.148  0.00  0.00    +0.051 C 
ENDROOT
BRANCH  12  13
ATOM     13  C   UNL     1     -13.013  30.671  26.234  0.00  0.00    +0.276 C 
ATOM     33  O   UNL     1     -12.111  29.874  26.481  0.00  0.00    -0.268 OA
BRANCH  13  14
ATOM     14  C   UNL     1     -13.729  30.662  24.879  0.00  0.00    +0.130 C 
ATOM     15  C   UNL     1     -13.566  29.777  23.814  0.00  0.00    +0.083 C 
ATOM     16  N   UNL     1     -14.281  30.314  22.798  0.00  0.00    -0.279 NA
ATOM     17  N   UNL     1     -15.186  31.236  23.302  0.00  0.00    -0.216 N 
ATOM     24  C   UNL     1     -14.583  29.558  21.558  0.00  0.00    +0.171 C 
ATOM     31  C   UNL     1     -14.754  31.529  24.530  0.00  0.00    +0.285 C 
ATOM     32  O   UNL     1     -15.203  32.419  25.251  0.00  0.00    -0.265 OA
BRANCH  17  18
ATOM     18  C   UNL     1     -15.718  32.206  22.537  0.00  0.00    +0.067 C 
ATOM     19  C   UNL     1     -14.904  33.118  21.852  0.00  0.00    +0.028 C 
ATOM     20  C   UNL     1     -15.474  34.170  21.128  0.00  0.00    +0.002 C 
ATOM     21  C   UNL     1     -16.861  34.319  21.084  0.00  0.00    +0.000 C 
ATOM     22  C   UNL     1     -17.680  33.415  21.763  0.00  0.00    +0.002 C 
ATOM     23  C   UNL     1     -17.105  32.363  22.487  0.00  0.00    +0.028 C 
ENDBRANCH  17  18
BRANCH  15  25
ATOM     25  C   UNL     1     -12.566  28.798  23.704  0.00  0.00    +0.004 C 
ATOM     26  C   UNL     1     -11.496  28.960  22.819  0.00  0.00    +0.029 C 
ATOM     27  C   UNL     1     -10.511  27.974  22.728  0.00  0.00    +0.111 C 
ATOM     28  N   UNL     1     -10.581  26.878  23.478  0.00  0.00    -0.263 NA
ATOM     29  C   UNL     1     -11.582  26.686  24.334  0.00  0.00    +0.111 C 
ATOM     30  C   UNL     1     -12.601  27.634  24.474  0.00  0.00    +0.029 C 
ENDBRANCH  15  25
ENDBRANCH  13  14
ENDBRANCH  12  13
BRANCH   6   5
ATOM      5  O   UNL     1     -11.704  33.226  31.976  0.00  0.00    -0.454 OA
BRANCH   5   4
ATOM      1  N   UNL     1     -12.267  31.035  35.425  0.00  0.00    -0.255 NA
ATOM      2  C   UNL     1     -12.785  30.586  34.291  0.00  0.00    +0.115 A 
ATOM      3  C   UNL     1     -12.627  31.295  33.102  0.00  0.00    +0.066 A 
ATOM      4  C   UNL     1     -11.902  32.488  33.112  0.00  0.00    +0.139 A 
ATOM     35  C   UNL     1     -11.362  32.937  34.318  0.00  0.00    +0.046 A 
ATOM     36  C   UNL     1     -10.624  34.128  34.382  0.00  0.00    +0.063 A 
ATOM     37  C   UNL     1     -10.098  34.568  35.603  0.00  0.00    +0.162 A 
ATOM     40  C   UNL     1     -10.301  33.811  36.759  0.00  0.00    +0.164 A 
ATOM     41  C   UNL     1     -11.030  32.619  36.693  0.00  0.00    +0.077 A 
ATOM     44  C   UNL     1     -11.563  32.185  35.477  0.00  0.00    +0.078 A 
BRANCH  37  38
ATOM     38  O   UNL     1      -9.367  35.721  35.719  0.00  0.00    -0.491 OA
ATOM     39  C   UNL     1      -9.423  36.650  34.623  0.00  0.00    +0.277 C 
ENDBRANCH  37  38
BRANCH  40  42
ATOM     42  O   UNL     1      -9.759  34.268  37.933  0.00  0.00    -0.491 OA
ATOM     43  C   UNL     1     -10.221  33.614  39.137  0.00  0.00    +0.277 C 
ENDBRANCH  40  42
ENDBRANCH   5   4
ENDBRANCH   6   5
TORSDOF 8
