REMARK  Name = 2VGG
REMARK  9 active torsions:
REMARK  status: ('A' for Active; 'I' for Inactive)
REMARK    1  A    between atoms: P_1  and  O_5
REMARK    2  A    between atoms: O_5  and  C_6
REMARK    3  A    between atoms: C_6  and  C_7
REMARK    4  A    between atoms: C_7  and  O_8
REMARK    5  A    between atoms: C_9  and  O_10
REMARK    6  A    between atoms: C_11  and  O_12
REMARK    7  A    between atoms: C_13  and  C_15
REMARK    8  A    between atoms: C_15  and  O_16
REMARK    9  A    between atoms: O_16  and  P_17
REMARK                            x       y       z     vdW  Elec       q    Type
REMARK                         _______ _______ _______ _____ _____    ______ ____
ROOT
ATOM      4  C   UNL     1      27.883 -27.530  32.703  0.00  0.00    +0.221 C 
ATOM      5  O   UNL     1      28.388 -26.184  32.748  0.00  0.00    -0.336 OA
ATOM      6  C   UNL     1      28.759 -25.732  31.439  0.00  0.00    +0.179 C 
ATOM     13  C   UNL     1      28.067 -26.711  30.474  0.00  0.00    +0.179 C 
ATOM     16  C   UNL     1      28.115 -28.014  31.272  0.00  0.00    +0.207 C 
ENDROOT
BRANCH  13  14
ATOM     14  O   UNL     1      28.756 -26.882  29.245  0.00  0.00    -0.386 OA
ATOM     15  H   UNL     1      29.756 -27.138  29.437  0.00  0.00    +0.210 HD
ENDBRANCH  13  14
BRANCH  16  17
ATOM     17  O   UNL     1      27.158 -28.965  30.846  0.00  0.00    -0.384 OA
ATOM     18  H   UNL     1      27.194 -29.805  31.475  0.00  0.00    +0.210 HD
ENDBRANCH  16  17
BRANCH   4  19
ATOM     19  O   UNL     1      26.454 -27.546  33.009  0.00  0.00    -0.361 OA
ATOM     20  H   UNL     1      26.093 -28.530  32.943  0.00  0.00    +0.213 HD
ENDBRANCH   4  19
BRANCH   4   3
ATOM      3  C   UNL     1      28.561 -28.426  33.732  0.00  0.00    +0.231 C 
BRANCH   3   2
ATOM      2  O   UNL     1      29.966 -28.303  33.666  0.00  0.00    -0.362 OA
BRANCH   2   1
ATOM      1  P   UNL     1      30.880 -29.239  34.635  0.00  0.00    -0.015 P 
ATOM     21  O   UNL     1      32.215 -29.471  33.932  0.00  0.00    -0.638 OA
ATOM     22  O   UNL     1      31.104 -28.545  35.978  0.00  0.00    -0.577 OA
ATOM     23  O   UNL     1      30.174 -30.583  34.870  0.00  0.00    -0.577 OA
ENDBRANCH   2   1
ENDBRANCH   3   2
ENDBRANCH   4   3
BRANCH   6   7
ATOM      7  C   UNL     1      28.485 -24.230  31.239  0.00  0.00    +0.198 C 
BRANCH   7   8
ATOM      8  O   UNL     1      29.400 -23.715  30.276  0.00  0.00    -0.365 OA
BRANCH   8   9
ATOM      9  P   UNL     1      30.165 -22.285  30.355  0.00  0.00    -0.015 P 
ATOM     10  O   UNL     1      29.188 -21.238  30.847  0.00  0.00    -0.577 OA
ATOM     11  O   UNL     1      30.747 -21.928  29.006  0.00  0.00    -0.577 OA
ATOM     12  O   UNL     1      31.330 -22.372  31.312  0.00  0.00    -0.638 OA
ENDBRANCH   8   9
ENDBRANCH   7   8
ENDBRANCH   6   7
TORSDOF 9
