REMARK  Name = 4asd_ligand
REMARK  7 active torsions:
REMARK  status: ('A' for Active; 'I' for Inactive)
REMARK    1  A    between atoms: C2_2  and  N12_26
REMARK    2  A    between atoms: C16_6  and  N14_27
REMARK    3  A    between atoms: C19_9  and  O22_12
REMARK    4  A    between atoms: O22_12  and  C23_29
REMARK    5  A    between atoms: C27_15  and  C29_31
REMARK    6  A    between atoms: N30_17  and  C31_18
REMARK    7  A    between atoms: C6_20  and  C7_21
REMARK                            x       y       z     vdW  Elec       q    Type
REMARK                         _______ _______ _______ _____ _____    ______ ____
ROOT
ATOM     18  C   UNL     1     -25.341  -1.759 -12.256  0.00  0.00    +0.058 A 
ATOM     19  C   UNL     1     -24.084  -1.701 -11.617  0.00  0.00    +0.000 A 
ATOM     20  C   UNL     1     -22.959  -1.234 -12.287  0.00  0.00    +0.012 A 
ATOM     21  C   UNL     1     -23.112  -0.822 -13.604  0.00  0.00    +0.105 A 
ATOM     34  C   UNL     1     -24.343  -0.872 -14.261  0.00  0.00    +0.012 A 
ATOM     35  C   UNL     1     -25.465  -1.340 -13.576  0.00  0.00    +0.000 A 
ENDROOT
BRANCH  18  16
ATOM     12  N   UNL     1     -27.828  -2.830  -9.815  0.00  0.00    -0.209 N 
ATOM     13  H   UNL     1     -28.310  -3.393 -10.487  0.00  0.00    +0.227 HD
ATOM     14  C   UNL     1     -26.747  -2.075 -10.251  0.00  0.00    +0.315 C 
ATOM     15  O   UNL     1     -26.069  -1.375  -9.521  0.00  0.00    -0.381 OA
ATOM     16  N   UNL     1     -26.506  -2.223 -11.611  0.00  0.00    -0.220 N 
ATOM     17  H   UNL     1     -27.199  -2.685 -12.165  0.00  0.00    +0.223 HD
BRANCH  12  11
ATOM      1  C   UNL     1     -28.055  -1.789  -7.594  0.00  0.00    +0.058 A 
ATOM      2  C   UNL     1     -28.518  -1.838  -6.274  0.00  0.00    +0.046 A 
ATOM      7  C   UNL     1     -29.237  -2.975  -5.867  0.00  0.00    +0.059 A 
ATOM      8 CL   UNL     1     -29.841  -3.103  -4.255  0.00  0.00    -0.054 Cl
ATOM      9  C   UNL     1     -29.467  -4.049  -6.742  0.00  0.00    +0.038 A 
ATOM     10  C   UNL     1     -28.991  -3.977  -8.056  0.00  0.00    +0.065 A 
ATOM     11  C   UNL     1     -28.285  -2.851  -8.488  0.00  0.00    +0.096 A 
BRANCH   2   3
ATOM      3  C   UNL     1     -28.240  -0.676  -5.351  0.00  0.00    +0.372 C 
ATOM      4  F   UNL     1     -27.559   0.341  -5.933  0.00  0.00    -0.222 F 
ATOM      5  F   UNL     1     -29.358  -0.102  -4.830  0.00  0.00    -0.222 F 
ATOM      6  F   UNL     1     -27.463  -1.049  -4.310  0.00  0.00    -0.222 F 
ENDBRANCH   2   3
ENDBRANCH  12  11
ENDBRANCH  18  16
BRANCH  21  22
ATOM     22  O   UNL     1     -22.013  -0.372 -14.299  0.00  0.00    -0.256 OA
BRANCH  22  23
ATOM     23  C   UNL     1     -21.706   0.972 -14.335  0.00  0.00    +0.138 A 
ATOM     24  C   UNL     1     -20.398   1.184 -14.778  0.00  0.00    +0.088 A 
ATOM     25  C   UNL     1     -19.937   2.495 -14.861  0.00  0.00    +0.112 A 
ATOM     31  N   UNL     1     -20.726   3.561 -14.550  0.00  0.00    -0.292 NA
ATOM     32  C   UNL     1     -21.992   3.328 -14.116  0.00  0.00    +0.086 A 
ATOM     33  C   UNL     1     -22.543   2.048 -13.990  0.00  0.00    +0.070 A 
BRANCH  25  26
ATOM     26  C   UNL     1     -18.534   2.702 -15.341  0.00  0.00    +0.221 C 
ATOM     27  O   UNL     1     -17.877   1.720 -15.690  0.00  0.00    -0.379 OA
ATOM     28  N   UNL     1     -18.033   3.988 -15.404  0.00  0.00    -0.287 N 
ATOM     29  H   UNL     1     -18.609   4.756 -15.124  0.00  0.00    +0.184 HD
ATOM     30  C   UNL     1     -16.677   4.242 -15.873  0.00  0.00    +0.164 C 
ENDBRANCH  25  26
ENDBRANCH  22  23
ENDBRANCH  21  22
TORSDOF 6
