REMARK  Name = 2xm8_ligand
REMARK  3 active torsions:
REMARK  status: ('A' for Active; 'I' for Inactive)
REMARK    1  A    between atoms: C08_8  and  C09_9
REMARK    2  A    between atoms: C10_10  and  O23_23
REMARK    3  A    between atoms: C15_15  and  N21_21
REMARK                            x       y       z     vdW  Elec       q    Type
REMARK                         _______ _______ _______ _____ _____    ______ ____
ROOT
ATOM      1  C   UNL     1       7.785 -47.676   7.810  0.00  0.00    +0.027 A 
ATOM      2  C   UNL     1       9.287 -47.651   7.935  0.00  0.00    +0.052 A 
ATOM      3  C   UNL     1      10.114 -47.224   6.833  0.00  0.00    +0.141 A 
ATOM      4  N   UNL     1       9.572 -46.776   5.566  0.00  0.00    -0.285 N 
ATOM      5  H   UNL     1       9.110 -47.621   5.231  0.00  0.00    +0.192 HD
ATOM     13  N   UNL     1      11.496 -47.212   6.973  0.00  0.00    -0.255 NA
ATOM     14  C   UNL     1      12.073 -47.588   8.110  0.00  0.00    +0.093 A 
ATOM     15  N   UNL     1      11.227 -48.023   9.236  0.00  0.00    -0.296 NA
ATOM     24  C   UNL     1       9.871 -48.041   9.108  0.00  0.00    +0.039 A 
ATOM     25  C   UNL     1       9.075 -48.459  10.183  0.00  0.00    +0.020 A 
ATOM     26  C   UNL     1       7.618 -48.483  10.061  0.00  0.00    +0.011 A 
ATOM     27  C   UNL     1       7.017 -48.085   8.864  0.00  0.00    +0.006 A 
ENDROOT
BRANCH   4   6
ATOM      6  C   UNL     1       9.292 -45.843   4.485  0.00  0.00    +0.151 C 
ATOM      7  C   UNL     1       8.303 -46.132   3.359  0.00  0.00    +0.085 C 
ATOM      8  C   UNL     1       8.387 -44.864   2.512  0.00  0.00    +0.132 C 
ATOM      9  N   UNL     1       8.849 -43.759   3.410  0.00  0.00    +0.229 N 
ATOM     10  H   UNL     1       8.148 -43.019   3.454  0.00  0.00    +0.201 HD
ATOM     11  H   UNL     1       9.710 -43.346   3.052  0.00  0.00    +0.201 HD
ATOM     12  C   UNL     1       9.075 -44.343   4.761  0.00  0.00    +0.159 C 
ENDBRANCH   4   6
BRANCH  14  16
ATOM     16  C   UNL     1      13.578 -47.557   8.214  0.00  0.00    +0.045 A 
ATOM     17  C   UNL     1      14.289 -47.030   7.202  0.00  0.00    +0.009 A 
ATOM     18  C   UNL     1      15.722 -46.991   7.270  0.00  0.00    -0.014 A 
ATOM     19  C   UNL     1      16.404 -47.515   8.410  0.00  0.00    -0.004 A 
ATOM     20  C   UNL     1      15.666 -48.068   9.464  0.00  0.00    +0.028 A 
ATOM     21  C   UNL     1      14.289 -48.109   9.402  0.00  0.00    +0.107 A 
BRANCH  21  22
ATOM     22  O   UNL     1      13.576 -48.656  10.446  0.00  0.00    -0.327 OA
ATOM     23  H   UNL     1      12.637 -48.609  10.250  0.00  0.00    +0.251 HD
ENDBRANCH  21  22
ENDBRANCH  14  16
TORSDOF 3
