REMARK  Name = 4F9B
REMARK  1 active torsions:
REMARK  status: ('A' for Active; 'I' for Inactive)
REMARK    1  A    between atoms: C_10  and  C_11
REMARK                            x       y       z     vdW  Elec       q    Type
REMARK                         _______ _______ _______ _____ _____    ______ ____
ROOT
ATOM      1  C   UNL     1       7.646  12.095  30.248  0.00  0.00    +0.043 A 
ATOM      2  C   UNL     1       8.556  11.116  30.101  0.00  0.00    +0.072 A 
ATOM      9  N   UNL     1       9.630  11.619  29.485  0.00  0.00    -0.251 NA
ATOM     10  C   UNL     1       9.389  12.924  29.324  0.00  0.00    +0.056 A 
ATOM     11  C   UNL     1      10.245  13.860  28.686  0.00  0.00    +0.075 C 
ATOM     12  C   UNL     1       9.779  15.329  28.639  0.00  0.00    +0.111 C 
ATOM     13  N   UNL     1       8.398  15.551  29.165  0.00  0.00    -0.311 N 
ATOM     14  H   UNL     1       7.961  16.527  29.129  0.00  0.00    +0.149 HD
ATOM     15  C   UNL     1       7.670  14.470  29.710  0.00  0.00    +0.246 C 
ATOM     16  O   UNL     1       6.536  14.687  30.106  0.00  0.00    -0.270 OA
ATOM     17  C   UNL     1       8.172  13.237  29.789  0.00  0.00    +0.060 A 
ENDROOT
BRANCH   2   3
ATOM      3  C   UNL     1       8.349   9.816  30.426  0.00  0.00    +0.003 A 
ATOM      4  C   UNL     1       9.383   8.885  30.300  0.00  0.00    +0.029 A 
ATOM      5  C   UNL     1       9.182   7.530  30.584  0.00  0.00    +0.111 A 
ATOM      6  N   UNL     1       7.914   7.067  31.018  0.00  0.00    -0.263 NA
ATOM      7  C   UNL     1       6.884   8.012  31.170  0.00  0.00    +0.111 A 
ATOM      8  C   UNL     1       7.105   9.361  30.863  0.00  0.00    +0.029 A 
ENDBRANCH   2   3
TORSDOF 1
