REMARK  Name = 8PU
REMARK  4 active torsions:
REMARK  status: ('A' for Active; 'I' for Inactive)
REMARK    1  A    between atoms: OAV_2  and  CAQ_3
REMARK    2  A    between atoms: CAP_9  and  SAM_10
REMARK    3  A    between atoms: SAM_10  and  NAH_13
REMARK    4  A    between atoms: NAH_13  and  CAC_14
REMARK                            x       y       z     vdW  Elec       q    Type
REMARK                         _______ _______ _______ _____ _____    ______ ____
ROOT
ATOM      7  N   UNL     1      -6.085  11.552   1.812  0.00  0.00    -0.093 NA
ENDROOT
BRANCH   7   8
ATOM      8  C   UNL     1      -7.137  10.742   1.759  0.00  0.00    +0.130 A 
ATOM      9  C   UNL     1      -7.404   9.695   2.648  0.00  0.00    +0.026 A 
ATOM     10  C   UNL     1      -8.558   8.931   2.534  0.00  0.00    +0.055 A 
ATOM     11  C   UNL     1      -9.055   7.881   3.212  0.00  0.00    +0.101 A 
ATOM     12  C   UNL     1      -8.436   7.184   4.417  0.00  0.00    +0.056 C 
ATOM     13  N   UNL     1     -10.248   7.446   2.743  0.00  0.00    -0.081 NA
ATOM     14  O   UNL     1     -10.514   8.324   1.598  0.00  0.00    -0.354 OA
ATOM     15  C   UNL     1      -9.436   9.218   1.514  0.00  0.00    +0.180 A 
ATOM     16  C   UNL     1      -9.217  10.235   0.659  0.00  0.00    +0.084 A 
ATOM     17  C   UNL     1      -8.072  10.999   0.740  0.00  0.00    +0.215 A 
ATOM     18  O   UNL     1      -7.814  11.995  -0.120  0.00  0.00    -0.285 OA
ENDBRANCH   7   8
BRANCH   7   5
ATOM      5  S   UNL     1      -4.570  10.949   1.601  0.00  0.00    +0.096 S 
ATOM      6  O   UNL     1      -4.312   9.795   2.533  0.00  0.00    -0.148 OA
ATOM     19  O   UNL     1      -3.622  12.076   1.758  0.00  0.00    -0.148 OA
BRANCH   5   4
ATOM      3  C   UNL     1      -4.623  11.311  -1.136  0.00  0.00    +0.158 A 
ATOM      4  C   UNL     1      -4.458  10.452  -0.048  0.00  0.00    +0.161 A 
ATOM     20  C   UNL     1      -4.192   9.132  -0.256  0.00  0.00    +0.023 A 
ATOM     21  C   UNL     1      -4.064   8.618  -1.558  0.00  0.00    +0.002 A 
ATOM     22  C   UNL     1      -4.245   9.457  -2.619  0.00  0.00    +0.003 A 
ATOM     23  C   UNL     1      -4.489  10.807  -2.439  0.00  0.00    +0.038 A 
BRANCH   3   2
ATOM      1  C   UNL     1      -5.446  13.458  -1.991  0.00  0.00    +0.253 C 
ATOM      2  O   UNL     1      -4.842  12.633  -0.927  0.00  0.00    -0.470 OA
ENDBRANCH   3   2
ENDBRANCH   5   4
ENDBRANCH   7   5
TORSDOF 4
