REMARK  Name = 1A9
REMARK  8 active torsions:
REMARK  status: ('A' for Active; 'I' for Inactive)
REMARK    1  A    between atoms: CBE_6  and  CAR_7
REMARK    2  A    between atoms: CAR_7  and  CAO_8
REMARK    3  A    between atoms: CAO_8  and  CAX_9
REMARK    4  A    between atoms: NAS_11  and  CAY_12
REMARK    5  A    between atoms: CBA_15  and  CBB_16
REMARK    6  A    between atoms: CAZ_23  and  NAT_24
REMARK    7  A    between atoms: NAT_24  and  SBF_25
REMARK    8  A    between atoms: SBF_25  and  CBC_28
REMARK                            x       y       z     vdW  Elec       q    Type
REMARK                         _______ _______ _______ _____ _____    ______ ____
ROOT
ATOM     11  C   UNL     1      -6.164  -8.061  -0.210  0.00  0.00    +0.075 A 
ATOM     12  C   UNL     1      -6.576  -8.898   0.806  0.00  0.00    +0.035 A 
ATOM     13  C   UNL     1      -7.875  -8.855   1.274  0.00  0.00    +0.092 A 
ATOM     23  C   UNL     1      -8.772  -7.958   0.717  0.00  0.00    +0.019 A 
ATOM     24  C   UNL     1      -8.358  -7.124  -0.310  0.00  0.00    +0.015 A 
ATOM     31  C   UNL     1      -7.051  -7.153  -0.775  0.00  0.00    +0.018 A 
ENDROOT
BRANCH  24  25
ATOM     25  C   UNL     1      -9.323  -6.163  -0.892  0.00  0.00    +0.063 C 
ATOM     26  N   UNL     1     -10.671  -6.061  -0.548  0.00  0.00    -0.173 NA
ATOM     27  C   UNL     1     -11.425  -5.131  -1.139  0.00  0.00    +0.296 C 
ATOM     28  O   UNL     1     -12.620  -4.962  -0.896  0.00  0.00    -0.261 OA
ATOM     29  S   UNL     1     -10.459  -4.307  -2.219  0.00  0.00    -0.049 S 
ATOM     30  C   UNL     1      -9.030  -5.164  -1.893  0.00  0.00    +0.110 C 
ENDBRANCH  24  25
BRANCH  11  10
ATOM      9  C   UNL     1      -4.109  -7.518  -1.628  0.00  0.00    +0.246 C 
ATOM     10  N   UNL     1      -4.795  -8.206  -0.590  0.00  0.00    -0.179 NA
ATOM     32  O   UNL     1      -4.669  -6.681  -2.327  0.00  0.00    -0.273 OA
BRANCH   9   8
ATOM      8  C   UNL     1      -2.671  -7.880  -1.808  0.00  0.00    +0.087 C 
BRANCH   8   7
ATOM      7  C   UNL     1      -2.005  -7.049  -2.844  0.00  0.00    +0.014 C 
BRANCH   7   6
ATOM      1  C   UNL     1       0.210  -6.426  -1.890  0.00  0.00    +0.005 C 
ATOM      2  C   UNL     1       1.695  -6.497  -2.035  0.00  0.00    +0.005 C 
ATOM      3  C   UNL     1       2.202  -7.882  -2.309  0.00  0.00    +0.026 C 
ATOM      4  C   UNL     1       1.209  -9.004  -2.215  0.00  0.00    -0.031 C 
ATOM      5  C   UNL     1      -0.191  -8.726  -2.677  0.00  0.00    -0.031 C 
ATOM      6  C   UNL     1      -0.519  -7.281  -2.885  0.00  0.00    +0.022 C 
ENDBRANCH   7   6
ENDBRANCH   8   7
ENDBRANCH   9   8
ENDBRANCH  11  10
BRANCH  13  14
ATOM     14  N   UNL     1      -8.237  -9.719   2.350  0.00  0.00    -0.096 NA
BRANCH  14  15
ATOM     15  S   UNL     1      -7.490  -9.493   3.803  0.00  0.00    +0.099 S 
ATOM     16  O   UNL     1      -8.143 -10.226   4.872  0.00  0.00    -0.148 OA
ATOM     22  O   UNL     1      -6.099  -9.956   3.651  0.00  0.00    -0.148 OA
BRANCH  15  17
ATOM     17  C   UNL     1      -7.429  -7.796   4.297  0.00  0.00    +0.157 A 
ATOM     18  C   UNL     1      -8.045  -7.206   5.467  0.00  0.00    +0.027 A 
ATOM     19  C   UNL     1      -7.719  -5.747   5.515  0.00  0.00    +0.009 A 
ATOM     20  C   UNL     1      -6.895  -5.364   4.421  0.00  0.00    +0.037 A 
ATOM     21  S   UNL     1      -6.595  -6.660   3.474  0.00  0.00    -0.066 S 
ENDBRANCH  15  17
ENDBRANCH  14  15
ENDBRANCH  13  14
TORSDOF 8
