REMARK  Name = 1E8
REMARK  5 active torsions:
REMARK  status: ('A' for Active; 'I' for Inactive)
REMARK    1  A    between atoms: CAD_10  and  CAW_26
REMARK    2  A    between atoms: OAV_25  and  CAY_27
REMARK    3  A    between atoms: OAV_25  and  CAZ_28
REMARK    4  A    between atoms: CBA_29  and  CBB_30
REMARK    5  A    between atoms: CBE_31  and  NBF_32
REMARK                            x       y       z     vdW  Elec       q    Type
REMARK                         _______ _______ _______ _____ _____    ______ ____
ROOT
ATOM      1  N   UNL     1       1.082 -25.539  51.452  0.00  0.00    -0.205 NA
ATOM      2  C   UNL     1       0.063 -26.075  52.126  0.00  0.00    +0.176 A 
ATOM      3  N   UNL     1       0.262 -26.986  53.070  0.00  0.00    -0.107 NA
ATOM      4  C   UNL     1      -1.198 -25.743  51.845  0.00  0.00    +0.090 A 
ATOM      5  C   UNL     1      -2.406 -26.066  52.274  0.00  0.00    +0.107 A 
ATOM     19  N   UNL     1      -3.279 -25.362  51.570  0.00  0.00    -0.168 NA
ATOM     20  N   UNL     1      -2.775 -24.743  50.816  0.00  0.00    -0.234 N 
ATOM     31  C   UNL     1      -1.464 -24.871  50.884  0.00  0.00    +0.165 A 
ATOM     32  N   UNL     1      -0.493 -24.299  50.172  0.00  0.00    -0.205 NA
ATOM     33  C   UNL     1       0.828 -24.612  50.453  0.00  0.00    +0.202 A 
ENDROOT
BRANCH  20  21
ATOM     21  C   UNL     1      -3.350 -23.821  49.834  0.00  0.00    +0.127 C 
ATOM     22  C   UNL     1      -3.277 -22.414  50.413  0.00  0.00    +0.028 C 
ATOM     23  C   UNL     1      -3.891 -21.383  49.488  0.00  0.00    +0.024 C 
ATOM     24  C   UNL     1      -5.336 -21.727  49.251  0.00  0.00    +0.094 C 
ATOM     25  N   UNL     1      -5.422 -23.078  48.711  0.00  0.00    -0.278 N 
ATOM     26  C   UNL     1      -6.067 -23.257  47.558  0.00  0.00    +0.226 C 
ATOM     29  O   UNL     1      -6.602 -22.338  46.953  0.00  0.00    -0.275 OA
ATOM     30  C   UNL     1      -4.774 -24.184  49.447  0.00  0.00    +0.118 C 
BRANCH  26  27
ATOM     27  C   UNL     1      -6.127 -24.683  47.024  0.00  0.00    +0.085 C 
ATOM     28  C   UNL     1      -6.149 -24.657  45.503  0.00  0.00    +0.010 C 
ENDBRANCH  26  27
ENDBRANCH  20  21
BRANCH   5   6
ATOM      6  C   UNL     1      -2.755 -26.871  53.282  0.00  0.00    +0.020 A 
ATOM      7  C   UNL     1      -2.279 -26.577  54.550  0.00  0.00    +0.005 A 
ATOM      8  C   UNL     1      -2.620 -27.346  55.646  0.00  0.00    +0.037 A 
ATOM      9  C   UNL     1      -3.469 -28.430  55.511  0.00  0.00    +0.145 A 
ATOM     17  C   UNL     1      -3.975 -28.724  54.250  0.00  0.00    +0.037 A 
ATOM     18  C   UNL     1      -3.630 -27.945  53.144  0.00  0.00    +0.005 A 
BRANCH   9  10
ATOM     10  O   UNL     1      -3.768 -29.133  56.636  0.00  0.00    -0.454 OA
BRANCH  10  11
ATOM     11  C   UNL     1      -4.232 -30.404  56.556  0.00  0.00    +0.145 A 
ATOM     12  C   UNL     1      -5.544 -30.680  56.893  0.00  0.00    +0.037 A 
ATOM     13  C   UNL     1      -6.016 -31.982  56.838  0.00  0.00    +0.003 A 
ATOM     14  C   UNL     1      -5.185 -33.012  56.446  0.00  0.00    +0.000 A 
ATOM     15  C   UNL     1      -3.869 -32.740  56.129  0.00  0.00    +0.003 A 
ATOM     16  C   UNL     1      -3.395 -31.443  56.183  0.00  0.00    +0.037 A 
ENDBRANCH  10  11
ENDBRANCH   9  10
ENDBRANCH   5   6
TORSDOF 5
