REMARK  Name = 4p5z_ligand
REMARK  6 active torsions:
REMARK  status: ('A' for Active; 'I' for Inactive)
REMARK    1  A    between atoms: C33_2  and  C29_5
REMARK    2  A    between atoms: C27_10  and  N26_11
REMARK    3  A    between atoms: N24_14  and  C17_15
REMARK    4  A    between atoms: C14_20  and  N11_21
REMARK    5  A    between atoms: C10_22  and  N21_23
REMARK    6  A    between atoms: C9_26  and  C22_27
REMARK                            x       y       z     vdW  Elec       q    Type
REMARK                         _______ _______ _______ _____ _____    ______ ____
ROOT
ATOM     13  C   UNL     1       1.443  -6.097 -15.612  0.00  0.00    +0.060 A 
ATOM     14  C   UNL     1       2.684  -6.655 -15.361  0.00  0.00    +0.002 A 
ATOM     15  C   UNL     1       2.826  -7.964 -14.896  0.00  0.00    +0.011 A 
ATOM     16  C   UNL     1       1.744  -8.796 -14.674  0.00  0.00    +0.086 A 
ATOM     38  C   UNL     1       0.545  -8.198 -14.949  0.00  0.00    +0.011 A 
ATOM     39  C   UNL     1       0.383  -6.922 -15.393  0.00  0.00    +0.002 A 
ENDROOT
BRANCH  16  17
ATOM     17  N   UNL     1       1.655 -10.041 -14.244  0.00  0.00    -0.163 N 
ATOM     18  C   UNL     1       1.681 -11.000 -15.139  0.00  0.00    +0.184 A 
ATOM     19  N   UNL     1       1.963 -11.042 -16.440  0.00  0.00    -0.260 NA
ATOM     20  C   UNL     1       1.991 -12.238 -17.056  0.00  0.00    +0.053 A 
ATOM     21  C   UNL     1       2.261 -12.329 -18.400  0.00  0.00    +0.022 A 
ATOM     22  C   UNL     1       2.280 -13.560 -19.020  0.00  0.00    +0.004 A 
ATOM     23  C   UNL     1       2.028 -14.721 -18.321  0.00  0.00    +0.005 A 
ATOM     24  C   UNL     1       1.732 -14.695 -16.973  0.00  0.00    +0.019 A 
ATOM     25  C   UNL     1       1.700 -13.487 -16.314  0.00  0.00    +0.044 A 
ATOM     26  N   UNL     1       1.441 -13.446 -15.017  0.00  0.00    -0.306 NA
ATOM     27  C   UNL     1       1.423 -12.261 -14.413  0.00  0.00    +0.077 A 
ATOM     28  C   UNL     1       1.162 -11.922 -12.996  0.00  0.00    +0.096 A 
ATOM     34  C   UNL     1       1.285 -10.446 -13.021  0.00  0.00    +0.194 A 
BRANCH  28  29
ATOM     29  C   UNL     1       0.817 -12.936 -11.939  0.00  0.00    +0.165 C 
ATOM     30  O   UNL     1       0.723 -12.654 -10.771  0.00  0.00    -0.415 OA
ATOM     31  N   UNL     1       0.558 -14.184 -12.241  0.00  0.00    -0.309 N 
ATOM     32  H   UNL     1       0.587 -14.484 -13.195  0.00  0.00    +0.179 HD
ATOM     33  H   UNL     1       0.332 -14.837 -11.518  0.00  0.00    +0.179 HD
ENDBRANCH  28  29
BRANCH  34  35
ATOM     35  N   UNL     1       1.140  -9.643 -11.963  0.00  0.00    -0.292 N 
ATOM     36  H   UNL     1       1.317  -8.633 -12.055  0.00  0.00    +0.190 HD
ATOM     37  H   UNL     1       0.852 -10.035 -11.055  0.00  0.00    +0.190 HD
ENDBRANCH  34  35
ENDBRANCH  16  17
BRANCH  13  11
ATOM      8  N   UNL     1       0.419  -2.798 -16.504  0.00  0.00    -0.209 N 
ATOM      9  H   UNL     1       1.272  -2.591 -16.984  0.00  0.00    +0.226 HD
ATOM     10  C   UNL     1       0.290  -4.007 -15.969  0.00  0.00    +0.315 C 
ATOM     11  N   UNL     1       1.360  -4.793 -16.004  0.00  0.00    -0.219 N 
ATOM     12  H   UNL     1       2.200  -4.382 -16.358  0.00  0.00    +0.224 HD
ATOM     40  O   UNL     1      -0.733  -4.355 -15.480  0.00  0.00    -0.381 OA
BRANCH   8   7
ATOM      3  C   UNL     1      -2.587  -0.730 -15.729  0.00  0.00    +0.033 A 
ATOM      4  C   UNL     1      -2.387   0.213 -16.678  0.00  0.00    +0.029 A 
ATOM      5  C   UNL     1      -1.310   0.153 -17.514  0.00  0.00    +0.023 A 
ATOM      6  C   UNL     1      -0.396  -0.833 -17.396  0.00  0.00    +0.064 A 
ATOM      7  C   UNL     1      -0.534  -1.813 -16.445  0.00  0.00    +0.096 A 
ATOM     41  C   UNL     1      -1.661  -1.739 -15.580  0.00  0.00    +0.058 A 
BRANCH   3   2
ATOM      1  F   UNL     1      -4.752   0.041 -15.462  0.00  0.00    -0.221 F 
ATOM      2  C   UNL     1      -3.787  -0.541 -14.883  0.00  0.00    +0.373 C 
ATOM     42  F   UNL     1      -4.126  -1.521 -14.164  0.00  0.00    -0.221 F 
ATOM     43  F   UNL     1      -3.530   0.264 -13.982  0.00  0.00    -0.221 F 
ENDBRANCH   3   2
ENDBRANCH   8   7
ENDBRANCH  13  11
TORSDOF 6
