REMARK  Name = 2e9u_ligand
REMARK  0 active torsions:
REMARK  status: ('A' for Active; 'I' for Inactive)
REMARK                            x       y       z     vdW  Elec       q    Type
REMARK                         _______ _______ _______ _____ _____    ______ ____
ROOT
ATOM      1  C   UNL     1      -0.722   8.062 -18.409  0.00  0.00    +0.004 A 
ATOM      2  C   UNL     1       0.191   8.738 -19.249  0.00  0.00    -0.026 A 
ATOM      3  C   UNL     1      -0.253   9.853 -19.982  0.00  0.00    +0.015 A 
ATOM      4 CL   UNL     1       0.858  10.687 -21.010  0.00  0.00    -0.085 Cl
ATOM      5  C   UNL     1      -1.584  10.310 -19.900  0.00  0.00    +0.011 A 
ATOM      6  C   UNL     1      -2.522   9.635 -19.055  0.00  0.00    +0.098 A 
ATOM      7  N   UNL     1      -3.857  10.063 -18.946  0.00  0.00    -0.216 N 
ATOM      8  H   UNL     1      -4.408   9.633 -18.231  0.00  0.00    +0.223 HD
ATOM      9  C   UNL     1      -4.491  11.021 -19.727  0.00  0.00    +0.321 C 
ATOM     10  O   UNL     1      -3.938  11.628 -20.638  0.00  0.00    -0.379 OA
ATOM     11  N   UNL     1      -5.798  11.277 -19.434  0.00  0.00    -0.194 N 
ATOM     12  H   UNL     1      -6.221  11.969 -20.018  0.00  0.00    +0.234 HD
ATOM     13  C   UNL     1      -6.640  10.753 -18.477  0.00  0.00    +0.157 A 
ATOM     14  C   UNL     1      -7.798  11.426 -17.988  0.00  0.00    +0.120 A 
ATOM     15  N   UNL     1      -8.609  10.873 -17.040  0.00  0.00    -0.299 NA
ATOM     16  C   UNL     1      -8.279   9.639 -16.568  0.00  0.00    +0.123 A 
ATOM     17  C   UNL     1      -7.122   8.944 -17.044  0.00  0.00    +0.175 A 
ATOM     18  O   UNL     1      -6.712   7.672 -16.614  0.00  0.00    -0.295 OA
ATOM     19  C   UNL     1      -6.732   7.393 -15.207  0.00  0.00    +0.200 C 
ATOM     20  C   UNL     1      -5.423   7.865 -14.549  0.00  0.00    +0.034 C 
ATOM     21  C   UNL     1      -4.377   6.785 -14.637  0.00  0.00    +0.005 C 
ATOM     22  C   UNL     1      -3.750   6.204 -15.910  0.00  0.00    +0.033 C 
ATOM     23  C   UNL     1      -2.623   7.116 -16.381  0.00  0.00    +0.189 C 
ATOM     24  O   UNL     1      -3.067   7.888 -17.489  0.00  0.00    -0.324 OA
ATOM     25  N   UNL     1      -6.313   9.512 -17.996  0.00  0.00    -0.238 NA
ATOM     26  C   UNL     1      -2.089   8.499 -18.299  0.00  0.00    +0.113 A 
ENDROOT
TORSDOF 0
