REMARK  Name = 3vc4_ligand
REMARK  2 active torsions:
REMARK  status: ('A' for Active; 'I' for Inactive)
REMARK    1  A    between atoms: C04_4  and  C12_12
REMARK    2  A    between atoms: C05_5  and  C13_13
REMARK                            x       y       z     vdW  Elec       q    Type
REMARK                         _______ _______ _______ _____ _____    ______ ____
ROOT
ATOM      1  C   UNL     1      42.228  -2.076  -2.070  0.00  0.00    +0.056 A 
ATOM      2  C   UNL     1      41.951  -2.107  -0.581  0.00  0.00    +0.002 A 
ATOM     12  C   UNL     1      42.963  -1.966   0.307  0.00  0.00    +0.058 A 
ATOM     13  C   UNL     1      44.254  -1.831  -0.249  0.00  0.00    +0.047 A 
ATOM     18  C   UNL     1      44.532  -1.805  -1.663  0.00  0.00    +0.052 A 
ATOM     19  C   UNL     1      43.478  -1.943  -2.587  0.00  0.00    +0.037 A 
ENDROOT
BRANCH   2   3
ATOM      3  C   UNL     1      40.522  -2.208  -0.134  0.00  0.00    +0.038 C 
ATOM      4  C   UNL     1      40.013  -2.782   0.975  0.00  0.00    +0.121 C 
ATOM      5  S   UNL     1      40.692  -3.346   2.242  0.00  0.00    +0.046 S 
ATOM      6  C   UNL     1      39.420  -3.929   3.111  0.00  0.00    +0.283 C 
ATOM      7  O   UNL     1      39.431  -4.469   4.185  0.00  0.00    -0.370 OA
ATOM      8  N   UNL     1      38.214  -3.668   2.442  0.00  0.00    -0.187 N 
ATOM      9  H   UNL     1      37.297  -3.885   2.775  0.00  0.00    +0.226 HD
ATOM     10  C   UNL     1      38.564  -2.971   1.070  0.00  0.00    +0.248 C 
ATOM     11  O   UNL     1      37.721  -2.647   0.279  0.00  0.00    -0.373 OA
ENDBRANCH   2   3
BRANCH  13  14
ATOM     14  C   UNL     1      45.383  -1.655   0.681  0.00  0.00    +0.377 C 
ATOM     15  F   UNL     1      45.547  -0.338   0.569  0.00  0.00    -0.220 F 
ATOM     16  F   UNL     1      45.054  -2.031   1.939  0.00  0.00    -0.220 F 
ATOM     17  F   UNL     1      46.503  -2.236   0.220  0.00  0.00    -0.220 F 
ENDBRANCH  13  14
TORSDOF 2
