REMARK  Name = 3g9n_ligand
REMARK  4 active torsions:
REMARK  status: ('A' for Active; 'I' for Inactive)
REMARK    1  A    between atoms: O1_1  and  N2_2
REMARK    2  A    between atoms: N6_6  and  C7_7
REMARK    3  A    between atoms: C7_7  and  C8_8
REMARK    4  A    between atoms: C23_23  and  C25_25
REMARK                            x       y       z     vdW  Elec       q    Type
REMARK                         _______ _______ _______ _____ _____    ______ ____
ROOT
ATOM      3  N   UNL     1      18.776  28.411  20.822  0.00  0.00    -0.121 NA
ATOM      4  C   UNL     1      19.932  28.370  21.438  0.00  0.00    +0.159 C 
ATOM      5  C   UNL     1      20.902  27.252  21.620  0.00  0.00    +0.033 A 
ATOM      6  C   UNL     1      20.993  25.913  21.162  0.00  0.00    -0.024 A 
ATOM     13  C   UNL     1      22.079  25.121  21.571  0.00  0.00    -0.021 A 
ATOM     14  C   UNL     1      23.050  25.616  22.417  0.00  0.00    -0.019 A 
ATOM     15  C   UNL     1      22.954  26.921  22.879  0.00  0.00    +0.009 A 
ATOM     16  C   UNL     1      21.880  27.740  22.500  0.00  0.00    +0.078 A 
ATOM     17  N   UNL     1      21.593  29.060  22.814  0.00  0.00    -0.210 N 
ATOM     30  C   UNL     1      20.483  29.492  22.208  0.00  0.00    +0.249 C 
ATOM     31  O   UNL     1      19.965  30.586  22.273  0.00  0.00    -0.373 OA
ENDROOT
BRANCH   6   7
ATOM      7  C   UNL     1      19.981  25.321  20.235  0.00  0.00    -0.022 A 
ATOM      8  C   UNL     1      20.008  23.952  19.945  0.00  0.00    +0.007 A 
ATOM      9  C   UNL     1      19.087  23.386  19.079  0.00  0.00    +0.000 A 
ATOM     10  C   UNL     1      18.124  24.185  18.488  0.00  0.00    -0.001 A 
ATOM     11  C   UNL     1      18.071  25.541  18.763  0.00  0.00    +0.000 A 
ATOM     12  C   UNL     1      18.993  26.099  19.624  0.00  0.00    +0.007 A 
ENDBRANCH   6   7
BRANCH   3   1
ATOM      1  O   UNL     1      18.018  29.610  20.844  0.00  0.00    -0.235 OA
ATOM      2  H   UNL     1      17.212  29.484  20.358  0.00  0.00    +0.292 HD
ENDBRANCH   3   1
BRANCH  17  18
ATOM     18  C   UNL     1      22.419  29.859  23.708  0.00  0.00    +0.229 C 
BRANCH  18  19
ATOM     19  C   UNL     1      23.276  30.848  22.988  0.00  0.00    +0.006 A 
ATOM     20  C   UNL     1      24.643  30.848  23.233  0.00  0.00    +0.097 A 
ATOM     21  O   UNL     1      25.169  29.936  24.106  0.00  0.00    -0.301 OA
ATOM     22  C   UNL     1      26.598  29.839  24.218  0.00  0.00    +0.352 C 
ATOM     23  O   UNL     1      27.154  31.160  24.124  0.00  0.00    -0.340 OA
ATOM     24  C   UNL     1      26.930  31.766  22.842  0.00  0.00    +0.220 C 
ATOM     25  C   UNL     1      25.449  31.771  22.580  0.00  0.00    +0.004 A 
ATOM     26  C   UNL     1      24.886  32.686  21.700  0.00  0.00    +0.006 A 
ATOM     27  C   UNL     1      23.511  32.672  21.471  0.00  0.00    +0.108 A 
ATOM     28  F   UNL     1      22.940  33.543  20.620  0.00  0.00    -0.196 F 
ATOM     29  C   UNL     1      22.709  31.757  22.119  0.00  0.00    +0.006 A 
ENDBRANCH  18  19
ENDBRANCH  17  18
TORSDOF 4
