REMARK  Name = 6FW
REMARK  4 active torsions:
REMARK  status: ('A' for Active; 'I' for Inactive)
REMARK    1  A    between atoms: C17_4  and  S18_24
REMARK    2  A    between atoms: C05_15  and  N07_17
REMARK    3  A    between atoms: S18_24  and  C19_25
REMARK    4  A    between atoms: S18_38  and  C19_39
REMARK                            x       y       z     vdW  Elec       q    Type
REMARK                         _______ _______ _______ _____ _____    ______ ____
ROOT
ATOM      3  C   UNL     1     -16.904  13.372  16.006  0.00  0.00    +0.025 A 
ATOM      4  C   UNL     1     -17.856  13.267  17.010  0.00  0.00    +0.007 A 
ATOM      5  C   UNL     1     -19.198  13.414  16.674  0.00  0.00    +0.012 A 
ATOM      6  C   UNL     1     -19.575  13.684  15.362  0.00  0.00    +0.058 A 
ATOM      7 CL   UNL     1     -21.269  13.855  14.973  0.00  0.00    -0.082 Cl
ATOM      8  C   UNL     1     -18.622  13.789  14.366  0.00  0.00    +0.012 A 
ATOM      9  C   UNL     1     -17.284  13.634  14.699  0.00  0.00    +0.007 A 
ENDROOT
BRANCH   3   2
ATOM      1  C   UNL     1     -14.454  14.814  16.155  0.00  0.00    +0.074 C 
ATOM      2  S   UNL     1     -15.171  13.190  16.378  0.00  0.00    -0.113 S 
ENDBRANCH   3   2
TORSDOF 1
