REMARK  Name = 7Z0
REMARK  6 active torsions:
REMARK  status: ('A' for Active; 'I' for Inactive)
REMARK    1  A    between atoms: OAU_2  and  CBC_3
REMARK    2  A    between atoms: CAW_11  and  CAG_12
REMARK    3  A    between atoms: CAH_13  and  CBB_14
REMARK    4  A    between atoms: CBA_21  and  NAS_22
REMARK    5  A    between atoms: NAS_22  and  SBF_23
REMARK    6  A    between atoms: SBF_23  and  CAZ_26
REMARK                            x       y       z     vdW  Elec       q    Type
REMARK                         _______ _______ _______ _____ _____    ______ ____
ROOT
ATOM      9  C   UNL     1      10.860   2.281  10.562  0.00  0.00    +0.098 A 
ATOM     10  C   UNL     1      10.641   1.129  11.312  0.00  0.00    +0.150 A 
ATOM     11  C   UNL     1      10.495   1.215  12.690  0.00  0.00    +0.032 A 
ATOM     12  C   UNL     1      10.582   2.458  13.335  0.00  0.00    +0.023 A 
ATOM     13  C   UNL     1      10.815   3.607  12.585  0.00  0.00    +0.119 A 
ATOM     25  F   UNL     1      10.554  -0.090  10.685  0.00  0.00    -0.203 F 
ATOM     26  C   UNL     1      10.955   3.506  11.211  0.00  0.00    +0.167 A 
ATOM     27  F   UNL     1      11.167   4.529  10.556  0.00  0.00    -0.202 F 
ENDROOT
BRANCH   9   8
ATOM      7  C   UNL     1      11.152   2.190   7.920  0.00  0.00    -0.074 C 
ATOM      8  C   UNL     1      11.019   2.229   9.100  0.00  0.00    -0.059 C 
BRANCH   7   6
ATOM      3  C   UNL     1      13.230   1.916   3.405  0.00  0.00    +0.276 C 
ATOM      4  C   UNL     1      12.324   2.005   4.368  0.00  0.00    +0.144 C 
ATOM      5  C   UNL     1      12.419   2.042   5.704  0.00  0.00    +0.007 C 
ATOM      6  C   UNL     1      11.252   2.143   6.455  0.00  0.00    +0.156 C 
ATOM     28  C   UNL     1      10.023   2.211   5.793  0.00  0.00    +0.226 C 
ATOM     29  N   UNL     1      10.001   2.191   4.412  0.00  0.00    -0.032 NA
ATOM     30  C   UNL     1      11.144   2.091   3.730  0.00  0.00    +0.406 C 
ATOM     31  N   UNL     1      11.364   2.041   2.413  0.00  0.00    +0.090 NA
ATOM     32  N   UNL     1      12.602   1.943   2.224  0.00  0.00    +0.004 NA
BRANCH   3   2
ATOM      1  C   UNL     1      15.267   1.934   2.282  0.00  0.00    +0.254 C 
ATOM      2  O   UNL     1      14.587   1.839   3.536  0.00  0.00    -0.454 OA
ENDBRANCH   3   2
ENDBRANCH   7   6
ENDBRANCH   9   8
BRANCH  13  14
ATOM     14  N   UNL     1      10.934   4.858  13.071  0.00  0.00    -0.094 NA
BRANCH  14  15
ATOM     15  S   UNL     1      10.739   5.142  14.652  0.00  0.00    +0.093 S 
ATOM     16  O   UNL     1      11.610   4.234  15.482  0.00  0.00    -0.148 OA
ATOM     24  O   UNL     1      11.125   6.585  14.931  0.00  0.00    -0.148 OA
BRANCH  15  17
ATOM     17  C   UNL     1       9.037   4.994  15.149  0.00  0.00    +0.128 A 
ATOM     18  C   UNL     1       8.688   4.555  16.418  0.00  0.00    +0.027 A 
ATOM     19  C   UNL     1       7.352   4.471  16.796  0.00  0.00    +0.036 A 
ATOM     20 BR   UNL     1       6.930   3.866  18.506  0.00  0.00    -0.049 Br
ATOM     21  C   UNL     1       6.331   4.839  15.926  0.00  0.00    +0.007 A 
ATOM     22  C   UNL     1       6.686   5.291  14.664  0.00  0.00    +0.002 A 
ATOM     23  C   UNL     1       8.024   5.375  14.287  0.00  0.00    +0.020 A 
ENDBRANCH  15  17
ENDBRANCH  14  15
ENDBRANCH  13  14
TORSDOF 6
