REMARK  Name = 5KMI
REMARK  4 active torsions:
REMARK  status: ('A' for Active; 'I' for Inactive)
REMARK    1  A    between atoms: C_2  and  N_16
REMARK    2  A    between atoms: C_3  and  C_18
REMARK    3  A    between atoms: C_8  and  N_24
REMARK    4  A    between atoms: C_22  and  C_23
REMARK                            x       y       z     vdW  Elec       q    Type
REMARK                         _______ _______ _______ _____ _____    ______ ____
ROOT
ATOM     14  N   UNL     1     -16.282  -2.959 -24.114  0.00  0.00    -0.266 N 
ATOM     15  H   UNL     1     -15.664  -3.208 -23.277  0.00  0.00    +0.157 HD
ATOM     16  C   UNL     1     -17.024  -3.985 -24.709  0.00  0.00    +0.305 C 
ATOM     17  N   UNL     1     -16.872  -5.233 -24.089  0.00  0.00    -0.288 N 
ATOM     18  H   UNL     1     -16.080  -5.411 -23.392  0.00  0.00    +0.151 HD
ATOM     32  O   UNL     1     -17.754  -3.817 -25.715  0.00  0.00    -0.253 OA
ENDROOT
BRANCH  17  19
ATOM     19  C   UNL     1     -17.823  -6.274 -24.423  0.00  0.00    +0.136 C 
ATOM     20  C   UNL     1     -18.422  -6.995 -23.244  0.00  0.00    -0.015 A 
ATOM     21  C   UNL     1     -18.401  -8.417 -23.498  0.00  0.00    -0.012 A 
ATOM     22  C   UNL     1     -19.020  -9.295 -22.605  0.00  0.00    +0.009 A 
ATOM     23  C   UNL     1     -19.649  -8.753 -21.458  0.00  0.00    +0.001 A 
ATOM     24  C   UNL     1     -19.635  -7.349 -21.202  0.00  0.00    +0.000 A 
ATOM     25  C   UNL     1     -17.632  -8.653 -24.738  0.00  0.00    -0.012 A 
ATOM     26  C   UNL     1     -17.294  -9.837 -25.418  0.00  0.00    +0.009 A 
ATOM     27  C   UNL     1     -16.563  -9.730 -26.646  0.00  0.00    +0.001 A 
ATOM     28  C   UNL     1     -16.175  -8.470 -27.166  0.00  0.00    +0.000 A 
ATOM     29  C   UNL     1     -16.511  -7.268 -26.473  0.00  0.00    +0.006 A 
ATOM     30  C   UNL     1     -19.003  -6.451 -22.109  0.00  0.00    +0.006 A 
ATOM     31  C   UNL     1     -17.242  -7.380 -25.279  0.00  0.00    -0.015 A 
ENDBRANCH  17  19
BRANCH  14  13
ATOM      1  C   UNL     1     -15.127  -0.966 -25.048  0.00  0.00    +0.138 A 
ATOM      2  N   UNL     1     -15.136   0.327 -25.467  0.00  0.00    -0.239 NA
ATOM      3  C   UNL     1     -16.355   0.995 -25.409  0.00  0.00    +0.127 A 
ATOM      4  C   UNL     1     -16.406   2.404 -25.936  0.00  0.00    +0.088 C 
ATOM      5  N   UNL     1     -17.547   0.468 -24.936  0.00  0.00    -0.231 NA
ATOM      6  C   UNL     1     -17.516  -0.840 -24.489  0.00  0.00    +0.096 A 
ATOM     13  C   UNL     1     -16.297  -1.626 -24.545  0.00  0.00    +0.079 A 
BRANCH   6   7
ATOM      7  C   UNL     1     -18.785  -1.316 -23.877  0.00  0.00    +0.002 A 
ATOM      8  C   UNL     1     -20.040  -0.971 -24.485  0.00  0.00    +0.010 A 
ATOM      9  C   UNL     1     -21.242  -1.402 -23.894  0.00  0.00    +0.001 A 
ATOM     10  C   UNL     1     -21.210  -2.181 -22.700  0.00  0.00    +0.000 A 
ATOM     11  C   UNL     1     -19.976  -2.530 -22.086  0.00  0.00    +0.001 A 
ATOM     12  C   UNL     1     -18.767  -2.100 -22.665  0.00  0.00    +0.010 A 
ENDBRANCH   6   7
ENDBRANCH  14  13
TORSDOF 3
