REMARK  Name = 3SXR
REMARK  8 active torsions:
REMARK  status: ('A' for Active; 'I' for Inactive)
REMARK    1  A    between atoms: C_2  and  C_3
REMARK    2  A    between atoms: N_4  and  C_16
REMARK    3  A    between atoms: C_7  and  C_8
REMARK    4  A    between atoms: C_9  and  N_18
REMARK    5  A    between atoms: C_12  and  C_13
REMARK    6  A    between atoms: C_16  and  C_17
REMARK    7  A    between atoms: C_17  and  O_33
REMARK    8  A    between atoms: N_22  and  C_23
REMARK                            x       y       z     vdW  Elec       q    Type
REMARK                         _______ _______ _______ _____ _____    ______ ____
ROOT
ATOM      1  C   UNL     1       9.627  -3.370  21.249  0.00  0.00    +0.133 A 
ATOM      2  N   UNL     1       9.667  -4.700  21.574  0.00  0.00    -0.232 NA
ATOM      3  C   UNL     1       9.170  -4.946  22.754  0.00  0.00    +0.164 A 
ATOM      4  S   UNL     1       8.569  -3.534  23.566  0.00  0.00    -0.048 S 
ATOM      5  N   UNL     1       9.108  -6.190  23.295  0.00  0.00    -0.279 N 
ATOM      6  H   UNL     1       9.353  -6.985  22.622  0.00  0.00    +0.156 HD
ATOM     24  C   UNL     1       9.048  -2.585  22.206  0.00  0.00    +0.095 A 
ENDROOT
BRANCH   5   7
ATOM      7  C   UNL     1       8.774  -6.602  24.596  0.00  0.00    +0.130 A 
ATOM      8  N   UNL     1       8.463  -5.629  25.460  0.00  0.00    -0.217 NA
ATOM      9  C   UNL     1       8.028  -6.007  26.666  0.00  0.00    +0.130 A 
ATOM     10  N   UNL     1       7.915  -7.272  27.086  0.00  0.00    -0.218 NA
ATOM     11  C   UNL     1       8.281  -8.240  26.238  0.00  0.00    +0.127 A 
ATOM     12  N   UNL     1       8.244  -9.540  26.729  0.00  0.00    -0.313 N 
ATOM     13  C   UNL     1       7.733  -9.884  28.062  0.00  0.00    +0.122 C 
ATOM     14  C   UNL     1       8.600 -10.944  28.723  0.00  0.00    +0.103 C 
ATOM     15  N   UNL     1       8.725 -12.123  27.860  0.00  0.00    -0.297 NA
ATOM     16  C   UNL     1       9.321 -11.721  26.580  0.00  0.00    +0.103 C 
ATOM     21  C   UNL     1       8.439 -10.717  25.877  0.00  0.00    +0.122 C 
ATOM     22  C   UNL     1       7.621  -4.927  27.618  0.00  0.00    +0.088 C 
ATOM     23  C   UNL     1       8.720  -7.949  24.936  0.00  0.00    +0.087 A 
BRANCH  15  17
ATOM     17  C   UNL     1       9.515 -13.187  28.506  0.00  0.00    +0.112 C 
BRANCH  17  18
ATOM     18  C   UNL     1       9.221 -14.596  27.987  0.00  0.00    +0.171 C 
BRANCH  18  19
ATOM     19  O   UNL     1      10.413 -15.422  27.902  0.00  0.00    -0.394 OA
ATOM     20  H   UNL     1      11.103 -14.976  27.248  0.00  0.00    +0.209 HD
ENDBRANCH  18  19
ENDBRANCH  17  18
ENDBRANCH  15  17
ENDBRANCH   5   7
BRANCH  24  25
ATOM     25  C   UNL     1       8.733  -1.146  22.308  0.00  0.00    +0.257 C 
ATOM     26  O   UNL     1       8.266  -0.686  23.343  0.00  0.00    -0.269 OA
ATOM     27  N   UNL     1       8.927  -0.427  21.181  0.00  0.00    -0.280 N 
ATOM     28  H   UNL     1       9.138  -0.931  20.261  0.00  0.00    +0.155 HD
BRANCH  27  29
ATOM     29  C   UNL     1       8.854   0.993  21.205  0.00  0.00    +0.055 A 
ATOM     30  C   UNL     1       7.721   1.669  20.739  0.00  0.00    +0.062 A 
ATOM     31 CL   UNL     1       6.368   0.758  20.127  0.00  0.00    -0.082 Cl
ATOM     32  C   UNL     1       7.669   3.055  20.696  0.00  0.00    +0.022 A 
ATOM     33  C   UNL     1       8.770   3.779  21.119  0.00  0.00    +0.002 A 
ATOM     34  C   UNL     1       9.904   3.118  21.588  0.00  0.00    +0.005 A 
ATOM     35  C   UNL     1       9.966   1.720  21.653  0.00  0.00    -0.028 A 
ATOM     36  C   UNL     1      11.192   1.033  22.202  0.00  0.00    +0.045 C 
ENDBRANCH  27  29
ENDBRANCH  24  25
TORSDOF 6
