REMARK  Name = A98
REMARK  3 active torsions:
REMARK  status: ('A' for Active; 'I' for Inactive)
REMARK    1  A    between atoms: C5_2  and  O2_13
REMARK    2  A    between atoms: C3_4  and  S1_7
REMARK    3  A    between atoms: C2_5  and  S1_7
REMARK                            x       y       z     vdW  Elec       q    Type
REMARK                         _______ _______ _______ _____ _____    ______ ____
ROOT
ATOM      1  C   UNL     1      -2.397  30.235 -24.440  0.00  0.00    +0.211 A 
ATOM      2  S   UNL     1      -1.588  30.528 -22.960  0.00  0.00    -0.022 S 
ATOM      3  C   UNL     1      -1.024  28.925 -22.814  0.00  0.00    +0.161 A 
ATOM      7  N   UNL     1      -1.436  28.209 -23.854  0.00  0.00    -0.133 NA
ATOM      8  N   UNL     1      -2.235  28.959 -24.785  0.00  0.00    -0.123 NA
ATOM      9  N   UNL     1      -3.117  31.183 -25.146  0.00  0.00    -0.116 NA
ATOM     10  C   UNL     1      -3.184  32.497 -24.790  0.00  0.00    +0.427 C 
ATOM     11  O   UNL     1      -2.504  33.039 -23.949  0.00  0.00    -0.224 OA
ENDROOT
BRANCH  10  12
ATOM     12  O   UNL     1      -4.146  33.087 -25.511  0.00  0.00    -0.429 OA
ATOM     13  C   UNL     1      -4.443  34.452 -25.159  0.00  0.00    +0.257 C 
ENDBRANCH  10  12
BRANCH   3   4
ATOM      4  S   UNL     1      -0.052  28.554 -21.422  0.00  0.00    -0.087 S 
BRANCH   4   5
ATOM      5  C   UNL     1       0.780  27.041 -21.961  0.00  0.00    +0.064 C 
ATOM      6  C   UNL     1       1.853  26.721 -20.954  0.00  0.00    +0.013 C 
ENDBRANCH   4   5
ENDBRANCH   3   4
TORSDOF 3
