REMARK  Name = 4cmu_ligand
REMARK  5 active torsions:
REMARK  status: ('A' for Active; 'I' for Inactive)
REMARK    1  A    between atoms: C24_13  and  C28_18
REMARK    2  A    between atoms: C2_14  and  N8_26
REMARK    3  A    between atoms: C9_17  and  C18_19
REMARK    4  A    between atoms: C27_20  and  N26_24
REMARK    5  A    between atoms: C21_21  and  N20_25
REMARK                            x       y       z     vdW  Elec       q    Type
REMARK                         _______ _______ _______ _____ _____    ______ ____
ROOT
ATOM      1  C   UNL     1      34.554  46.948   8.790  0.00  0.00    +0.014 A 
ATOM      2  C   UNL     1      33.669  45.992   8.201  0.00  0.00    +0.050 A 
ATOM      3  C   UNL     1      33.234  46.265   6.797  0.00  0.00    +0.202 C 
ATOM      4  O   UNL     1      33.734  45.497   5.967  0.00  0.00    -0.390 OA
ATOM      5  N   UNL     1      32.313  47.335   6.478  0.00  0.00    -0.261 N 
ATOM      6  C   UNL     1      31.977  47.484   5.049  0.00  0.00    +0.171 C 
ATOM      7  C   UNL     1      31.674  48.307   7.456  0.00  0.00    +0.247 C 
ATOM      8  C   UNL     1      30.162  48.552   7.281  0.00  0.00    +0.101 A 
ATOM      9  N   UNL     1      29.678  49.648   6.571  0.00  0.00    -0.211 N 
ATOM     10  N   UNL     1      28.342  49.719   6.510  0.00  0.00    -0.237 NA
ATOM     11  C   UNL     1      27.901  48.656   7.188  0.00  0.00    +0.005 A 
ATOM     12  C   UNL     1      26.425  48.477   7.287  0.00  0.00    +0.085 C 
ATOM     13  C   UNL     1      30.430  50.697   5.907  0.00  0.00    +0.234 C 
ATOM     14  C   UNL     1      28.985  47.855   7.717  0.00  0.00    +0.003 A 
ATOM     15  C   UNL     1      28.953  46.596   8.528  0.00  0.00    -0.038 A 
ATOM     16  C   UNL     1      27.903  46.236   9.398  0.00  0.00    +0.041 A 
ATOM     17  N   UNL     1      27.879  45.078  10.151  0.00  0.00    -0.304 NA
ATOM     18  C   UNL     1      28.938  44.198  10.072  0.00  0.00    +0.134 A 
ATOM     22  C   UNL     1      30.047  44.461   9.231  0.00  0.00    +0.134 A 
ATOM     23  O   UNL     1      31.084  43.536   9.205  0.00  0.00    -0.301 OA
ATOM     24  C   UNL     1      32.271  43.740   8.374  0.00  0.00    +0.196 C 
ATOM     25  C   UNL     1      32.956  42.367   8.276  0.00  0.00    +0.061 C 
ATOM     26  C   UNL     1      30.002  45.664   8.486  0.00  0.00    +0.025 A 
ATOM     27  C   UNL     1      33.231  44.816   8.948  0.00  0.00    +0.008 A 
ATOM     28  C   UNL     1      33.724  44.673  10.292  0.00  0.00    +0.038 A 
ATOM     29  C   UNL     1      34.597  45.637  10.851  0.00  0.00    +0.131 A 
ATOM     30  F   UNL     1      35.033  45.476  12.103  0.00  0.00    -0.181 F 
ATOM     31  C   UNL     1      35.013  46.766  10.115  0.00  0.00    +0.027 A 
ENDROOT
BRANCH  18  19
ATOM     19  N   UNL     1      28.903  43.024  10.850  0.00  0.00    -0.328 N 
ATOM     20  H   UNL     1      29.685  42.355  10.808  0.00  0.00    +0.172 HD
ATOM     21  H   UNL     1      28.096  42.835  11.461  0.00  0.00    +0.172 HD
ENDBRANCH  18  19
TORSDOF 1
