REMARK  Name = 3w2q_ligand
REMARK  16 active torsions:
REMARK  status: ('A' for Active; 'I' for Inactive)
REMARK    1  A    between atoms: CAJ_1  and  CBL_12
REMARK    2  A    between atoms: CBI_15  and  NBC_34
REMARK    3  A    between atoms: CBM_16  and  NBB_35
REMARK    4  A    between atoms: CBP_17  and  NBC_34
REMARK    5  A    between atoms: CBN_18  and  OBE_38
REMARK    6  A    between atoms: CBO_19  and  OBD_39
REMARK    7  A    between atoms: CBK_21  and  CAV_26
REMARK    8  A    between atoms: CBH_22  and  CAX_27
REMARK    9  A    between atoms: CAA_23  and  CAU_30
REMARK   10  A    between atoms: CAB_24  and  NBU_36
REMARK   11  A    between atoms: CAC_25  and  NBU_36
REMARK   12  A    between atoms: CAV_26  and  OBE_38
REMARK   13  A    between atoms: CAX_27  and  CBT_28
REMARK   14  A    between atoms: CBT_28  and  CAY_29
REMARK   15  A    between atoms: CAY_29  and  NBU_36
REMARK   16  A    between atoms: CAU_30  and  OBD_39
REMARK                            x       y       z     vdW  Elec       q    Type
REMARK                         _______ _______ _______ _____ _____    ______ ____
ROOT
ATOM      3  C   UNL     1       1.591  22.631  52.634  0.00  0.00    +0.132 A 
ATOM      4  C   UNL     1       0.679  22.164  51.710  0.00  0.00    +0.115 A 
ATOM     22  C   UNL     1       0.661  20.790  51.497  0.00  0.00    +0.023 A 
ATOM     23  C   UNL     1       1.536  19.963  52.199  0.00  0.00    +0.018 A 
ATOM     24  N   UNL     1       2.416  20.432  53.093  0.00  0.00    -0.325 NA
ATOM     25  C   UNL     1       1.486  18.601  51.967  0.00  0.00    +0.027 A 
ATOM     26  C   UNL     1       0.589  18.055  51.071  0.00  0.00    +0.126 A 
ATOM     30  C   UNL     1      -0.289  18.874  50.388  0.00  0.00    +0.108 A 
ATOM     42  C   UNL     1      -0.243  20.239  50.608  0.00  0.00    +0.020 A 
ATOM     43  C   UNL     1       2.414  21.749  53.291  0.00  0.00    +0.097 A 
ENDROOT
BRANCH  30  31
ATOM     31  N   UNL     1      -1.237  18.341  49.477  0.00  0.00    -0.233 N 
ATOM     32  H   UNL     1      -0.951  17.777  48.702  0.00  0.00    +0.225 HD
ATOM     33  C   UNL     1      -2.591  18.634  49.703  0.00  0.00    +0.203 C 
ATOM     34  O   UNL     1      -3.018  19.579  50.358  0.00  0.00    -0.385 OA
BRANCH  33  35
ATOM     35  C   UNL     1      -3.554  17.670  49.067  0.00  0.00    +0.150 C 
BRANCH  35  36
ATOM     36  C   UNL     1      -5.011  18.123  49.196  0.00  0.00    +0.073 C 
BRANCH  36  37
ATOM     37  C   UNL     1      -5.726  17.713  47.913  0.00  0.00    +0.133 C 
BRANCH  37  38
ATOM     38  N   UNL     1      -6.959  18.439  47.595  0.00  0.00    +0.231 N 
ATOM     39  H   UNL     1      -6.736  19.335  47.190  0.00  0.00    +0.203 HD
ATOM     40  C   UNL     1      -7.717  17.604  46.668  0.00  0.00    +0.190 C 
ATOM     41  C   UNL     1      -7.831  18.607  48.749  0.00  0.00    +0.190 C 
ENDBRANCH  37  38
ENDBRANCH  36  37
ENDBRANCH  35  36
ENDBRANCH  33  35
ENDBRANCH  30  31
BRANCH   3   1
ATOM      1  C   UNL     1       1.654  24.013  52.956  0.00  0.00    +0.084 C 
ATOM      2  N   UNL     1       1.622  25.129  53.300  0.00  0.00    -0.348 NA
ENDBRANCH   3   1
BRANCH   4   5
ATOM      5  N   UNL     1      -0.176  23.061  51.022  0.00  0.00    -0.261 N 
ATOM      6  H   UNL     1      -1.126  22.758  50.766  0.00  0.00    +0.218 HD
BRANCH   5   7
ATOM      7  C   UNL     1       0.256  24.378  50.677  0.00  0.00    +0.058 A 
ATOM      8  C   UNL     1       1.586  24.734  50.460  0.00  0.00    +0.021 A 
ATOM      9  C   UNL     1       1.985  26.032  50.174  0.00  0.00    +0.060 A 
ATOM     10 CL   UNL     1       3.657  26.498  49.921  0.00  0.00    -0.081 Cl
ATOM     11  C   UNL     1       1.009  26.999  50.081  0.00  0.00    +0.098 A 
ATOM     20  C   UNL     1      -0.322  26.674  50.279  0.00  0.00    +0.012 A 
ATOM     21  C   UNL     1      -0.692  25.377  50.586  0.00  0.00    +0.007 A 
BRANCH  11  12
ATOM     12  O   UNL     1       1.397  28.299  49.780  0.00  0.00    -0.309 OA
BRANCH  12  13
ATOM     13  C   UNL     1       0.962  29.094  50.896  0.00  0.00    +0.279 C 
BRANCH  13  14
ATOM     14  C   UNL     1       0.874  30.542  50.526  0.00  0.00    +0.058 A 
ATOM     15  N   UNL     1       0.164  30.856  49.437  0.00  0.00    -0.295 NA
ATOM     16  C   UNL     1       0.101  32.158  49.137  0.00  0.00    +0.083 A 
ATOM     17  C   UNL     1       0.712  33.151  49.868  0.00  0.00    +0.024 A 
ATOM     18  C   UNL     1       1.438  32.804  50.984  0.00  0.00    +0.023 A 
ATOM     19  C   UNL     1       1.518  31.470  51.317  0.00  0.00    +0.035 A 
ENDBRANCH  13  14
ENDBRANCH  12  13
ENDBRANCH  11  12
ENDBRANCH   5   7
ENDBRANCH   4   5
BRANCH  26  27
ATOM     27  O   UNL     1       0.523  16.689  50.833  0.00  0.00    -0.315 OA
BRANCH  27  28
ATOM     28  C   UNL     1       1.690  16.001  51.281  0.00  0.00    +0.190 C 
ATOM     29  C   UNL     1       1.402  14.519  51.149  0.00  0.00    +0.040 C 
ENDBRANCH  27  28
ENDBRANCH  26  27
TORSDOF 13
