REMARK  Name = 2r3h_ligand
REMARK  3 active torsions:
REMARK  status: ('A' for Active; 'I' for Inactive)
REMARK    1  A    between atoms: C01_1  and  C18_18
REMARK    2  A    between atoms: N10_10  and  C11_11
REMARK    3  A    between atoms: C11_11  and  C12_12
REMARK                            x       y       z     vdW  Elec       q    Type
REMARK                         _______ _______ _______ _____ _____    ______ ____
ROOT
ATOM      1  C   UNL     1      -0.228  30.483   7.841  0.00  0.00    +0.071 A 
ATOM      2  C   UNL     1      -1.546  30.798   8.413  0.00  0.00    +0.112 C 
ATOM      3  C   UNL     1       0.642  31.299   7.040  0.00  0.00    +0.017 A 
ATOM      4  N   UNL     1       1.792  30.586   6.662  0.00  0.00    -0.336 NA
ATOM      5  C   UNL     1       1.689  29.366   7.299  0.00  0.00    +0.192 A 
ATOM      6  C   UNL     1       2.602  28.201   7.341  0.00  0.00    +0.164 A 
ATOM      7  N   UNL     1       3.790  28.303   6.645  0.00  0.00    -0.285 N 
ATOM      8  H   UNL     1       3.953  29.109   6.024  0.00  0.00    +0.187 HD
ATOM     16  N   UNL     1       2.267  27.076   8.028  0.00  0.00    -0.302 NA
ATOM     17  C   UNL     1       1.066  27.060   8.686  0.00  0.00    +0.070 A 
ATOM     18  C   UNL     1       0.148  28.108   8.712  0.00  0.00    +0.174 A 
ATOM     19  N   UNL     1       0.450  29.265   8.011  0.00  0.00    -0.205 N 
ENDROOT
BRANCH   7   9
ATOM      9  C   UNL     1       4.813  27.276   6.785  0.00  0.00    +0.212 C 
BRANCH   9  10
ATOM     10  C   UNL     1       4.874  26.327   5.615  0.00  0.00    -0.001 A 
ATOM     11  C   UNL     1       5.098  26.791   4.318  0.00  0.00    +0.035 A 
ATOM     12  C   UNL     1       5.153  25.861   3.261  0.00  0.00    +0.083 A 
ATOM     13  N   UNL     1       4.992  24.533   3.430  0.00  0.00    -0.307 NA
ATOM     14  C   UNL     1       4.765  24.092   4.693  0.00  0.00    +0.083 A 
ATOM     15  C   UNL     1       4.703  24.946   5.813  0.00  0.00    +0.035 A 
ENDBRANCH   9  10
ENDBRANCH   7   9
TORSDOF 2
