REMARK  Name = 3wf8_ligand
REMARK  7 active torsions:
REMARK  status: ('A' for Active; 'I' for Inactive)
REMARK    1  A    between atoms: C08_8  and  C09_9
REMARK    2  A    between atoms: C09_9  and  O11_11
REMARK    3  A    between atoms: O11_11  and  C12_12
REMARK    4  A    between atoms: C12_12  and  C13_13
REMARK    5  A    between atoms: N15_15  and  C16_16
REMARK    6  A    between atoms: C19_19  and  S20_20
REMARK    7  A    between atoms: S20_20  and  N23_23
REMARK                            x       y       z     vdW  Elec       q    Type
REMARK                         _______ _______ _______ _____ _____    ______ ____
ROOT
ATOM     11  O   UNL     1       0.834  16.653 -30.592  0.00  0.00    -0.256 OA
ENDROOT
BRANCH  11  10
ATOM     10  C   UNL     1      -0.265  16.672 -31.422  0.00  0.00    +0.268 C 
ATOM     29  O   UNL     1      -0.223  17.337 -32.446  0.00  0.00    -0.357 OA
BRANCH  10   9
ATOM      1  N   UNL     1      -3.923  14.628 -30.632  0.00  0.00    -0.296 NA
ATOM      2  C   UNL     1      -2.945  13.982 -31.397  0.00  0.00    +0.040 A 
ATOM      3  C   UNL     1      -3.277  12.593 -31.900  0.00  0.00    +0.092 C 
ATOM      4  C   UNL     1      -2.315  11.519 -31.525  0.00  0.00    +0.018 C 
ATOM      5  C   UNL     1      -1.020  11.492 -32.272  0.00  0.00    +0.005 C 
ATOM      6  C   UNL     1      -0.131  12.662 -32.015  0.00  0.00    +0.016 C 
ATOM      7  C   UNL     1      -0.649  13.980 -32.505  0.00  0.00    +0.080 C 
ATOM      8  C   UNL     1      -1.733  14.627 -31.662  0.00  0.00    +0.014 A 
ATOM      9  C   UNL     1      -1.523  15.921 -31.143  0.00  0.00    +0.084 A 
ATOM     30  C   UNL     1      -2.504  16.562 -30.371  0.00  0.00    +0.012 A 
ATOM     31  C   UNL     1      -2.261  17.878 -29.871  0.00  0.00    +0.012 A 
ATOM     32  C   UNL     1      -3.244  18.500 -29.105  0.00  0.00    +0.002 A 
ATOM     33  C   UNL     1      -4.458  17.846 -28.838  0.00  0.00    +0.003 A 
ATOM     34  C   UNL     1      -4.698  16.564 -29.335  0.00  0.00    +0.018 A 
ATOM     35  C   UNL     1      -3.693  15.920 -30.115  0.00  0.00    +0.037 A 
ENDBRANCH  10   9
ENDBRANCH  11  10
BRANCH  11  12
ATOM     12  C   UNL     1       1.896  17.441 -31.009  0.00  0.00    +0.342 C 
BRANCH  12  13
ATOM     13  C   UNL     1       2.616  16.995 -32.250  0.00  0.00    +0.234 C 
ATOM     14  N   UNL     1       3.678  17.809 -32.785  0.00  0.00    -0.232 N 
ATOM     15  H   UNL     1       3.902  18.658 -32.307  0.00  0.00    +0.226 HD
ATOM     28  O   UNL     1       2.261  15.950 -32.784  0.00  0.00    -0.382 OA
BRANCH  14  16
ATOM     16  C   UNL     1       4.440  17.479 -33.966  0.00  0.00    +0.066 A 
ATOM     17  C   UNL     1       4.036  16.525 -34.900  0.00  0.00    +0.011 A 
ATOM     18  C   UNL     1       4.810  16.254 -36.029  0.00  0.00    +0.011 A 
ATOM     19  C   UNL     1       5.991  16.955 -36.224  0.00  0.00    +0.092 A 
ATOM     26  C   UNL     1       6.387  17.909 -35.300  0.00  0.00    +0.011 A 
ATOM     27  C   UNL     1       5.615  18.174 -34.179  0.00  0.00    +0.011 A 
BRANCH  19  20
ATOM     20  S   UNL     1       7.014  16.632 -37.630  0.00  0.00    +0.059 S 
ATOM     24  O   UNL     1       6.211  16.351 -38.774  0.00  0.00    -0.152 OA
ATOM     25  O   UNL     1       7.795  17.783 -37.986  0.00  0.00    -0.152 OA
BRANCH  20  21
ATOM     21  N   UNL     1       7.957  15.346 -37.306  0.00  0.00    -0.263 NA
ATOM     22  H   UNL     1       7.888  14.886 -36.421  0.00  0.00    +0.163 HD
ATOM     23  H   UNL     1       8.605  15.016 -37.992  0.00  0.00    +0.163 HD
ENDBRANCH  20  21
ENDBRANCH  19  20
ENDBRANCH  14  16
ENDBRANCH  12  13
ENDBRANCH  11  12
TORSDOF 7
