REMARK  Name = 2hz0_ligand
REMARK  9 active torsions:
REMARK  status: ('A' for Active; 'I' for Inactive)
REMARK    1  A    between atoms: C12_1  and  C01_13
REMARK    2  A    between atoms: C16_2  and  N13_20
REMARK    3  A    between atoms: C19_3  and  C24_6
REMARK    4  A    between atoms: C24_6  and  C30_7
REMARK    5  A    between atoms: C30_7  and  C31_8
REMARK    6  A    between atoms: C32_9  and  C33_10
REMARK    7  A    between atoms: C32_9  and  N11_19
REMARK    8  A    between atoms: C06_18  and  N11_19
REMARK    9  A    between atoms: C18_23  and  C23_24
REMARK                            x       y       z     vdW  Elec       q    Type
REMARK                         _______ _______ _______ _____ _____    ______ ____
ROOT
ATOM      1  C   UNL     1      17.242  46.032  56.825  0.00  0.00    +0.223 C 
ATOM      2  O   UNL     1      17.680  46.571  55.784  0.00  0.00    -0.381 OA
ATOM      3  N   UNL     1      16.350  46.594  57.657  0.00  0.00    -0.233 N 
ATOM      4  H   UNL     1      16.102  46.091  58.485  0.00  0.00    +0.224 HD
ENDROOT
BRANCH   3   5
ATOM      5  C   UNL     1      15.747  47.832  57.443  0.00  0.00    +0.088 A 
ATOM      6  C   UNL     1      15.311  48.224  56.163  0.00  0.00    +0.045 A 
ATOM      7  C   UNL     1      14.663  49.488  55.900  0.00  0.00    +0.034 A 
ATOM     12  C   UNL     1      14.409  50.360  56.983  0.00  0.00    -0.020 A 
ATOM     16  C   UNL     1      14.859  49.964  58.307  0.00  0.00    +0.025 A 
ATOM     17  C   UNL     1      15.509  48.722  58.536  0.00  0.00    +0.061 A 
BRANCH   7   8
ATOM      8  C   UNL     1      14.236  49.809  54.450  0.00  0.00    +0.364 C 
ATOM      9  F   UNL     1      14.862  50.867  53.981  0.00  0.00    -0.229 F 
ATOM     10  F   UNL     1      12.966  50.055  54.275  0.00  0.00    -0.229 F 
ATOM     11  F   UNL     1      14.514  48.811  53.593  0.00  0.00    -0.229 F 
ENDBRANCH   7   8
BRANCH  12  13
ATOM     13  C   UNL     1      13.703  51.703  56.842  0.00  0.00    +0.089 C 
BRANCH  13  14
ATOM     14  C   UNL     1      12.160  51.606  57.150  0.00  0.00    +0.016 C 
ATOM     15  C   UNL     1      11.528  53.013  57.043  0.00  0.00    +0.007 C 
ENDBRANCH  13  14
ENDBRANCH  12  13
ENDBRANCH   3   5
BRANCH   1  18
ATOM     18  C   UNL     1      17.695  44.669  57.248  0.00  0.00    +0.073 A 
ATOM     19  C   UNL     1      18.895  44.091  56.741  0.00  0.00    +0.061 A 
ATOM     30  C   UNL     1      19.299  42.813  57.160  0.00  0.00    +0.015 A 
ATOM     31  C   UNL     1      18.509  42.073  58.098  0.00  0.00    -0.007 A 
ATOM     32  C   UNL     1      17.314  42.643  58.580  0.00  0.00    -0.017 A 
ATOM     33  C   UNL     1      16.912  43.922  58.150  0.00  0.00    +0.010 A 
BRANCH  19  20
ATOM     20  N   UNL     1      19.670  44.825  55.806  0.00  0.00    -0.310 N 
ATOM     21  H   UNL     1      19.172  45.430  55.137  0.00  0.00    +0.180 HD
BRANCH  20  22
ATOM     22  C   UNL     1      21.133  44.778  55.730  0.00  0.00    +0.187 C 
BRANCH  22  23
ATOM     23  C   UNL     1      21.520  43.722  54.654  0.00  0.00    +0.019 C 
ATOM     24  C   UNL     1      20.599  42.981  53.971  0.00  0.00    +0.134 C 
ATOM     25  N   UNL     1      21.010  42.049  53.014  0.00  0.00    -0.261 NA
ATOM     26  C   UNL     1      22.346  41.803  52.668  0.00  0.00    +0.175 C 
ATOM     27  O   UNL     1      22.673  40.964  51.860  0.00  0.00    -0.390 OA
ATOM     28  C   UNL     1      23.297  42.608  53.413  0.00  0.00    +0.217 C 
ATOM     29  C   UNL     1      22.903  43.514  54.343  0.00  0.00    +0.062 C 
ENDBRANCH  22  23
ENDBRANCH  20  22
ENDBRANCH  19  20
ENDBRANCH   1  18
TORSDOF 8
