REMARK  Name = 6XX
REMARK  6 active torsions:
REMARK  status: ('A' for Active; 'I' for Inactive)
REMARK    1  A    between atoms: C22_2  and  C19_11
REMARK    2  A    between atoms: O05_5  and  C06_6
REMARK    3  A    between atoms: C16_9  and  O18_10
REMARK    4  A    between atoms: O18_10  and  C19_11
REMARK    5  A    between atoms: C39_18  and  N41_19
REMARK    6  A    between atoms: C47_23  and  C48_24
REMARK                            x       y       z     vdW  Elec       q    Type
REMARK                         _______ _______ _______ _____ _____    ______ ____
ROOT
ATOM      4  N   UNL     1     -24.653  -6.450   2.822  0.00  0.00    -0.030 NA
ATOM      5  C   UNL     1     -24.526  -6.310   4.155  0.00  0.00    +0.373 C 
ATOM      6  C   UNL     1     -23.656  -7.099   4.980  0.00  0.00    +0.145 C 
ATOM      7  C   UNL     1     -23.573  -6.872   6.365  0.00  0.00    +0.093 C 
ATOM      8  C   UNL     1     -22.671  -7.707   7.113  0.00  0.00    -0.016 C 
ATOM      9  C   UNL     1     -21.936  -8.687   6.540  0.00  0.00    +0.030 C 
ATOM     10  C   UNL     1     -21.002  -9.535   7.363  0.00  0.00    +0.035 C 
ATOM     11  C   UNL     1     -22.012  -8.911   5.096  0.00  0.00    +0.265 C 
ATOM     12  O   UNL     1     -21.389  -9.783   4.490  0.00  0.00    -0.268 OA
ATOM     13  C   UNL     1     -24.381  -5.871   6.932  0.00  0.00    +0.035 C 
ATOM     21  C   UNL     1     -25.186  -5.146   6.070  0.00  0.00    +0.232 C 
ATOM     22  N   UNL     1     -22.879  -8.107   4.423  0.00  0.00    -0.172 NA
ATOM     23  N   UNL     1     -25.277  -5.341   4.751  0.00  0.00    -0.032 NA
ENDROOT
BRANCH  13  14
ATOM     14  C   UNL     1     -24.374  -5.548   8.391  0.00  0.00    +0.019 A 
ATOM     15  C   UNL     1     -24.618  -6.496   9.382  0.00  0.00    +0.099 A 
ATOM     16  N   UNL     1     -24.641  -6.215  10.694  0.00  0.00    -0.243 NA
ATOM     17  C   UNL     1     -24.420  -4.943  11.055  0.00  0.00    +0.095 A 
ATOM     18  C   UNL     1     -24.174  -3.916  10.157  0.00  0.00    -0.003 A 
ATOM     19  C   UNL     1     -23.920  -2.504  10.619  0.00  0.00    +0.033 C 
ATOM     20  C   UNL     1     -24.160  -4.244   8.813  0.00  0.00    -0.001 A 
ENDBRANCH  13  14
BRANCH   4   3
ATOM      1  C   UNL     1     -23.569  -4.429   0.542  0.00  0.00    +0.123 C 
ATOM      2  C   UNL     1     -24.586  -4.268   1.661  0.00  0.00    +0.182 C 
ATOM      3  C   UNL     1     -25.383  -5.525   1.973  0.00  0.00    +0.261 C 
ATOM     24  C   UNL     1     -25.865  -6.269   0.736  0.00  0.00    +0.182 C 
ATOM     27  C   UNL     1     -24.780  -6.322  -0.330  0.00  0.00    +0.123 C 
ATOM     38  N   UNL     1     -24.265  -4.989  -0.617  0.00  0.00    -0.213 NA
BRANCH  24  25
ATOM     25  O   UNL     1     -27.014  -5.581   0.219  0.00  0.00    -0.348 OA
ATOM     26  C   UNL     1     -27.803  -6.349  -0.681  0.00  0.00    +0.174 C 
ENDBRANCH  24  25
BRANCH   2  28
ATOM     28  O   UNL     1     -25.545  -3.345   1.136  0.00  0.00    -0.350 OA
BRANCH  28  29
ATOM     29  C   UNL     1     -25.844  -2.209   1.939  0.00  0.00    +0.142 C 
BRANCH  29  30
ATOM     30  C   UNL     1     -26.997  -2.503   2.857  0.00  0.00    +0.030 C 
ATOM     31  C   UNL     1     -27.415  -1.266   3.625  0.00  0.00    +0.008 C 
ATOM     32  C   UNL     1     -28.514  -1.598   4.629  0.00  0.00    +0.067 C 
ATOM     33  C   UNL     1     -29.684  -2.319   4.013  0.00  0.00    +0.264 C 
ATOM     34  F   UNL     1     -30.529  -2.759   4.999  0.00  0.00    -0.204 F 
ATOM     35  F   UNL     1     -30.440  -1.443   3.270  0.00  0.00    -0.204 F 
ATOM     36  C   UNL     1     -29.251  -3.474   3.157  0.00  0.00    +0.067 C 
ATOM     37  C   UNL     1     -28.206  -3.042   2.132  0.00  0.00    +0.008 C 
ENDBRANCH  29  30
ENDBRANCH  28  29
ENDBRANCH   2  28
ENDBRANCH   4   3
TORSDOF 6
