REMARK  Name = LEV
REMARK  6 active torsions:
REMARK  status: ('A' for Active; 'I' for Inactive)
REMARK    1  A    between atoms: O2_2  and  C3_3
REMARK    2  A    between atoms: C9_9  and  O16_16
REMARK    3  A    between atoms: C12_12  and  C13_13
REMARK    4  A    between atoms: O16_16  and  C17_17
REMARK    5  A    between atoms: C20_20  and  N23_23
REMARK    6  A    between atoms: N26_26  and  C27_27
REMARK                            x       y       z     vdW  Elec       q    Type
REMARK                         _______ _______ _______ _____ _____    ______ ____
ROOT
ATOM      3  C   UNL     1       8.843 -21.789  23.149  0.00  0.00    +0.145 A 
ATOM      4  C   UNL     1       7.829 -22.677  22.895  0.00  0.00    +0.056 A 
ATOM      5  C   UNL     1       6.998 -22.511  21.784  0.00  0.00    +0.087 A 
ATOM      6  N   UNL     1       6.017 -23.381  21.549  0.00  0.00    -0.243 NA
ATOM      7  C   UNL     1       5.244 -23.247  20.491  0.00  0.00    +0.102 A 
ATOM      8  C   UNL     1       5.363 -22.204  19.580  0.00  0.00    +0.058 A 
ATOM      9  C   UNL     1       6.360 -21.243  19.769  0.00  0.00    +0.148 A 
ATOM     25  C   UNL     1       7.207 -21.407  20.903  0.00  0.00    +0.053 A 
ATOM     26  C   UNL     1       8.247 -20.507  21.169  0.00  0.00    +0.012 A 
ATOM     27  C   UNL     1       9.077 -20.688  22.276  0.00  0.00    +0.091 A 
ENDROOT
BRANCH  27  28
ATOM     28  C   UNL     1      10.192 -19.733  22.473  0.00  0.00    +0.287 C 
ATOM     29  N   UNL     1      11.070 -19.828  23.495  0.00  0.00    -0.084 NA
ATOM     30  O   UNL     1      10.388 -18.877  21.631  0.00  0.00    -0.267 OA
ENDBRANCH  27  28
BRANCH   3   2
ATOM      1  C   UNL     1       9.110 -22.018  25.556  0.00  0.00    +0.253 C 
ATOM      2  O   UNL     1       9.646 -21.982  24.228  0.00  0.00    -0.471 OA
ENDBRANCH   3   2
BRANCH   9  10
ATOM     10  O   UNL     1       6.555 -20.168  18.952  0.00  0.00    -0.453 OA
BRANCH  10  11
ATOM     11  C   UNL     1       6.155 -20.156  17.664  0.00  0.00    +0.146 A 
ATOM     12  C   UNL     1       4.850 -19.795  17.330  0.00  0.00    +0.050 A 
ATOM     13  C   UNL     1       4.460 -19.796  16.005  0.00  0.00    +0.076 A 
ATOM     14 CL   UNL     1       2.857 -19.357  15.536  0.00  0.00    -0.081 Cl
ATOM     15  C   UNL     1       5.363 -20.161  15.020  0.00  0.00    +0.086 A 
ATOM     16  C   UNL     1       6.672 -20.508  15.366  0.00  0.00    +0.021 A 
ATOM     24  C   UNL     1       7.066 -20.516  16.687  0.00  0.00    +0.039 A 
BRANCH  15  17
ATOM     17  N   UNL     1       4.914 -20.132  13.695  0.00  0.00    -0.160 NA
ATOM     18  C   UNL     1       5.224 -21.066  12.765  0.00  0.00    +0.344 C 
ATOM     19  O   UNL     1       5.931 -22.040  13.003  0.00  0.00    -0.249 OA
ATOM     20  N   UNL     1       4.701 -20.865  11.542  0.00  0.00    -0.189 NA
BRANCH  20  21
ATOM     21  C   UNL     1       4.960 -21.747  10.418  0.00  0.00    +0.097 C 
ATOM     22  C   UNL     1       5.392 -20.925   9.212  0.00  0.00    +0.024 C 
ATOM     23  C   UNL     1       4.080 -21.707   9.168  0.00  0.00    +0.024 C 
ENDBRANCH  20  21
ENDBRANCH  15  17
ENDBRANCH  10  11
ENDBRANCH   9  10
TORSDOF 6
