REMARK  Name = 4FYN
REMARK  9 active torsions:
REMARK  status: ('A' for Active; 'I' for Inactive)
REMARK    1  A    between atoms: C_4  and  C_8
REMARK    2  A    between atoms: N_9  and  C_15
REMARK    3  A    between atoms: C_12  and  N_14
REMARK    4  A    between atoms: N_14  and  C_25
REMARK    5  A    between atoms: N_14  and  C_26
REMARK    6  A    between atoms: C_18  and  O_21
REMARK    7  A    between atoms: O_23  and  C_28
REMARK    8  A    between atoms: C_25  and  C_28
REMARK    9  A    between atoms: C_26  and  C_29
REMARK                            x       y       z     vdW  Elec       q    Type
REMARK                         _______ _______ _______ _____ _____    ______ ____
ROOT
ATOM      1  N   UNL     1       4.628   0.309  14.725  0.00  0.00    -0.295 N 
ATOM      2  C   UNL     1       5.836   0.252  15.336  0.00  0.00    +0.113 A 
ATOM      3  C   UNL     1       5.734  -0.660  16.324  0.00  0.00    +0.131 A 
ATOM      4  N   UNL     1       4.495  -1.146  16.351  0.00  0.00    -0.233 NA
ATOM      5  C   UNL     1       4.135   1.048  13.659  0.00  0.00    +0.073 A 
ATOM     14  C   UNL     1       2.836   0.841  13.287  0.00  0.00    +0.139 A 
ATOM     15  N   UNL     1       2.050  -0.034  13.922  0.00  0.00    -0.234 NA
ATOM     16  C   UNL     1       2.463  -0.749  14.962  0.00  0.00    +0.166 A 
ATOM     17  N   UNL     1       1.642  -1.657  15.646  0.00  0.00    -0.296 N 
ATOM     18  H   UNL     1       2.094  -2.236  16.424  0.00  0.00    +0.154 HD
ATOM     32  C   UNL     1       3.804  -0.583  15.386  0.00  0.00    +0.179 A 
ENDROOT
BRANCH   5   6
ATOM      6  C   UNL     1       4.956   2.070  12.947  0.00  0.00    +0.004 A 
ATOM      7  C   UNL     1       4.886   2.219  11.539  0.00  0.00    +0.010 A 
ATOM      8  C   UNL     1       5.632   3.196  10.885  0.00  0.00    +0.004 A 
ATOM      9  C   UNL     1       6.462   4.040  11.620  0.00  0.00    +0.045 A 
ATOM     10  C   UNL     1       6.537   3.908  13.011  0.00  0.00    +0.117 A 
ATOM     13  C   UNL     1       5.792   2.934  13.679  0.00  0.00    +0.055 A 
BRANCH  10  11
ATOM     11  O   UNL     1       7.373   4.717  13.721  0.00  0.00    -0.507 OA
ATOM     12  H   UNL     1       6.819   5.257  14.431  0.00  0.00    +0.292 HD
ENDBRANCH  10  11
ENDBRANCH   5   6
BRANCH  17  19
ATOM     19  C   UNL     1       0.267  -1.873  15.395  0.00  0.00    +0.033 A 
ATOM     20  C   UNL     1      -0.436  -2.843  16.128  0.00  0.00    +0.025 A 
ATOM     21  C   UNL     1      -1.789  -3.065  15.888  0.00  0.00    +0.025 A 
ATOM     22  C   UNL     1      -2.466  -2.327  14.901  0.00  0.00    +0.030 A 
ATOM     23  C   UNL     1      -1.768  -1.363  14.176  0.00  0.00    +0.025 A 
ATOM     31  C   UNL     1      -0.421  -1.147  14.417  0.00  0.00    +0.025 A 
BRANCH  22  24
ATOM     24  N   UNL     1      -3.833  -2.528  14.630  0.00  0.00    -0.328 N 
BRANCH  24  25
ATOM     25  C   UNL     1      -4.386  -2.222  13.293  0.00  0.00    +0.102 C 
ATOM     26  C   UNL     1      -4.667  -3.486  12.467  0.00  0.00    +0.024 C 
ENDBRANCH  24  25
BRANCH  24  27
ATOM     27  C   UNL     1      -4.738  -3.020  15.680  0.00  0.00    +0.133 C 
BRANCH  27  28
ATOM     28  C   UNL     1      -4.924  -4.533  15.560  0.00  0.00    +0.174 C 
BRANCH  28  29
ATOM     29  O   UNL     1      -6.116  -4.884  16.259  0.00  0.00    -0.394 OA
ATOM     30  H   UNL     1      -6.025  -4.608  17.268  0.00  0.00    +0.209 HD
ENDBRANCH  28  29
ENDBRANCH  27  28
ENDBRANCH  24  27
ENDBRANCH  22  24
ENDBRANCH  17  19
TORSDOF 8
