REMARK  Name = 5X8I
REMARK  4 active torsions:
REMARK  status: ('A' for Active; 'I' for Inactive)
REMARK    1  A    between atoms: C_7  and  C_8
REMARK    2  A    between atoms: C_8  and  C_9
REMARK    3  A    between atoms: C_8  and  N_10
REMARK    4  A    between atoms: C_21  and  C_23
REMARK                            x       y       z     vdW  Elec       q    Type
REMARK                         _______ _______ _______ _____ _____    ______ ____
ROOT
ATOM      7  N   UNL     1     -29.432  10.573  18.491  0.00  0.00    -0.236 N 
ATOM      8  N   UNL     1     -30.466  11.455  18.146  0.00  0.00    -0.064 NA
ATOM      9  N   UNL     1     -31.244  11.656  19.301  0.00  0.00    -0.128 NA
ATOM     10  C   UNL     1     -30.719  10.926  20.304  0.00  0.00    +0.131 A 
ATOM     11  C   UNL     1     -31.073  10.749  21.633  0.00  0.00    +0.143 A 
ATOM     12  N   UNL     1     -30.354   9.934  22.414  0.00  0.00    -0.253 NA
ATOM     13  C   UNL     1     -29.263   9.246  21.984  0.00  0.00    +0.073 A 
ATOM     14  C   UNL     1     -28.579   8.441  22.879  0.00  0.00    +0.029 A 
ATOM     15  C   UNL     1     -27.455   7.732  22.468  0.00  0.00    +0.010 A 
ATOM     16  C   UNL     1     -26.998   7.814  21.146  0.00  0.00    -0.017 A 
ATOM     26  C   UNL     1     -27.637   8.633  20.209  0.00  0.00    +0.020 A 
ATOM     27  C   UNL     1     -28.775   9.367  20.589  0.00  0.00    +0.028 A 
ATOM     28  C   UNL     1     -29.540  10.207  19.769  0.00  0.00    +0.100 A 
ENDROOT
BRANCH  16  17
ATOM     17  C   UNL     1     -25.755   7.079  20.819  0.00  0.00    -0.016 A 
ATOM     18  C   UNL     1     -24.917   7.731  19.916  0.00  0.00    +0.040 A 
ATOM     19  C   UNL     1     -23.697   7.176  19.581  0.00  0.00    +0.110 A 
ATOM     20  N   UNL     1     -22.663   7.472  18.743  0.00  0.00    -0.216 NA
ATOM     21  C   UNL     1     -21.701   6.500  18.847  0.00  0.00    +0.309 A 
ATOM     22  O   UNL     1     -22.124   5.553  19.770  0.00  0.00    -0.443 OA
ATOM     23  C   UNL     1     -23.305   5.920  20.221  0.00  0.00    +0.155 A 
ATOM     24  C   UNL     1     -24.126   5.292  21.152  0.00  0.00    +0.049 A 
ATOM     25  C   UNL     1     -25.351   5.902  21.466  0.00  0.00    +0.012 A 
ENDBRANCH  16  17
BRANCH   7   6
ATOM      6  C   UNL     1     -28.569  10.215  17.337  0.00  0.00    +0.136 C 
ATOM     29  C   UNL     1     -29.108  10.868  16.053  0.00  0.00    +0.038 C 
BRANCH   6   5
ATOM      1  F   UNL     1     -23.153  11.125  17.807  0.00  0.00    -0.205 F 
ATOM      2  C   UNL     1     -24.472  10.937  17.714  0.00  0.00    +0.123 A 
ATOM      3  C   UNL     1     -24.921   9.837  17.002  0.00  0.00    +0.039 A 
ATOM      4  C   UNL     1     -26.275   9.616  16.893  0.00  0.00    +0.008 A 
ATOM      5  C   UNL     1     -27.150  10.502  17.512  0.00  0.00    -0.023 A 
ATOM     30  C   UNL     1     -26.720  11.611  18.232  0.00  0.00    +0.008 A 
ATOM     31  C   UNL     1     -25.354  11.814  18.341  0.00  0.00    +0.039 A 
ENDBRANCH   6   5
ENDBRANCH   7   6
TORSDOF 3
