REMARK  Name = 5KHX
REMARK  5 active torsions:
REMARK  status: ('A' for Active; 'I' for Inactive)
REMARK    1  A    between atoms: C_2  and  N_3
REMARK    2  A    between atoms: N_3  and  S_14
REMARK    3  A    between atoms: C_5  and  S_14
REMARK    4  A    between atoms: C_9  and  N_10
REMARK    5  A    between atoms: N_10  and  C_11
REMARK                            x       y       z     vdW  Elec       q    Type
REMARK                         _______ _______ _______ _____ _____    ______ ____
ROOT
ATOM      1  N   UNL     1      13.957  16.309 -13.234  0.00  0.00    -0.220 NA
ATOM      2  C   UNL     1      14.422  16.656 -11.996  0.00  0.00    +0.225 A 
ATOM      3  N   UNL     1      13.865  16.454 -10.785  0.00  0.00    -0.218 NA
ATOM      4  C   UNL     1      12.653  15.810 -10.884  0.00  0.00    +0.143 A 
ATOM      5  C   UNL     1      12.025  15.386 -12.098  0.00  0.00    +0.059 A 
ATOM      6  C   UNL     1      10.809  14.736 -11.713  0.00  0.00    +0.032 A 
ATOM      7  C   UNL     1      10.720  14.777 -10.338  0.00  0.00    +0.085 A 
ATOM      8  N   UNL     1      11.845  15.440  -9.819  0.00  0.00    -0.346 N 
ATOM      9  H   UNL     1      12.045  15.613  -8.846  0.00  0.00    +0.167 HD
ATOM     10  C   UNL     1      12.745  15.661 -13.290  0.00  0.00    +0.134 A 
ATOM     11  N   UNL     1      12.333  15.296 -14.563  0.00  0.00    -0.315 N 
ATOM     22  C   UNL     1      13.274  15.442 -15.685  0.00  0.00    +0.131 C 
ENDROOT
BRANCH  11  12
ATOM     12  C   UNL     1      11.028  14.726 -14.811  0.00  0.00    +0.078 C 
ATOM     13  C   UNL     1      10.984  13.260 -15.340  0.00  0.00    +0.043 C 
ATOM     14  C   UNL     1       9.945  13.711 -16.403  0.00  0.00    +0.080 C 
ATOM     21  C   UNL     1      10.266  15.201 -16.076  0.00  0.00    +0.043 C 
BRANCH  14  15
ATOM     15  N   UNL     1      10.177  13.321 -17.777  0.00  0.00    -0.192 NA
ATOM     16  H   UNL     1      11.160  13.150 -17.995  0.00  0.00    +0.148 HD
BRANCH  15  17
ATOM     17  S   UNL     1       8.969  13.244 -18.879  0.00  0.00    +0.027 S 
ATOM     18  O   UNL     1       9.544  12.705 -20.059  0.00  0.00    -0.159 OA
ATOM     19  O   UNL     1       7.839  12.625 -18.287  0.00  0.00    -0.159 OA
ATOM     20  C   UNL     1       8.574  14.843 -19.148  0.00  0.00    +0.214 C 
ENDBRANCH  15  17
ENDBRANCH  14  15
ENDBRANCH  11  12
TORSDOF 3
