REMARK  Name = 5AM6
REMARK  4 active torsions:
REMARK  status: ('A' for Active; 'I' for Inactive)
REMARK    1  A    between atoms: C_1  and  N_17
REMARK    2  A    between atoms: C_6  and  N_18
REMARK    3  A    between atoms: C_7  and  C_11
REMARK    4  A    between atoms: C_12  and  N_23
REMARK                            x       y       z     vdW  Elec       q    Type
REMARK                         _______ _______ _______ _____ _____    ______ ____
ROOT
ATOM      6  C   UNL     1     219.162  -8.026  26.990  0.00  0.00    +0.032 A 
ATOM      7  C   UNL     1     218.231  -8.729  26.201  0.00  0.00    +0.050 A 
ATOM      8  C   UNL     1     217.848  -8.216  24.956  0.00  0.00    +0.068 A 
ATOM      9  C   UNL     1     218.452  -6.925  24.540  0.00  0.00    +0.090 A 
ATOM     10  C   UNL     1     219.365  -6.264  25.349  0.00  0.00    +0.032 A 
ATOM     11  N   UNL     1     217.945  -6.630  23.343  0.00  0.00    -0.228 NA
ATOM     12  C   UNL     1     217.088  -7.607  23.021  0.00  0.00    +0.146 A 
ATOM     29  N   UNL     1     217.025  -8.595  23.945  0.00  0.00    -0.338 N 
ATOM     30  H   UNL     1     216.445  -9.492  23.890  0.00  0.00    +0.167 HD
ATOM     31  C   UNL     1     219.708  -6.814  26.571  0.00  0.00    +0.025 A 
ENDROOT
BRANCH  12  13
ATOM     13  C   UNL     1     216.318  -7.719  21.751  0.00  0.00    +0.103 C 
ATOM     14  C   UNL     1     215.277  -8.747  21.541  0.00  0.00    +0.262 C 
ATOM     15  N   UNL     1     214.616  -8.851  20.372  0.00  0.00    -0.321 N 
ATOM     16  H   UNL     1     213.887  -9.628  20.279  0.00  0.00    +0.169 HD
ATOM     17  C   UNL     1     214.809  -8.049  19.319  0.00  0.00    +0.054 A 
ATOM     18  C   UNL     1     214.077  -8.227  18.143  0.00  0.00    +0.026 A 
ATOM     19  C   UNL     1     214.282  -7.404  17.032  0.00  0.00    +0.005 A 
ATOM     20  C   UNL     1     215.219  -6.373  17.037  0.00  0.00    +0.039 A 
ATOM     21  C   UNL     1     216.000  -6.117  18.174  0.00  0.00    +0.134 A 
ATOM     22  F   UNL     1     216.915  -5.128  18.187  0.00  0.00    -0.205 F 
ATOM     23  C   UNL     1     215.825  -6.966  19.377  0.00  0.00    +0.055 A 
ATOM     24  O   UNL     1     215.016  -9.551  22.466  0.00  0.00    -0.267 OA
ATOM     25  C   UNL     1     216.606  -6.782  20.629  0.00  0.00    +0.053 C 
BRANCH  25  26
ATOM     26  N   UNL     1     217.542  -5.797  20.728  0.00  0.00    -0.357 N 
ATOM     27  H   UNL     1     217.720  -5.143  19.900  0.00  0.00    +0.142 HD
ATOM     28  H   UNL     1     218.099  -5.677  21.634  0.00  0.00    +0.142 HD
ENDBRANCH  25  26
ENDBRANCH  12  13
BRANCH   6   5
ATOM      1  C   UNL     1     220.051 -10.483  31.886  0.00  0.00    +0.105 C 
ATOM      2  N   UNL     1     219.751  -9.957  30.543  0.00  0.00    -0.302 NA
ATOM      3  C   UNL     1     218.891  -8.768  30.660  0.00  0.00    +0.103 C 
ATOM      4  C   UNL     1     218.886  -7.877  29.410  0.00  0.00    +0.120 C 
ATOM      5  N   UNL     1     219.580  -8.468  28.254  0.00  0.00    -0.327 N 
ATOM     32  C   UNL     1     220.690  -9.406  28.376  0.00  0.00    +0.120 C 
ATOM     33  C   UNL     1     220.995  -9.594  29.857  0.00  0.00    +0.103 C 
ENDBRANCH   6   5
TORSDOF 3
