REMARK  Name = 4AAA
REMARK  5 active torsions:
REMARK  status: ('A' for Active; 'I' for Inactive)
REMARK    1  A    between atoms: C_8  and  N_9
REMARK    2  A    between atoms: C_10  and  S_11
REMARK    3  A    between atoms: N_18  and  C_19
REMARK    4  A    between atoms: C_24  and  S_25
REMARK    5  A    between atoms: S_25  and  N_28
REMARK                            x       y       z     vdW  Elec       q    Type
REMARK                         _______ _______ _______ _____ _____    ______ ____
ROOT
ATOM      4  N   UNL     1      32.790  10.609  76.330  0.00  0.00    -0.217 NA
ATOM      5  C   UNL     1      32.944   9.945  77.468  0.00  0.00    +0.188 C 
ATOM      6  N   UNL     1      31.804  10.095  78.256  0.00  0.00    -0.198 N 
ATOM      7  C   UNL     1      31.507   9.635  79.554  0.00  0.00    +0.218 A 
ATOM      8  N   UNL     1      30.289  10.054  79.892  0.00  0.00    -0.178 NA
ATOM      9  C   UNL     1      29.840  10.791  78.820  0.00  0.00    +0.247 A 
ATOM     10  N   UNL     1      28.619  11.381  78.825  0.00  0.00    -0.212 NA
ATOM     23  N   UNL     1      32.284   8.910  80.306  0.00  0.00    -0.327 N 
ATOM     24  H   UNL     1      31.959   8.613  81.281  0.00  0.00    +0.145 HD
ATOM     25  H   UNL     1      33.247   8.611  79.949  0.00  0.00    +0.145 HD
ATOM     26  N   UNL     1      30.717  10.845  77.805  0.00  0.00    -0.256 N 
ATOM     27  H   UNL     1      30.608  11.347  76.867  0.00  0.00    +0.191 HD
ENDROOT
BRANCH   4   3
ATOM      1  F   UNL     1      34.009   8.461  75.116  0.00  0.00    -0.203 F 
ATOM      2  C   UNL     1      34.339   9.697  74.755  0.00  0.00    +0.152 A 
ATOM      3  C   UNL     1      33.784  10.763  75.366  0.00  0.00    +0.137 A 
ATOM     30  C   UNL     1      34.138  11.992  74.938  0.00  0.00    +0.152 A 
ATOM     31  F   UNL     1      33.585  13.130  75.472  0.00  0.00    -0.203 F 
ATOM     32  C   UNL     1      35.115  12.212  73.960  0.00  0.00    +0.040 A 
ATOM     33  C   UNL     1      35.681  11.113  73.355  0.00  0.00    +0.006 A 
ATOM     34  C   UNL     1      35.350   9.854  73.752  0.00  0.00    +0.040 A 
ENDBRANCH   4   3
BRANCH  10  11
ATOM     11  C   UNL     1      27.944  12.083  77.884  0.00  0.00    +0.068 A 
ATOM     12  C   UNL     1      28.527  12.439  76.647  0.00  0.00    +0.030 A 
ATOM     13  C   UNL     1      27.736  13.088  75.680  0.00  0.00    +0.030 A 
ATOM     14  C   UNL     1      26.437  13.415  75.873  0.00  0.00    +0.105 A 
ATOM     21  C   UNL     1      25.831  13.080  77.105  0.00  0.00    +0.030 A 
ATOM     22  C   UNL     1      26.579  12.395  78.100  0.00  0.00    +0.030 A 
BRANCH  14  15
ATOM     15  S   UNL     1      25.498  14.218  74.657  0.00  0.00    +0.056 S 
ATOM     19  O   UNL     1      26.162  13.972  73.418  0.00  0.00    -0.153 OA
ATOM     20  O   UNL     1      24.190  13.826  74.925  0.00  0.00    -0.153 OA
BRANCH  15  16
ATOM     16  N   UNL     1      25.645  15.805  74.872  0.00  0.00    -0.203 NA
ATOM     17  H   UNL     1      25.287  16.068  75.845  0.00  0.00    +0.144 HD
ATOM     18  H   UNL     1      26.674  16.084  74.784  0.00  0.00    +0.144 HD
ENDBRANCH  15  16
ENDBRANCH  14  15
ENDBRANCH  10  11
BRANCH   5  28
ATOM     28  S   UNL     1      34.321   9.288  78.119  0.00  0.00    -0.103 S 
ATOM     29  H   UNL     1      34.267   8.648  79.295  0.00  0.00    +0.110 HD
ENDBRANCH   5  28
TORSDOF 5
