REMARK  Name = 2qu5_ligand
REMARK  6 active torsions:
REMARK  status: ('A' for Active; 'I' for Inactive)
REMARK    1  A    between atoms: C4_4  and  C10_7
REMARK    2  A    between atoms: C6_6  and  O17_11
REMARK    3  A    between atoms: N12_9  and  C13_10
REMARK    4  A    between atoms: O17_11  and  C18_12
REMARK    5  A    between atoms: N32_21  and  C33_22
REMARK    6  A    between atoms: C35_24  and  C43_28
REMARK                            x       y       z     vdW  Elec       q    Type
REMARK                         _______ _______ _______ _____ _____    ______ ____
ROOT
ATOM      4  C   UNL     1      67.941  92.125  44.977  0.00  0.00    +0.104 A 
ATOM      5  C   UNL     1      67.862  91.411  46.194  0.00  0.00    +0.002 A 
ATOM      6  C   UNL     1      67.079  91.900  47.257  0.00  0.00    -0.023 A 
ATOM      7  C   UNL     1      66.384  93.084  47.106  0.00  0.00    +0.005 A 
ATOM      8  N   UNL     1      65.568  93.804  47.938  0.00  0.00    -0.315 NA
ATOM      9  C   UNL     1      65.166  94.893  47.263  0.00  0.00    +0.230 A 
ATOM     10  N   UNL     1      64.282  95.903  47.862  0.00  0.00    -0.223 N 
ATOM     11  H   UNL     1      64.444  96.103  48.859  0.00  0.00    +0.221 HD
ATOM     23  N   UNL     1      65.671  94.935  46.021  0.00  0.00    -0.231 N 
ATOM     24  H   UNL     1      65.504  95.667  45.316  0.00  0.00    +0.230 HD
ATOM     25  C   UNL     1      66.454  93.815  45.869  0.00  0.00    +0.069 A 
ATOM     26  C   UNL     1      67.223  93.337  44.821  0.00  0.00    +0.034 A 
ENDROOT
BRANCH  10  12
ATOM     12  C   UNL     1      63.277  96.609  47.272  0.00  0.00    +0.097 A 
ATOM     13  C   UNL     1      62.689  96.295  46.020  0.00  0.00    +0.071 A 
ATOM     14  C   UNL     1      61.644  97.095  45.509  0.00  0.00    +0.042 A 
ATOM     15  C   UNL     1      61.188  98.210  46.255  0.00  0.00    +0.063 A 
ATOM     16 CL   UNL     1      59.890  99.121  45.528  0.00  0.00    -0.051 Cl
ATOM     17  C   UNL     1      61.776  98.545  47.526  0.00  0.00    +0.051 A 
ATOM     22  C   UNL     1      62.818  97.712  47.991  0.00  0.00    +0.066 A 
BRANCH  17  18
ATOM     18  C   UNL     1      61.345  99.724  48.394  0.00  0.00    +0.373 C 
ATOM     19  F   UNL     1      62.204  99.919  49.403  0.00  0.00    -0.222 F 
ATOM     20  F   UNL     1      61.295 100.824  47.667  0.00  0.00    -0.222 F 
ATOM     21  F   UNL     1      60.152  99.412  48.855  0.00  0.00    -0.222 F 
ENDBRANCH  17  18
ENDBRANCH  10  12
BRANCH   4   3
ATOM      3  O   UNL     1      68.765  91.619  43.981  0.00  0.00    -0.255 OA
BRANCH   3   2
ATOM      1  C   UNL     1      67.022  90.619  42.448  0.00  0.00    +0.070 A 
ATOM      2  C   UNL     1      68.334  91.050  42.783  0.00  0.00    +0.139 A 
ATOM     27  C   UNL     1      69.366  90.903  41.845  0.00  0.00    +0.088 A 
ATOM     28  C   UNL     1      69.093  90.343  40.602  0.00  0.00    +0.112 A 
ATOM     34  N   UNL     1      67.835  89.926  40.265  0.00  0.00    -0.292 NA
ATOM     35  C   UNL     1      66.825  90.064  41.175  0.00  0.00    +0.086 A 
BRANCH  28  29
ATOM     29  C   UNL     1      70.212  90.210  39.645  0.00  0.00    +0.221 C 
ATOM     30  N   UNL     1      69.937  89.378  38.601  0.00  0.00    -0.287 N 
ATOM     31  H   UNL     1      69.043  88.933  38.548  0.00  0.00    +0.184 HD
ATOM     32  C   UNL     1      70.931  89.127  37.557  0.00  0.00    +0.164 C 
ATOM     33  O   UNL     1      71.304  90.798  39.775  0.00  0.00    -0.379 OA
ENDBRANCH  28  29
ENDBRANCH   3   2
ENDBRANCH   4   3
TORSDOF 5
