REMARK  Name = 4jia_ligand
REMARK  6 active torsions:
REMARK  status: ('A' for Active; 'I' for Inactive)
REMARK    1  A    between atoms: C24_1  and  O1_2
REMARK    2  A    between atoms: O1_2  and  C10_3
REMARK    3  A    between atoms: C7_8  and  C3_9
REMARK    4  A    between atoms: N4_18  and  C13_19
REMARK    5  A    between atoms: C16_22  and  N5_25
REMARK    6  A    between atoms: N6_28  and  C23_29
REMARK                            x       y       z     vdW  Elec       q    Type
REMARK                         _______ _______ _______ _____ _____    ______ ____
ROOT
ATOM      7  C   UNL     1      14.544 -26.782 -20.377  0.00  0.00    +0.056 A 
ATOM      8  N   UNL     1      13.325 -27.253 -20.047  0.00  0.00    -0.245 N 
ATOM      9  C   UNL     1      13.118 -28.500 -19.626  0.00  0.00    +0.160 A 
ATOM     10  C   UNL     1      14.186 -29.371 -19.486  0.00  0.00    +0.064 A 
ATOM     11  C   UNL     1      15.463 -28.925 -19.812  0.00  0.00    +0.025 A 
ATOM     12  N   UNL     1      11.788 -28.599 -19.397  0.00  0.00    -0.192 N 
ATOM     13  H   UNL     1      11.275 -29.426 -19.060  0.00  0.00    +0.240 HD
ATOM     14  C   UNL     1      11.273 -27.385 -19.704  0.00  0.00    +0.316 A 
ATOM     15  N   UNL     1       9.926 -27.142 -19.611  0.00  0.00    -0.186 N 
ATOM     16  H   UNL     1       9.367 -27.907 -19.207  0.00  0.00    +0.261 HD
ATOM     31  N   UNL     1      12.169 -26.491 -20.129  0.00  0.00    -0.158 NA
ATOM     32  C   UNL     1      15.644 -27.626 -20.258  0.00  0.00    +0.030 A 
ENDROOT
BRANCH   7   6
ATOM      3  C   UNL     1      14.985 -22.806 -21.964  0.00  0.00    +0.107 A 
ATOM      4  C   UNL     1      13.899 -23.606 -22.309  0.00  0.00    +0.041 A 
ATOM      5  C   UNL     1      13.782 -24.888 -21.790  0.00  0.00    +0.019 A 
ATOM      6  C   UNL     1      14.725 -25.391 -20.885  0.00  0.00    +0.002 A 
ATOM     33  C   UNL     1      15.827 -24.596 -20.545  0.00  0.00    +0.019 A 
ATOM     34  C   UNL     1      15.948 -23.307 -21.071  0.00  0.00    +0.041 A 
BRANCH   3   2
ATOM      1  C   UNL     1      16.107 -20.644 -22.203  0.00  0.00    +0.240 C 
ATOM      2  O   UNL     1      15.044 -21.542 -22.517  0.00  0.00    -0.311 OA
ENDBRANCH   3   2
ENDBRANCH   7   6
BRANCH  15  17
ATOM     17  C   UNL     1       9.221 -26.032 -19.977  0.00  0.00    +0.117 A 
ATOM     18  C   UNL     1       7.841 -26.058 -19.833  0.00  0.00    +0.063 A 
ATOM     19  C   UNL     1       7.063 -24.952 -20.160  0.00  0.00    +0.049 A 
ATOM     20  C   UNL     1       7.654 -23.781 -20.651  0.00  0.00    +0.075 A 
ATOM     29  C   UNL     1       9.044 -23.771 -20.788  0.00  0.00    +0.049 A 
ATOM     30  C   UNL     1       9.810 -24.875 -20.457  0.00  0.00    +0.063 A 
BRANCH  20  21
ATOM     21  N   UNL     1       6.910 -22.671 -20.993  0.00  0.00    -0.280 N 
ATOM     22  C   UNL     1       5.450 -22.656 -20.824  0.00  0.00    +0.195 C 
ATOM     23  C   UNL     1       4.773 -21.899 -21.965  0.00  0.00    +0.157 C 
ATOM     24  N   UNL     1       5.462 -20.623 -22.087  0.00  0.00    +0.236 N 
ATOM     25  H   UNL     1       5.540 -20.185 -21.183  0.00  0.00    +0.203 HD
ATOM     26  C   UNL     1       4.734 -19.748 -23.000  0.00  0.00    +0.191 C 
ATOM     27  C   UNL     1       6.781 -20.879 -22.637  0.00  0.00    +0.157 C 
ATOM     28  C   UNL     1       7.579 -21.463 -21.485  0.00  0.00    +0.195 C 
ENDBRANCH  20  21
ENDBRANCH  15  17
TORSDOF 4
