REMARK  Name = 1E9C
REMARK  7 active torsions:
REMARK  status: ('A' for Active; 'I' for Inactive)
REMARK    1  A    between atoms: C_1  and  C_21
REMARK    2  A    between atoms: C_3  and  O_4
REMARK    3  A    between atoms: C_6  and  N_7
REMARK    4  A    between atoms: C_11  and  O_12
REMARK    5  A    between atoms: C_13  and  C_14
REMARK    6  A    between atoms: P_16  and  O_20
REMARK    7  A    between atoms: O_20  and  C_21
REMARK                            x       y       z     vdW  Elec       q    Type
REMARK                         _______ _______ _______ _____ _____    ______ ____
ROOT
ATOM      1  C   UNL     1      14.607  75.229  25.996  0.00  0.00    +0.175 C 
ATOM      8  C   UNL     1      13.570  75.682  27.018  0.00  0.00    +0.150 C 
ATOM      9  C   UNL     1      12.658  76.596  26.193  0.00  0.00    +0.085 C 
ATOM     10  C   UNL     1      13.644  77.147  25.142  0.00  0.00    +0.213 C 
ATOM     24  O   UNL     1      14.558  76.099  24.866  0.00  0.00    -0.350 OA
ENDROOT
BRANCH  10  11
ATOM     11  N   UNL     1      13.243  77.745  23.893  0.00  0.00    -0.255 N 
ATOM     12  C   UNL     1      12.507  76.903  23.108  0.00  0.00    +0.147 C 
ATOM     13  C   UNL     1      12.124  77.226  21.864  0.00  0.00    +0.002 C 
ATOM     14  C   UNL     1      11.319  76.441  20.883  0.00  0.00    +0.046 C 
ATOM     15  C   UNL     1      12.500  78.627  21.456  0.00  0.00    +0.185 C 
ATOM     18  N   UNL     1      13.263  79.411  22.291  0.00  0.00    -0.240 N 
ATOM     19  H   UNL     1      13.568  80.367  21.919  0.00  0.00    +0.159 HD
ATOM     20  C   UNL     1      13.669  79.073  23.565  0.00  0.00    +0.311 C 
ATOM     21  O   UNL     1      14.325  79.799  24.328  0.00  0.00    -0.252 OA
BRANCH  15  16
ATOM     16  O   UNL     1      12.141  79.022  20.169  0.00  0.00    -0.495 OA
ATOM     17  H   UNL     1      11.583  79.910  20.218  0.00  0.00    +0.293 HD
ENDBRANCH  15  16
ENDBRANCH  10  11
BRANCH   8  22
ATOM     22  O   UNL     1      14.222  76.486  27.994  0.00  0.00    -0.389 OA
ATOM     23  H   UNL     1      14.971  75.923  28.468  0.00  0.00    +0.210 HD
ENDBRANCH   8  22
BRANCH   1   2
ATOM      2  C   UNL     1      14.627  73.698  25.816  0.00  0.00    +0.197 C 
BRANCH   2   3
ATOM      3  O   UNL     1      13.284  73.229  25.738  0.00  0.00    -0.365 OA
BRANCH   3   4
ATOM      4  P   UNL     1      12.498  72.091  26.544  0.00  0.00    -0.015 P 
ATOM      5  O   UNL     1      13.643  70.954  26.500  0.00  0.00    -0.577 OA
ATOM      6  O   UNL     1      11.330  71.795  25.680  0.00  0.00    -0.638 OA
ATOM      7  O   UNL     1      12.234  72.571  27.922  0.00  0.00    -0.577 OA
ENDBRANCH   3   4
ENDBRANCH   2   3
ENDBRANCH   1   2
TORSDOF 6
