REMARK  Name = 4CV8
REMARK  3 active torsions:
REMARK  status: ('A' for Active; 'I' for Inactive)
REMARK    1  A    between atoms: C_3  and  N_4
REMARK    2  A    between atoms: C_7  and  C_9
REMARK    3  A    between atoms: N_12  and  C_13
REMARK                            x       y       z     vdW  Elec       q    Type
REMARK                         _______ _______ _______ _____ _____    ______ ____
ROOT
ATOM      1  O   UNL     1      -0.637 -22.860 -47.629  0.00  0.00    -0.266 OA
ATOM      2  C   UNL     1       0.129 -22.587 -46.686  0.00  0.00    +0.270 C 
ATOM      3  N   UNL     1       0.640 -23.658 -45.917  0.00  0.00    -0.327 N 
ATOM      4  H   UNL     1       0.404 -24.661 -46.204  0.00  0.00    +0.168 HD
ATOM      5  C   UNL     1       1.445 -23.446 -44.791  0.00  0.00    +0.094 C 
ATOM      6  C   UNL     1       1.770 -22.153 -44.373  0.00  0.00    +0.003 C 
ATOM     13  C   UNL     1       1.308 -20.994 -45.134  0.00  0.00    +0.038 C 
ATOM     14  C   UNL     1       0.513 -21.177 -46.261  0.00  0.00    +0.090 C 
ENDROOT
BRANCH   6   7
ATOM      7  C   UNL     1       2.500 -21.952 -43.121  0.00  0.00    +0.021 A 
ATOM      8  C   UNL     1       2.399 -22.705 -41.947  0.00  0.00    +0.116 A 
ATOM      9  N   UNL     1       3.263 -22.125 -41.018  0.00  0.00    -0.274 N 
ATOM     10  C   UNL     1       3.515 -22.607 -39.645  0.00  0.00    +0.172 C 
ATOM     11  N   UNL     1       3.906 -21.034 -41.526  0.00  0.00    -0.179 NA
ATOM     12  C   UNL     1       3.450 -20.923 -42.814  0.00  0.00    +0.143 A 
ENDBRANCH   6   7
BRANCH  14  15
ATOM     15  N   UNL     1       0.043 -20.110 -47.041  0.00  0.00    -0.354 N 
ATOM     16  H   UNL     1       0.291 -19.104 -46.776  0.00  0.00    +0.142 HD
ATOM     17  H   UNL     1      -0.563 -20.303 -47.901  0.00  0.00    +0.142 HD
ENDBRANCH  14  15
TORSDOF 2
