REMARK  Name = 5CXZ
REMARK  8 active torsions:
REMARK  status: ('A' for Active; 'I' for Inactive)
REMARK    1  A    between atoms: C_1  and  C_13
REMARK    2  A    between atoms: C_4  and  C_5
REMARK    3  A    between atoms: C_4  and  N_22
REMARK    4  A    between atoms: C_5  and  C_6
REMARK    5  A    between atoms: C_6  and  N_23
REMARK    6  A    between atoms: C_7  and  N_8
REMARK    7  A    between atoms: N_8  and  C_9
REMARK    8  A    between atoms: N_8  and  C_10
REMARK                            x       y       z     vdW  Elec       q    Type
REMARK                         _______ _______ _______ _____ _____    ______ ____
ROOT
ATOM      1  C   UNL     1       1.332  -1.059  15.910  0.00  0.00    +0.075 A 
ATOM      2  N   UNL     1       1.517  -0.187  14.880  0.00  0.00    -0.232 NA
ATOM      3  C   UNL     1       2.729   0.365  14.616  0.00  0.00    +0.129 A 
ATOM      4  N   UNL     1       2.664   1.269  13.492  0.00  0.00    -0.329 N 
ATOM      5  H   UNL     1       3.105   2.123  13.961  0.00  0.00    +0.147 HD
ATOM     12  C   UNL     1       3.860   0.019  15.370  0.00  0.00    +0.040 A 
ATOM     13  C   UNL     1       5.125   0.564  15.117  0.00  0.00    +0.015 A 
ATOM     14  C   UNL     1       6.189   0.284  15.942  0.00  0.00    +0.020 A 
ATOM     15  C   UNL     1       6.009  -0.574  17.026  0.00  0.00    +0.111 A 
ATOM     16  N   UNL     1       4.764  -1.124  17.253  0.00  0.00    -0.255 NA
ATOM     17  C   UNL     1       3.689  -0.853  16.439  0.00  0.00    +0.076 A 
ATOM     18  C   UNL     1       2.431  -1.346  16.755  0.00  0.00    +0.056 A 
ENDROOT
BRANCH   1  19
ATOM     19  C   UNL     1       0.018  -1.499  16.092  0.00  0.00    +0.001 A 
ATOM     20  C   UNL     1      -0.258  -2.518  17.010  0.00  0.00    +0.012 A 
ATOM     21  C   UNL     1      -1.567  -3.001  17.143  0.00  0.00    +0.024 A 
ATOM     22  C   UNL     1      -2.627  -2.461  16.390  0.00  0.00    +0.029 A 
ATOM     23  C   UNL     1      -2.345  -1.484  15.407  0.00  0.00    +0.024 A 
ATOM     27  C   UNL     1      -1.028  -0.997  15.273  0.00  0.00    +0.012 A 
BRANCH  22  24
ATOM     24  N   UNL     1      -3.996  -2.914  16.679  0.00  0.00    -0.336 N 
ATOM     25  C   UNL     1      -4.296  -3.607  17.926  0.00  0.00    +0.129 C 
ATOM     26  C   UNL     1      -5.116  -2.500  15.843  0.00  0.00    +0.129 C 
ENDBRANCH  22  24
ENDBRANCH   1  19
BRANCH   4   6
ATOM      6  C   UNL     1       1.937   1.962  12.453  0.00  0.00    +0.104 C 
BRANCH   6   7
ATOM      7  C   UNL     1       1.071   3.147  12.864  0.00  0.00    +0.033 C 
BRANCH   7   8
ATOM      8  C   UNL     1       1.415   3.913  14.138  0.00  0.00    +0.079 C 
BRANCH   8   9
ATOM      9  N   UNL     1       1.142   5.351  14.097  0.00  0.00    -0.330 NA
ATOM     10  H   UNL     1       1.711   5.800  13.310  0.00  0.00    +0.118 HD
ATOM     11  H   UNL     1       0.099   5.512  13.919  0.00  0.00    +0.118 HD
ENDBRANCH   8   9
ENDBRANCH   7   8
ENDBRANCH   6   7
ENDBRANCH   4   6
TORSDOF 6
