REMARK  Name = 8MK
REMARK  2 active torsions:
REMARK  status: ('A' for Active; 'I' for Inactive)
REMARK    1  A    between atoms: C4_1  and  C3_11
REMARK    2  A    between atoms: C1_8  and  C2_10
REMARK                            x       y       z     vdW  Elec       q    Type
REMARK                         _______ _______ _______ _____ _____    ______ ____
ROOT
ATOM      1  C   UNL     1      91.022  87.351  -5.080  0.00  0.00    +0.000 A 
ATOM      2  C   UNL     1      91.739  86.985  -3.942  0.00  0.00    +0.003 A 
ATOM      3  C   UNL     1      93.096  86.720  -4.000  0.00  0.00    +0.042 A 
ATOM      4  C   UNL     1      93.770  86.828  -5.210  0.00  0.00    +0.196 A 
ATOM      5  O   UNL     1      95.116  86.580  -5.279  0.00  0.00    -0.287 OA
ATOM      6  C   UNL     1      93.076  87.196  -6.354  0.00  0.00    +0.042 A 
ATOM     12  C   UNL     1      91.717  87.447  -6.285  0.00  0.00    +0.003 A 
ENDROOT
BRANCH   1   7
ATOM      7  C   UNL     1      89.588  87.616  -5.018  0.00  0.00    +0.003 C 
ATOM      8  C   UNL     1      88.800  87.947  -6.033  0.00  0.00    +0.037 C 
BRANCH   8   9
ATOM      9  C   UNL     1      87.402  88.337  -5.771  0.00  0.00    +0.174 C 
ATOM     10  C   UNL     1      86.902  88.377  -4.355  0.00  0.00    +0.077 C 
ATOM     11  O   UNL     1      86.632  88.615  -6.709  0.00  0.00    -0.291 OA
ENDBRANCH   8   9
ENDBRANCH   1   7
TORSDOF 2
