REMARK  Name = 1fvt_ligand
REMARK  4 active torsions:
REMARK  status: ('A' for Active; 'I' for Inactive)
REMARK    1  A    between atoms: N12_11  and  N17_13
REMARK    2  A    between atoms: N17_13  and  C19_14
REMARK    3  A    between atoms: C22_17  and  S27_20
REMARK    4  A    between atoms: S27_20  and  N30_23
REMARK                            x       y       z     vdW  Elec       q    Type
REMARK                         _______ _______ _______ _____ _____    ______ ____
ROOT
ATOM     12  N   UNL     1      38.005  10.338 -12.042  0.00  0.00    -0.204 N 
ATOM     13  H   UNL     1      37.558  10.572 -12.940  0.00  0.00    +0.238 HD
ENDROOT
BRANCH  12  11
ATOM      1  N   UNL     1      40.576   9.993 -15.528  0.00  0.00    -0.232 N 
ATOM      2  H   UNL     1      40.595  10.235 -16.498  0.00  0.00    +0.226 HD
ATOM      3  C   UNL     1      39.704  10.496 -14.608  0.00  0.00    +0.246 C 
ATOM      4  C   UNL     1      39.952   9.850 -13.298  0.00  0.00    +0.149 C 
ATOM      5  C   UNL     1      41.063   8.996 -13.524  0.00  0.00    +0.028 A 
ATOM      6  C   UNL     1      41.788   8.102 -12.606  0.00  0.00    +0.002 A 
ATOM      7  C   UNL     1      42.928   7.332 -13.173  0.00  0.00    -0.004 A 
ATOM      8  C   UNL     1      43.311   7.435 -14.607  0.00  0.00    -0.008 A 
ATOM      9  C   UNL     1      42.519   8.317 -15.484  0.00  0.00    +0.011 A 
ATOM     10 BR   UNL     1      43.871   6.150 -12.094  0.00  0.00    -0.064 Br
ATOM     11  N   UNL     1      39.221  10.095 -12.067  0.00  0.00    -0.165 NA
ATOM     26  O   UNL     1      38.835  11.352 -14.751  0.00  0.00    -0.371 OA
ATOM     27  C   UNL     1      41.411   9.116 -14.924  0.00  0.00    +0.077 A 
ENDBRANCH  12  11
BRANCH  12  14
ATOM     14  C   UNL     1      37.209  10.325 -10.945  0.00  0.00    +0.080 A 
ATOM     15  C   UNL     1      36.177  11.375 -10.896  0.00  0.00    +0.020 A 
ATOM     16  C   UNL     1      35.198  11.379  -9.802  0.00  0.00    +0.016 A 
ATOM     17  C   UNL     1      35.272  10.356  -8.728  0.00  0.00    +0.097 A 
ATOM     18  C   UNL     1      36.317   9.302  -8.760  0.00  0.00    +0.016 A 
ATOM     25  C   UNL     1      37.281   9.289  -9.857  0.00  0.00    +0.020 A 
BRANCH  17  19
ATOM     19  S   UNL     1      33.849  10.229  -7.686  0.00  0.00    +0.061 S 
ATOM     20  O   UNL     1      32.772   9.800  -8.535  0.00  0.00    -0.152 OA
ATOM     21  O   UNL     1      33.746  11.517  -7.065  0.00  0.00    -0.152 OA
BRANCH  19  22
ATOM     22  N   UNL     1      34.041   9.142  -6.469  0.00  0.00    -0.262 NA
ATOM     23  H   UNL     1      34.899   8.636  -6.381  0.00  0.00    +0.163 HD
ATOM     24  H   UNL     1      33.300   8.986  -5.816  0.00  0.00    +0.163 HD
ENDBRANCH  19  22
ENDBRANCH  17  19
ENDBRANCH  12  14
TORSDOF 4
