REMARK  Name = 5M56
REMARK  4 active torsions:
REMARK  status: ('A' for Active; 'I' for Inactive)
REMARK    1  A    between atoms: C_4  and  C_21
REMARK    2  A    between atoms: C_5  and  O_8
REMARK    3  A    between atoms: O_10  and  C_22
REMARK    4  A    between atoms: C_19  and  C_20
REMARK                            x       y       z     vdW  Elec       q    Type
REMARK                         _______ _______ _______ _____ _____    ______ ____
ROOT
ATOM      9  C   UNL     1      15.118   1.817  44.976  0.00  0.00    +0.165 C 
ATOM     10  C   UNL     1      14.229   2.692  45.622  0.00  0.00    +0.168 C 
ATOM     13  C   UNL     1      13.326   2.145  46.588  0.00  0.00    +0.142 C 
ATOM     16  C   UNL     1      13.393   0.707  46.834  0.00  0.00    +0.055 C 
ATOM     17  C   UNL     1      14.289  -0.047  46.149  0.00  0.00    +0.132 C 
ATOM     18  C   UNL     1      14.374  -1.457  46.369  0.00  0.00    +0.104 C 
ATOM     19  C   UNL     1      13.534  -2.064  47.291  0.00  0.00    +0.044 C 
ATOM     20  C   UNL     1      12.610  -1.291  47.999  0.00  0.00    +0.073 C 
ATOM     21 CL   UNL     1      11.564  -2.044  49.144  0.00  0.00    -0.116 Cl
ATOM     22 CL   UNL     1      15.526  -2.393  45.483  0.00  0.00    -0.113 Cl
ATOM     23  C   UNL     1      12.528   0.086  47.783  0.00  0.00    +0.030 C 
ATOM     24  O   UNL     1      15.114   0.530  45.246  0.00  0.00    -0.350 OA
ENDROOT
BRANCH   9   2
ATOM      1  C   UNL     1      16.081   3.499  43.338  0.00  0.00    +0.007 A 
ATOM      2  C   UNL     1      16.105   2.248  43.941  0.00  0.00    -0.010 A 
ATOM      3  C   UNL     1      17.073   1.327  43.569  0.00  0.00    +0.007 A 
ATOM      4  C   UNL     1      18.016   1.647  42.609  0.00  0.00    +0.010 A 
ATOM      5  C   UNL     1      17.992   2.901  42.016  0.00  0.00    -0.003 A 
ATOM     25  C   UNL     1      17.028   3.826  42.378  0.00  0.00    +0.010 A 
BRANCH   5   6
ATOM      6  C   UNL     1      19.002   3.245  40.981  0.00  0.00    +0.072 C 
ATOM      7  O   UNL     1      19.989   2.488  40.808  0.00  0.00    -0.545 OA
ATOM      8  O   UNL     1      18.859   4.279  40.277  0.00  0.00    -0.545 OA
ENDBRANCH   5   6
ENDBRANCH   9   2
BRANCH  10  11
ATOM     11  O   UNL     1      14.194   4.044  45.367  0.00  0.00    -0.379 OA
ATOM     12  H   UNL     1      15.129   4.467  45.590  0.00  0.00    +0.211 HD
ENDBRANCH  10  11
BRANCH  13  14
ATOM     14  O   UNL     1      12.435   2.939  47.263  0.00  0.00    -0.382 OA
ATOM     15  H   UNL     1      11.456   2.614  47.066  0.00  0.00    +0.210 HD
ENDBRANCH  13  14
TORSDOF 4
