REMARK  Name = 5GJG
REMARK  11 active torsions:
REMARK  status: ('A' for Active; 'I' for Inactive)
REMARK    1  A    between atoms: C_1  and  C_7
REMARK    2  A    between atoms: C_3  and  O_15
REMARK    3  A    between atoms: C_4  and  N_14
REMARK    4  A    between atoms: C_8  and  C_9
REMARK    5  A    between atoms: C_8  and  C_10
REMARK    6  A    between atoms: C_8  and  O_15
REMARK    7  A    between atoms: N_17  and  C_20
REMARK    8  A    between atoms: C_21  and  C_22
REMARK    9  A    between atoms: C_25  and  C_28
REMARK   10  A    between atoms: C_32  and  C_34
REMARK   11  A    between atoms: N_35  and  C_37
REMARK                            x       y       z     vdW  Elec       q    Type
REMARK                         _______ _______ _______ _____ _____    ______ ____
ROOT
ATOM     14  N   UNL     1     -14.113 -48.055 -16.753  0.00  0.00    -0.277 N 
ATOM     15  H   UNL     1     -13.611 -48.995 -16.849  0.00  0.00    +0.155 HD
ATOM     16  C   UNL     1     -13.408 -47.116 -16.002  0.00  0.00    +0.267 C 
ATOM     17  O   UNL     1     -13.860 -46.010 -15.602  0.00  0.00    -0.268 OA
ENDROOT
BRANCH  14  13
ATOM      1  C   UNL     1     -17.845 -48.050 -18.771  0.00  0.00    +0.041 A 
ATOM     11  C   UNL     1     -17.513 -47.005 -17.900  0.00  0.00    +0.015 A 
ATOM     12  C   UNL     1     -16.298 -46.986 -17.229  0.00  0.00    +0.028 A 
ATOM     13  C   UNL     1     -15.372 -48.006 -17.417  0.00  0.00    +0.076 A 
ATOM     39  C   UNL     1     -15.703 -49.082 -18.316  0.00  0.00    +0.143 A 
ATOM     44  C   UNL     1     -16.930 -49.092 -18.985  0.00  0.00    +0.060 A 
BRANCH   1   2
ATOM      2  C   UNL     1     -19.179 -48.035 -19.463  0.00  0.00    +0.247 C 
ATOM      3  N   UNL     1     -20.311 -47.687 -18.778  0.00  0.00    -0.295 N 
ATOM      4  C   UNL     1     -20.797 -46.299 -18.889  0.00  0.00    +0.123 C 
ATOM      5  C   UNL     1     -21.933 -46.015 -17.896  0.00  0.00    +0.103 C 
ATOM      6  N   UNL     1     -23.046 -46.940 -18.103  0.00  0.00    -0.302 NA
ATOM      7  C   UNL     1     -24.196 -46.612 -17.200  0.00  0.00    +0.105 C 
ATOM      8  C   UNL     1     -22.576 -48.308 -17.884  0.00  0.00    +0.103 C 
ATOM      9  C   UNL     1     -21.420 -48.663 -18.855  0.00  0.00    +0.123 C 
ATOM     10  O   UNL     1     -19.210 -48.380 -20.622  0.00  0.00    -0.270 OA
ENDBRANCH   1   2
BRANCH  39  40
ATOM     40  O   UNL     1     -14.681 -50.007 -18.395  0.00  0.00    -0.487 OA
BRANCH  40  41
ATOM     41  C   UNL     1     -14.578 -50.962 -19.495  0.00  0.00    +0.167 C 
ATOM     42  C   UNL     1     -14.127 -50.285 -20.751  0.00  0.00    +0.051 C 
ATOM     43  C   UNL     1     -13.572 -51.955 -19.020  0.00  0.00    +0.051 C 
ENDBRANCH  40  41
ENDBRANCH  39  40
ENDBRANCH  14  13
BRANCH  16  18
ATOM     18  C   UNL     1     -11.990 -47.509 -15.761  0.00  0.00    +0.134 A 
ATOM     19  C   UNL     1     -11.073 -46.698 -15.186  0.00  0.00    +0.080 A 
ATOM     20  S   UNL     1      -9.534 -47.470 -15.164  0.00  0.00    -0.075 S 
ATOM     21  C   UNL     1     -10.228 -48.846 -15.944  0.00  0.00    +0.109 A 
ATOM     38  N   UNL     1     -11.510 -48.744 -16.190  0.00  0.00    -0.234 NA
BRANCH  21  22
ATOM     22  C   UNL     1      -9.386 -50.003 -16.261  0.00  0.00    +0.008 A 
ATOM     23  C   UNL     1      -8.095 -50.105 -15.748  0.00  0.00    +0.023 A 
ATOM     24  C   UNL     1      -7.300 -51.213 -16.048  0.00  0.00    +0.038 A 
ATOM     35  C   UNL     1      -7.804 -52.208 -16.885  0.00  0.00    +0.013 A 
ATOM     36  C   UNL     1      -9.073 -52.092 -17.425  0.00  0.00    +0.001 A 
ATOM     37  C   UNL     1      -9.863 -50.997 -17.111  0.00  0.00    +0.010 A 
BRANCH  24  25
ATOM     25  C   UNL     1      -5.911 -51.378 -15.501  0.00  0.00    +0.248 C 
ATOM     26  O   UNL     1      -5.500 -52.482 -15.144  0.00  0.00    -0.270 OA
ATOM     27  N   UNL     1      -5.161 -50.249 -15.432  0.00  0.00    -0.281 N 
ATOM     28  H   UNL     1      -5.586 -49.383 -15.894  0.00  0.00    +0.155 HD
BRANCH  27  29
ATOM     29  C   UNL     1      -3.889 -50.061 -14.830  0.00  0.00    +0.034 A 
ATOM     30  C   UNL     1      -3.557 -48.759 -14.448  0.00  0.00    +0.023 A 
ATOM     31  C   UNL     1      -2.327 -48.501 -13.861  0.00  0.00    +0.002 A 
ATOM     32  C   UNL     1      -1.421 -49.529 -13.658  0.00  0.00    +0.000 A 
ATOM     33  C   UNL     1      -1.743 -50.822 -14.043  0.00  0.00    +0.002 A 
ATOM     34  C   UNL     1      -2.967 -51.093 -14.634  0.00  0.00    +0.023 A 
ENDBRANCH  27  29
ENDBRANCH  24  25
ENDBRANCH  21  22
ENDBRANCH  16  18
TORSDOF 8
