REMARK  Name = 4q9s_ligand
REMARK  0 active torsions:
REMARK  status: ('A' for Active; 'I' for Inactive)
REMARK                            x       y       z     vdW  Elec       q    Type
REMARK                         _______ _______ _______ _____ _____    ______ ____
ROOT
ATOM      1  C   UNL     1       8.980   2.543  26.291  0.00  0.00    -0.034 A 
ATOM      2  C   UNL     1       7.961   3.287  25.722  0.00  0.00    +0.002 A 
ATOM      3  C   UNL     1       6.679   2.765  25.609  0.00  0.00    +0.096 A 
ATOM      4  N   UNL     1       5.622   3.461  25.058  0.00  0.00    -0.231 N 
ATOM      5  C   UNL     1       5.845   4.731  24.367  0.00  0.00    +0.300 C 
ATOM      6  C   UNL     1       4.598   5.241  23.704  0.00  0.00    +0.227 C 
ATOM      7  O   UNL     1       4.621   6.229  22.988  0.00  0.00    -0.389 OA
ATOM      8  N   UNL     1       3.439   4.554  23.942  0.00  0.00    -0.209 N 
ATOM      9  H   UNL     1       2.602   4.880  23.503  0.00  0.00    +0.225 HD
ATOM     10  N   UNL     1       3.356   3.462  24.735  0.00  0.00    -0.222 NA
ATOM     11  C   UNL     1       4.388   3.013  25.295  0.00  0.00    +0.146 C 
ATOM     12  C   UNL     1       4.194   1.813  26.108  0.00  0.00    +0.301 C 
ATOM     13  O   UNL     1       5.238   0.852  25.996  0.00  0.00    -0.305 OA
ATOM     14  C   UNL     1       6.472   1.478  26.085  0.00  0.00    +0.118 A 
ATOM     15  C   UNL     1       7.482   0.731  26.650  0.00  0.00    +0.008 A 
ATOM     16  C   UNL     1       8.743   1.269  26.760  0.00  0.00    -0.035 A 
ENDROOT
TORSDOF 0
