REMARK  Name = A5Z
REMARK  2 active torsions:
REMARK  status: ('A' for Active; 'I' for Inactive)
REMARK    1  A    between atoms: C4_5  and  C3_8
REMARK    2  A    between atoms: C5_6  and  C2_9
REMARK                            x       y       z     vdW  Elec       q    Type
REMARK                         _______ _______ _______ _____ _____    ______ ____
ROOT
ATOM      1  C   UNL     1     -10.463  12.954 -17.758  0.00  0.00    +0.060 A 
ATOM      2  C   UNL     1     -10.225  11.790 -17.053  0.00  0.00    +0.012 A 
ATOM      3  C   UNL     1     -11.119  11.367 -16.104  0.00  0.00    +0.002 A 
ATOM      4  C   UNL     1     -12.252  12.097 -15.839  0.00  0.00    +0.012 A 
ATOM      5  C   UNL     1     -12.481  13.277 -16.522  0.00  0.00    +0.060 A 
ATOM      6 CL   UNL     1     -13.913  14.188 -16.191  0.00  0.00    -0.082 Cl
ATOM      7  C   UNL     1     -11.598  13.720 -17.495  0.00  0.00    +0.042 A 
ATOM     16 CL   UNL     1      -9.318  13.491 -18.933  0.00  0.00    -0.082 Cl
ENDROOT
BRANCH   7   8
ATOM      8  C   UNL     1     -11.875  14.980 -18.223  0.00  0.00    +0.123 A 
ATOM      9  N   UNL     1     -12.122  16.065 -17.522  0.00  0.00    -0.078 NA
ATOM     10  O   UNL     1     -12.338  17.063 -18.412  0.00  0.00    -0.358 OA
ATOM     11  C   UNL     1     -12.242  16.562 -19.672  0.00  0.00    +0.153 A 
ATOM     12  C   UNL     1     -12.469  17.521 -20.776  0.00  0.00    +0.075 C 
ATOM     13  C   UNL     1     -11.942  15.253 -19.615  0.00  0.00    +0.064 A 
BRANCH  13  14
ATOM     14  C   UNL     1     -11.773  14.329 -20.771  0.00  0.00    +0.213 C 
ATOM     15  O   UNL     1     -13.027  13.744 -21.113  0.00  0.00    -0.215 OA
ENDBRANCH  13  14
ENDBRANCH   7   8
TORSDOF 2
