REMARK  Name = JQ1
REMARK  5 active torsions:
REMARK  status: ('A' for Active; 'I' for Inactive)
REMARK    1  A    between atoms: CAM_13  and  CAS_19
REMARK    2  A    between atoms: CAM_13  and  CBC_29
REMARK    3  A    between atoms: OAQ_17  and  CAS_19
REMARK    4  A    between atoms: OAQ_17  and  CBE_31
REMARK    5  A    between atoms: CAT_20  and  CAW_23
REMARK                            x       y       z     vdW  Elec       q    Type
REMARK                         _______ _______ _______ _____ _____    ______ ____
ROOT
ATOM      1  C   UNL     1      11.571  -3.384   1.637  0.00  0.00    +0.074 C 
ATOM      2  C   UNL     1      12.157  -4.277   0.605  0.00  0.00    +0.148 A 
ATOM      3  N   UNL     1      13.452  -4.188   0.231  0.00  0.00    -0.133 NA
ATOM      4  N   UNL     1      13.663  -5.088  -0.718  0.00  0.00    -0.131 NA
ATOM      5  C   UNL     1      12.534  -5.778  -0.914  0.00  0.00    +0.170 A 
ATOM      6  C   UNL     1      12.225  -6.794  -1.955  0.00  0.00    +0.173 C 
ATOM     15  N   UNL     1      11.262  -6.263  -2.860  0.00  0.00    -0.264 NA
ATOM     16  C   UNL     1      10.010  -6.137  -2.567  0.00  0.00    +0.078 C 
ATOM     17  C   UNL     1       9.542  -6.260  -1.213  0.00  0.00    +0.036 A 
ATOM     18  C   UNL     1      10.299  -5.790  -0.104  0.00  0.00    +0.097 A 
ATOM     19  S   UNL     1       9.394  -6.067   1.388  0.00  0.00    -0.074 S 
ATOM     20  C   UNL     1       8.018  -6.767   0.555  0.00  0.00    +0.005 A 
ATOM     21  C   UNL     1       6.833  -7.243   1.304  0.00  0.00    +0.038 C 
ATOM     22  C   UNL     1       8.273  -6.824  -0.826  0.00  0.00    -0.016 A 
ATOM     23  C   UNL     1       7.243  -7.423  -1.740  0.00  0.00    +0.031 C 
ATOM     30  N   UNL     1      11.574  -5.265  -0.118  0.00  0.00    -0.274 N 
ENDROOT
BRANCH  16  24
ATOM     24  C   UNL     1       9.164  -5.566  -3.570  0.00  0.00    +0.017 A 
ATOM     25  C   UNL     1       7.982  -4.843  -3.228  0.00  0.00    +0.001 A 
ATOM     26  C   UNL     1       7.122  -4.278  -4.193  0.00  0.00    +0.000 A 
ATOM     27  C   UNL     1       7.447  -4.408  -5.556  0.00  0.00    +0.000 A 
ATOM     28  C   UNL     1       8.612  -5.117  -5.926  0.00  0.00    +0.000 A 
ATOM     29  C   UNL     1       9.459  -5.688  -4.954  0.00  0.00    +0.001 A 
ENDBRANCH  16  24
BRANCH   6   7
ATOM      7  C   UNL     1      13.481  -7.340  -2.699  0.00  0.00    +0.142 C 
BRANCH   7   8
ATOM      8  C   UNL     1      13.073  -8.267  -3.749  0.00  0.00    +0.319 C 
ATOM     14  O   UNL     1      13.577  -8.236  -4.894  0.00  0.00    -0.250 OA
BRANCH   8   9
ATOM      9  O   UNL     1      12.063  -9.114  -3.477  0.00  0.00    -0.456 OA
BRANCH   9  10
ATOM     10  C   UNL     1      11.423 -10.033  -4.385  0.00  0.00    +0.136 C 
ATOM     11  C   UNL     1      10.365 -10.815  -3.547  0.00  0.00    +0.044 C 
ATOM     12  C   UNL     1      12.418 -11.033  -5.048  0.00  0.00    +0.044 C 
ATOM     13  C   UNL     1      10.728  -9.172  -5.467  0.00  0.00    +0.044 C 
ENDBRANCH   9  10
ENDBRANCH   8   9
ENDBRANCH   7   8
ENDBRANCH   6   7
TORSDOF 5
