REMARK  Name = 4jai_ligand
REMARK  4 active torsions:
REMARK  status: ('A' for Active; 'I' for Inactive)
REMARK    1  A    between atoms: C12_15  and  N3_16
REMARK    2  A    between atoms: N3_16  and  C13_17
REMARK    3  A    between atoms: C16_22  and  N4_23
REMARK    4  A    between atoms: C19_24  and  C20_26
REMARK                            x       y       z     vdW  Elec       q    Type
REMARK                         _______ _______ _______ _____ _____    ______ ____
ROOT
ATOM     10  N   UNL     1      -6.059 -29.209   7.010  0.00  0.00    -0.276 N 
ATOM     11  H   UNL     1      -5.722 -28.780   6.137  0.00  0.00    +0.210 HD
ENDROOT
BRANCH  10   9
ATOM      1  O   UNL     1      -3.967 -34.260   4.607  0.00  0.00    -0.384 OA
ATOM      2  C   UNL     1      -4.349 -33.285   5.107  0.00  0.00    +0.230 A 
ATOM      3  N   UNL     1      -4.216 -33.388   6.375  0.00  0.00    -0.218 N 
ATOM      4  H   UNL     1      -3.818 -34.217   6.769  0.00  0.00    +0.236 HD
ATOM      5  C   UNL     1      -4.609 -32.387   7.178  0.00  0.00    +0.141 A 
ATOM      6  N   UNL     1      -4.385 -32.616   8.476  0.00  0.00    -0.299 NA
ATOM      7  C   UNL     1      -4.679 -31.640   9.275  0.00  0.00    +0.057 A 
ATOM      8  C   UNL     1      -5.223 -30.493   8.831  0.00  0.00    +0.024 A 
ATOM      9  C   UNL     1      -5.449 -30.332   7.493  0.00  0.00    +0.074 A 
ATOM     28  C   UNL     1      -5.165 -31.292   6.615  0.00  0.00    +0.058 A 
ATOM     29  C   UNL     1      -5.323 -31.134   5.211  0.00  0.00    -0.003 A 
ATOM     30  C   UNL     1      -5.848 -30.022   4.594  0.00  0.00    +0.006 A 
ATOM     31  C   UNL     1      -6.016 -29.921   3.216  0.00  0.00    +0.003 A 
ATOM     32  C   UNL     1      -5.567 -30.948   2.437  0.00  0.00    -0.000 A 
ATOM     33  C   UNL     1      -5.015 -32.034   3.082  0.00  0.00    +0.020 A 
ATOM     34  C   UNL     1      -4.895 -32.121   4.442  0.00  0.00    +0.057 A 
ENDBRANCH  10   9
BRANCH  10  12
ATOM     12  C   UNL     1      -7.155 -28.629   7.703  0.00  0.00    +0.048 A 
ATOM     13  C   UNL     1      -6.954 -27.292   8.011  0.00  0.00    -0.001 A 
ATOM     14  C   UNL     1      -7.833 -26.527   8.723  0.00  0.00    -0.002 A 
ATOM     15  C   UNL     1      -9.001 -27.107   9.164  0.00  0.00    +0.055 A 
ATOM     26  C   UNL     1      -9.270 -28.438   8.848  0.00  0.00    -0.002 A 
ATOM     27  C   UNL     1      -8.345 -29.222   8.134  0.00  0.00    -0.001 A 
BRANCH  15  16
ATOM     16  N   UNL     1      -9.820 -26.181   9.875  0.00  0.00    -0.239 N 
ATOM     17  H   UNL     1     -10.661 -26.579  10.240  0.00  0.00    +0.222 HD
ATOM     18  C   UNL     1      -9.661 -24.770  10.167  0.00  0.00    +0.230 C 
ATOM     25  O   UNL     1      -9.164 -23.758   9.559  0.00  0.00    -0.375 OA
BRANCH  18  19
ATOM     19  C   UNL     1     -10.434 -24.571  11.436  0.00  0.00    +0.055 A 
ATOM     20  C   UNL     1     -10.633 -25.687  12.272  0.00  0.00    +0.025 A 
ATOM     21  C   UNL     1     -11.398 -25.490  13.415  0.00  0.00    +0.007 A 
ATOM     22  C   UNL     1     -12.009 -24.261  13.673  0.00  0.00    +0.008 A 
ATOM     23  C   UNL     1     -11.863 -23.155  12.844  0.00  0.00    +0.007 A 
ATOM     24  C   UNL     1     -11.063 -23.326  11.719  0.00  0.00    +0.025 A 
ENDBRANCH  18  19
ENDBRANCH  15  16
ENDBRANCH  10  12
TORSDOF 4
