REMARK  Name = 3GC8
REMARK  6 active torsions:
REMARK  status: ('A' for Active; 'I' for Inactive)
REMARK    1  A    between atoms: C_9  and  C_10
REMARK    2  A    between atoms: C_11  and  C_25
REMARK    3  A    between atoms: C_14  and  N_30
REMARK    4  A    between atoms: C_26  and  C_28
REMARK    5  A    between atoms: C_27  and  C_28
REMARK    6  A    between atoms: C_28  and  N_31
REMARK                            x       y       z     vdW  Elec       q    Type
REMARK                         _______ _______ _______ _____ _____    ______ ____
ROOT
ATOM      6  N   UNL     1      28.477  -8.892  37.302  0.00  0.00    -0.221 N 
ATOM      7  C   UNL     1      29.564  -9.677  36.924  0.00  0.00    +0.311 C 
ATOM      8  O   UNL     1      30.447 -10.069  37.673  0.00  0.00    -0.252 OA
ATOM      9  N   UNL     1      29.590  -9.992  35.594  0.00  0.00    -0.294 N 
ATOM     10  H   UNL     1      30.521  -9.972  35.068  0.00  0.00    +0.151 HD
ATOM     11  C   UNL     1      28.398 -10.347  34.895  0.00  0.00    +0.143 C 
ATOM     12  C   UNL     1      27.310  -9.397  35.233  0.00  0.00    -0.001 A 
ATOM     13  C   UNL     1      26.249  -9.240  34.355  0.00  0.00    -0.010 A 
ATOM     22  C   UNL     1      25.263  -8.341  34.689  0.00  0.00    +0.013 A 
ATOM     23  C   UNL     1      25.304  -7.618  35.861  0.00  0.00    -0.042 A 
ATOM     33  C   UNL     1      26.359  -7.795  36.729  0.00  0.00    +0.028 A 
ATOM     34  C   UNL     1      27.370  -8.689  36.422  0.00  0.00    +0.048 A 
ENDROOT
BRANCH   6   5
ATOM      1  C   UNL     1      27.994  -7.889  41.378  0.00  0.00    +0.003 A 
ATOM      2  C   UNL     1      28.456  -6.961  40.476  0.00  0.00    +0.022 A 
ATOM      3  C   UNL     1      28.595  -7.341  39.157  0.00  0.00    +0.064 A 
ATOM      4 CL   UNL     1      29.170  -6.261  37.990  0.00  0.00    -0.082 Cl
ATOM      5  C   UNL     1      28.290  -8.592  38.684  0.00  0.00    +0.079 A 
ATOM     35  C   UNL     1      27.828  -9.502  39.602  0.00  0.00    +0.064 A 
ATOM     36 CL   UNL     1      27.430 -11.080  39.079  0.00  0.00    -0.082 Cl
ATOM     37  C   UNL     1      27.684  -9.156  40.931  0.00  0.00    +0.022 A 
ENDBRANCH   6   5
BRANCH  13  14
ATOM     14  C   UNL     1      26.172  -9.980  33.114  0.00  0.00    +0.001 A 
ATOM     15  C   UNL     1      25.987 -11.345  33.048  0.00  0.00    +0.051 A 
ATOM     16 CL   UNL     1      25.760 -12.310  34.461  0.00  0.00    -0.083 Cl
ATOM     17  C   UNL     1      25.975 -11.999  31.838  0.00  0.00    +0.059 A 
ATOM     18  C   UNL     1      26.143 -11.283  30.681  0.00  0.00    +0.125 A 
ATOM     19  F   UNL     1      26.134 -11.913  29.506  0.00  0.00    -0.205 F 
ATOM     20  C   UNL     1      26.327  -9.926  30.716  0.00  0.00    +0.039 A 
ATOM     21  C   UNL     1      26.344  -9.285  31.934  0.00  0.00    +0.013 A 
ENDBRANCH  13  14
BRANCH  23  24
ATOM     24  C   UNL     1      24.213  -6.648  36.173  0.00  0.00    +0.022 C 
ATOM     25  C   UNL     1      22.863  -7.058  35.622  0.00  0.00    +0.023 C 
ATOM     26  C   UNL     1      21.823  -5.981  35.906  0.00  0.00    +0.085 C 
ATOM     27  N   UNL     1      22.274  -4.623  35.452  0.00  0.00    -0.300 NA
ATOM     31  C   UNL     1      23.648  -4.244  35.867  0.00  0.00    +0.085 C 
ATOM     32  C   UNL     1      24.592  -5.356  35.482  0.00  0.00    +0.023 C 
BRANCH  27  28
ATOM     28  C   UNL     1      21.257  -3.517  35.531  0.00  0.00    +0.050 C 
ATOM     29  C   UNL     1      20.778  -3.282  36.954  0.00  0.00    +0.024 C 
ATOM     30  C   UNL     1      21.825  -2.220  34.980  0.00  0.00    +0.024 C 
ENDBRANCH  27  28
ENDBRANCH  23  24
TORSDOF 4
