REMARK  Name = 3WZU
REMARK  6 active torsions:
REMARK  status: ('A' for Active; 'I' for Inactive)
REMARK    1  A    between atoms: C_3  and  O_23
REMARK    2  A    between atoms: C_5  and  O_24
REMARK    3  A    between atoms: C_11  and  O_21
REMARK    4  A    between atoms: C_13  and  C_26
REMARK    5  A    between atoms: C_16  and  O_22
REMARK    6  A    between atoms: O_24  and  C_25
REMARK                            x       y       z     vdW  Elec       q    Type
REMARK                         _______ _______ _______ _____ _____    ______ ____
ROOT
ATOM      1  C   UNL     1     -10.108 -15.206   1.295  0.00  0.00    +0.108 A 
ATOM      2  C   UNL     1      -8.919 -14.371   1.785  0.00  0.00    +0.344 C 
ATOM      3  O   UNL     1      -8.858 -13.159   1.579  0.00  0.00    -0.245 OA
ATOM      4  O   UNL     1      -7.828 -14.966   2.583  0.00  0.00    -0.458 OA
ATOM      5  C   UNL     1      -6.671 -14.130   2.792  0.00  0.00    +0.174 C 
ATOM      6  C   UNL     1      -6.255 -14.119   4.263  0.00  0.00    +0.052 C 
ATOM      7  C   UNL     1      -5.502 -14.600   1.917  0.00  0.00    +0.045 C 
ATOM      8  C   UNL     1      -5.682 -14.373   0.406  0.00  0.00    +0.011 C 
ATOM      9  C   UNL     1      -5.961 -12.890   0.106  0.00  0.00    +0.077 C 
ATOM     10  C   UNL     1      -6.383 -12.642  -1.331  0.00  0.00    +0.164 C 
ATOM     11  O   UNL     1      -5.519 -12.382  -2.153  0.00  0.00    -0.295 OA
ATOM     12  C   UNL     1      -7.855 -12.676  -1.721  0.00  0.00    +0.209 C 
ATOM     15  C   UNL     1      -8.213 -13.348  -3.084  0.00  0.00    +0.154 C 
ATOM     18  C   UNL     1      -9.724 -13.485  -3.363  0.00  0.00    +0.061 C 
ATOM     19  C   UNL     1     -10.315 -14.511  -2.428  0.00  0.00    -0.024 C 
ATOM     20  C   UNL     1     -10.265 -14.244  -1.117  0.00  0.00    +0.005 C 
ATOM     21  C   UNL     1     -10.715 -16.161   2.248  0.00  0.00    +0.135 A 
ATOM     24  C   UNL     1     -11.811 -16.936   1.874  0.00  0.00    +0.091 A 
ATOM     25  C   UNL     1     -12.373 -16.853   0.602  0.00  0.00    +0.124 A 
ATOM     28  C   UNL     1     -11.856 -15.967  -0.343  0.00  0.00    +0.054 A 
ATOM     29  C   UNL     1     -10.763 -15.146  -0.058  0.00  0.00    -0.004 A 
ENDROOT
BRANCH  12  13
ATOM     13  O   UNL     1      -8.369 -11.334  -1.661  0.00  0.00    -0.382 OA
ATOM     14  H   UNL     1      -7.952 -10.764  -2.438  0.00  0.00    +0.210 HD
ENDBRANCH  12  13
BRANCH  15  16
ATOM     16  O   UNL     1      -7.634 -14.658  -3.184  0.00  0.00    -0.389 OA
ATOM     17  H   UNL     1      -8.081 -15.294  -2.478  0.00  0.00    +0.210 HD
ENDBRANCH  15  16
BRANCH  21  22
ATOM     22  O   UNL     1     -10.191 -16.265   3.498  0.00  0.00    -0.506 OA
ATOM     23  H   UNL     1      -9.185 -16.560   3.433  0.00  0.00    +0.292 HD
ENDBRANCH  21  22
BRANCH  25  26
ATOM     26  O   UNL     1     -13.454 -17.653   0.318  0.00  0.00    -0.495 OA
ATOM     27  C   UNL     1     -13.920 -17.881  -1.009  0.00  0.00    +0.277 C 
ENDBRANCH  25  26
TORSDOF 4
