REMARK  Name = 2ds1_ligand
REMARK  1 active torsions:
REMARK  status: ('A' for Active; 'I' for Inactive)
REMARK    1  A    between atoms: C1_1  and  C6_6
REMARK                            x       y       z     vdW  Elec       q    Type
REMARK                         _______ _______ _______ _____ _____    ______ ____
ROOT
ATOM      1  C   UNL     1      -6.781  10.008  12.824  0.00  0.00    +0.064 C 
ATOM      2  C   UNL     1      -6.241   8.670  13.341  0.00  0.00    +0.064 C 
ATOM      3  C   UNL     1      -6.744   7.497  12.503  0.00  0.00    +0.095 C 
ATOM      4  C   UNL     1      -8.139   7.052  12.918  0.00  0.00    +0.192 C 
ATOM      5  O   UNL     1      -9.101   8.092  12.762  0.00  0.00    -0.320 OA
ATOM      6  C   UNL     1      -9.758   8.279  11.548  0.00  0.00    +0.097 A 
ATOM      7  C   UNL     1      -9.858   7.343  10.413  0.00  0.00    -0.021 A 
ATOM      8  C   UNL     1     -10.659   7.726   9.251  0.00  0.00    -0.052 A 
ATOM      9  C   UNL     1     -11.340   9.035   9.262  0.00  0.00    -0.025 A 
ATOM     10  C   UNL     1     -11.241   9.978  10.376  0.00  0.00    +0.077 A 
ATOM     11  N   UNL     1     -11.778  11.225  10.535  0.00  0.00    -0.238 N 
ATOM     12  H   UNL     1     -12.362  11.559   9.795  0.00  0.00    +0.221 HD
ATOM     13  C   UNL     1     -11.592  12.095  11.642  0.00  0.00    +0.234 C 
ATOM     14  O   UNL     1     -12.129  13.197  11.708  0.00  0.00    -0.382 OA
ATOM     15  C   UNL     1     -10.696  11.676  12.838  0.00  0.00    +0.249 C 
ATOM     16  C   UNL     1     -10.115  12.516  13.930  0.00  0.00    +0.026 A 
ATOM     17  C   UNL     1     -10.230  13.971  13.841  0.00  0.00    -0.007 A 
ATOM     18  C   UNL     1      -9.421  14.774  14.744  0.00  0.00    -0.026 A 
ATOM     19  C   UNL     1      -8.501  14.204  15.738  0.00  0.00    -0.002 A 
ATOM     20  C   UNL     1      -8.365  12.748  15.874  0.00  0.00    +0.065 A 
ATOM     21  C   UNL     1      -7.556  11.801  16.656  0.00  0.00    +0.218 A 
ATOM     22  O   UNL     1      -6.731  12.139  17.508  0.00  0.00    -0.390 OA
ATOM     23  N   UNL     1      -7.833  10.498  16.314  0.00  0.00    -0.172 N 
ATOM     24  C   UNL     1      -7.210   9.291  16.876  0.00  0.00    +0.217 C 
ATOM     25  C   UNL     1      -6.278   8.611  15.874  0.00  0.00    +0.159 C 
ATOM     26  N   UNL     1      -8.796  10.611  15.344  0.00  0.00    -0.218 N 
ATOM     27  H   UNL     1      -9.213   9.778  14.905  0.00  0.00    +0.207 HD
ATOM     28  C   UNL     1      -9.181  11.871  14.983  0.00  0.00    +0.090 A 
ATOM     29  N   UNL     1     -10.214  10.395  12.626  0.00  0.00    -0.304 N 
ATOM     30  H   UNL     1      -9.628  10.005  13.378  0.00  0.00    +0.173 HD
ATOM     31  C   UNL     1     -10.420   9.577  11.536  0.00  0.00    +0.093 A 
ATOM     32  C   UNL     1      -7.664   6.990  14.374  0.00  0.00    +0.168 C 
ATOM     33  N   UNL     1      -6.936   8.269  14.593  0.00  0.00    +0.241 N 
ATOM     34  H   UNL     1      -7.704   8.921  14.623  0.00  0.00    +0.204 HD
ENDROOT
TORSDOF 0
