REMARK  Name = 3DTW
REMARK  4 active torsions:
REMARK  status: ('A' for Active; 'I' for Inactive)
REMARK    1  A    between atoms: C_3  and  N_7
REMARK    2  A    between atoms: C_8  and  C_9
REMARK    3  A    between atoms: N_20  and  C_21
REMARK    4  A    between atoms: C_25  and  C_27
REMARK                            x       y       z     vdW  Elec       q    Type
REMARK                         _______ _______ _______ _____ _____    ______ ____
ROOT
ATOM     10  C   UNL     1      36.629  32.449  13.316  0.00  0.00    +0.101 A 
ATOM     11  C   UNL     1      35.249  32.077  13.190  0.00  0.00    +0.057 A 
ATOM     12 CL   UNL     1      34.670  30.465  13.428  0.00  0.00    -0.083 Cl
ATOM     13  C   UNL     1      34.267  33.054  12.855  0.00  0.00    +0.021 A 
ATOM     14  C   UNL     1      34.649  34.421  12.647  0.00  0.00    +0.017 A 
ATOM     15  C   UNL     1      35.985  34.784  12.771  0.00  0.00    +0.064 A 
ATOM     16  C   UNL     1      36.774  36.007  12.655  0.00  0.00    +0.173 A 
ATOM     17  N   UNL     1      36.043  37.258  12.310  0.00  0.00    -0.296 N 
ATOM     18  H   UNL     1      34.989  37.202  12.138  0.00  0.00    +0.154 HD
ATOM     29  N   UNL     1      38.091  35.773  12.894  0.00  0.00    -0.062 NA
ATOM     30  O   UNL     1      38.155  34.485  13.148  0.00  0.00    -0.352 OA
ATOM     31  C   UNL     1      36.974  33.796  13.109  0.00  0.00    +0.183 A 
ENDROOT
BRANCH  17  19
ATOM     19  C   UNL     1      36.664  38.490  12.202  0.00  0.00    +0.033 A 
ATOM     20  C   UNL     1      37.908  38.635  11.512  0.00  0.00    +0.035 A 
ATOM     21  C   UNL     1      38.539  39.918  11.396  0.00  0.00    +0.057 A 
ATOM     26  C   UNL     1      37.899  41.043  11.980  0.00  0.00    +0.012 A 
ATOM     27  C   UNL     1      36.673  40.901  12.660  0.00  0.00    +0.002 A 
ATOM     28  C   UNL     1      36.056  39.632  12.772  0.00  0.00    +0.023 A 
BRANCH  21  22
ATOM     22  C   UNL     1      39.876  40.072  10.663  0.00  0.00    +0.417 C 
ATOM     23  F   UNL     1      39.612  40.308   9.400  0.00  0.00    -0.166 F 
ATOM     24  F   UNL     1      40.535  41.097  11.189  0.00  0.00    -0.166 F 
ATOM     25  F   UNL     1      40.598  38.968  10.777  0.00  0.00    -0.166 F 
ENDBRANCH  21  22
ENDBRANCH  17  19
BRANCH  10   8
ATOM      6  N   UNL     1      37.924  30.509  12.800  0.00  0.00    -0.279 N 
ATOM      7  H   UNL     1      37.225  30.432  11.993  0.00  0.00    +0.155 HD
ATOM      8  C   UNL     1      37.733  31.544  13.667  0.00  0.00    +0.253 C 
ATOM      9  O   UNL     1      38.457  31.731  14.640  0.00  0.00    -0.270 OA
BRANCH   6   5
ATOM      1  N   UNL     1      40.556  28.073  11.805  0.00  0.00    -0.242 NA
ATOM      2  C   UNL     1      40.886  27.630  13.043  0.00  0.00    +0.221 A 
ATOM      3  N   UNL     1      40.323  28.057  14.192  0.00  0.00    -0.242 NA
ATOM      4  C   UNL     1      39.355  29.000  14.082  0.00  0.00    +0.137 A 
ATOM      5  C   UNL     1      38.916  29.548  12.843  0.00  0.00    +0.070 A 
ATOM     32  C   UNL     1      39.577  29.024  11.710  0.00  0.00    +0.137 A 
ENDBRANCH   6   5
ENDBRANCH  10   8
TORSDOF 4
