REMARK  Name = 5HLP
REMARK  6 active torsions:
REMARK  status: ('A' for Active; 'I' for Inactive)
REMARK    1  A    between atoms: C_1  and  C_2
REMARK    2  A    between atoms: C_5  and  C_6
REMARK    3  A    between atoms: C_7  and  O_19
REMARK    4  A    between atoms: C_8  and  O_19
REMARK    5  A    between atoms: C_9  and  C_10
REMARK    6  A    between atoms: C_10  and  C_17
REMARK                            x       y       z     vdW  Elec       q    Type
REMARK                         _______ _______ _______ _____ _____    ______ ____
ROOT
ATOM      1  C   UNL     1       8.613  22.673 -19.311  0.00  0.00    +0.066 A 
ATOM      2  N   UNL     1       8.066  22.131 -20.390  0.00  0.00    -0.177 NA
ATOM      3  N   UNL     1       8.249  22.902 -21.540  0.00  0.00    -0.264 N 
ATOM      4  H   UNL     1       7.926  22.671 -22.534  0.00  0.00    +0.190 HD
ATOM      5  C   UNL     1       8.927  24.013 -21.129  0.00  0.00    +0.122 A 
ATOM      6  N   UNL     1       9.314  25.027 -21.882  0.00  0.00    -0.303 N 
ATOM      7  H   UNL     1       9.056  25.040 -22.920  0.00  0.00    +0.153 HD
ATOM      8  C   UNL     1      10.018  26.031 -21.372  0.00  0.00    +0.017 C 
ATOM      9  C   UNL     1      10.372  26.031 -19.960  0.00  0.00    +0.024 C 
ATOM     10  C   UNL     1      11.189  27.203 -19.530  0.00  0.00    +0.162 C 
ATOM     11  O   UNL     1      11.497  27.352 -18.346  0.00  0.00    -0.292 OA
ATOM     12  C   UNL     1      11.782  28.115 -20.605  0.00  0.00    +0.086 C 
ATOM     13  C   UNL     1      10.856  28.425 -21.776  0.00  0.00    -0.023 C 
ATOM     14  C   UNL     1      11.632  29.225 -22.824  0.00  0.00    +0.011 C 
ATOM     15  C   UNL     1       9.611  29.227 -21.318  0.00  0.00    +0.011 C 
ATOM     16  C   UNL     1       9.926  24.966 -18.984  0.00  0.00    +0.092 C 
ATOM     25  C   UNL     1      10.429  27.099 -22.364  0.00  0.00    +0.058 C 
ATOM     26  C   UNL     1       9.222  23.942 -19.708  0.00  0.00    +0.027 A 
ATOM     27  C   UNL     1       8.664  22.276 -17.885  0.00  0.00    +0.068 C 
ENDROOT
BRANCH  16  17
ATOM     17  C   UNL     1       9.027  25.701 -18.042  0.00  0.00    +0.006 A 
ATOM     18  C   UNL     1       9.165  25.695 -16.577  0.00  0.00    +0.124 A 
ATOM     19  C   UNL     1       8.317  26.466 -15.779  0.00  0.00    +0.046 A 
ATOM     20  C   UNL     1       7.363  27.281 -16.324  0.00  0.00    +0.004 A 
ATOM     21  C   UNL     1       7.206  27.279 -17.697  0.00  0.00    +0.001 A 
ATOM     24  C   UNL     1       8.008  26.527 -18.535  0.00  0.00    +0.008 A 
BRANCH  18  22
ATOM     22  O   UNL     1      10.098  24.942 -15.973  0.00  0.00    -0.495 OA
ATOM     23  C   UNL     1       9.835  24.204 -14.748  0.00  0.00    +0.277 C 
ENDBRANCH  18  22
ENDBRANCH  16  17
TORSDOF 2
