REMARK  Name = 9CE
REMARK  1 active torsions:
REMARK  status: ('A' for Active; 'I' for Inactive)
REMARK    1  A    between atoms: CAH_11  and  CAG_12
REMARK                            x       y       z     vdW  Elec       q    Type
REMARK                         _______ _______ _______ _____ _____    ______ ____
ROOT
ATOM      1  N   UNL     1       7.428  37.947  12.841  0.00  0.00    -0.189 NA
ATOM      2  C   UNL     1       7.404  37.657  14.190  0.00  0.00    +0.282 A 
ATOM      3  O   UNL     1       8.154  38.301  14.925  0.00  0.00    -0.265 OA
ATOM      4  C   UNL     1       6.533  36.655  14.642  0.00  0.00    +0.076 A 
ATOM      5  C   UNL     1       6.450  36.296  15.993  0.00  0.00    +0.006 A 
ATOM      6  C   UNL     1       5.581  35.280  16.393  0.00  0.00    +0.000 A 
ATOM      7  C   UNL     1       4.815  34.611  15.435  0.00  0.00    +0.002 A 
ATOM      8  C   UNL     1       4.898  34.962  14.095  0.00  0.00    +0.019 A 
ATOM      9  C   UNL     1       5.769  35.970  13.689  0.00  0.00    +0.088 A 
ATOM     10  N   UNL     1       5.804  36.293  12.370  0.00  0.00    -0.226 NA
ATOM     11  C   UNL     1       6.623  37.257  11.907  0.00  0.00    +0.167 A 
ENDROOT
BRANCH  11  12
ATOM     12  C   UNL     1       6.618  37.616  10.529  0.00  0.00    +0.053 A 
ATOM     13  C   UNL     1       7.081  38.893  10.141  0.00  0.00    +0.004 A 
ATOM     14  C   UNL     1       7.048  39.330   8.814  0.00  0.00    +0.000 A 
ATOM     15  C   UNL     1       6.519  38.517   7.831  0.00  0.00    +0.001 A 
ATOM     16  C   UNL     1       6.016  37.274   8.175  0.00  0.00    +0.018 A 
ATOM     17  C   UNL     1       6.047  36.826   9.504  0.00  0.00    +0.092 A 
ATOM     18  N   UNL     1       5.572  35.605   9.781  0.00  0.00    -0.128 NA
ENDBRANCH  11  12
TORSDOF 1
