REMARK  Name = S5B
REMARK  5 active torsions:
REMARK  status: ('A' for Active; 'I' for Inactive)
REMARK    1  A    between atoms: C05_7  and  C06_8
REMARK    2  A    between atoms: C10_12  and  N02_13
REMARK    3  A    between atoms: N02_13  and  C11_14
REMARK    4  A    between atoms: C16_19  and  C17_20
REMARK    5  A    between atoms: C21_24  and  C1_29
REMARK                            x       y       z     vdW  Elec       q    Type
REMARK                         _______ _______ _______ _____ _____    ______ ____
ROOT
ATOM      8  C   UNL     1      13.895   4.939  11.048  0.00  0.00    +0.005 A 
ATOM      9  C   UNL     1      14.173   4.007  12.018  0.00  0.00    +0.019 A 
ATOM     10  C   UNL     1      14.785   2.777  11.689  0.00  0.00    +0.083 A 
ATOM     11  N   UNL     1      15.032   1.896  12.709  0.00  0.00    -0.243 NA
ATOM     12  C   UNL     1      15.604   0.763  12.394  0.00  0.00    +0.107 A 
ATOM     13  C   UNL     1      15.975   0.362  11.115  0.00  0.00    +0.114 A 
ATOM     17  C   UNL     1      15.746   1.251  10.022  0.00  0.00    +0.080 A 
ATOM     29  C   UNL     1      15.114   2.506  10.330  0.00  0.00    +0.033 A 
ATOM     30  C   UNL     1      14.809   3.500   9.364  0.00  0.00    +0.003 A 
ATOM     31  C   UNL     1      14.215   4.671   9.720  0.00  0.00    +0.000 A 
ENDROOT
BRANCH   8   7
ATOM      1  C   UNL     1      11.065   5.442  12.642  0.00  0.00    +0.056 C 
ATOM      2  C   UNL     1      12.039   6.431  12.103  0.00  0.00    +0.101 A 
ATOM      3  N   UNL     1      11.800   7.705  12.246  0.00  0.00    -0.082 NA
ATOM      4  O   UNL     1      12.891   8.384  11.641  0.00  0.00    -0.358 OA
ATOM      5  C   UNL     1      13.738   7.465  11.163  0.00  0.00    +0.154 A 
ATOM      6  C   UNL     1      14.955   7.980  10.491  0.00  0.00    +0.075 C 
ATOM      7  C   UNL     1      13.257   6.224  11.421  0.00  0.00    +0.050 A 
ENDBRANCH   8   7
BRANCH  13  14
ATOM     14  C   UNL     1      16.630  -0.971  10.981  0.00  0.00    +0.391 C 
ATOM     15  O   UNL     1      16.684  -1.767  11.912  0.00  0.00    -0.240 OA
ATOM     16  O   UNL     1      17.164  -1.200   9.817  0.00  0.00    -0.240 OA
ENDBRANCH  13  14
BRANCH  17  18
ATOM     18  N   UNL     1      16.092   0.842   8.735  0.00  0.00    -0.212 NA
BRANCH  18  19
ATOM     19  C   UNL     1      16.457   1.651   7.627  0.00  0.00    +0.067 A 
ATOM     20  C   UNL     1      17.714   2.253   7.641  0.00  0.00    +0.016 A 
ATOM     21  C   UNL     1      18.126   3.045   6.583  0.00  0.00    +0.001 A 
ATOM     22  C   UNL     1      17.303   3.247   5.499  0.00  0.00    -0.000 A 
ATOM     23  C   UNL     1      16.051   2.659   5.449  0.00  0.00    -0.003 A 
ATOM     24  C   UNL     1      15.590   1.860   6.492  0.00  0.00    -0.008 A 
BRANCH  24  25
ATOM     25  C   UNL     1      14.180   1.227   6.363  0.00  0.00    +0.020 C 
ATOM     26  C   UNL     1      13.466   0.971   7.697  0.00  0.00    +0.004 C 
ATOM     27  C   UNL     1      14.266  -0.101   5.619  0.00  0.00    +0.004 C 
ATOM     28  C   UNL     1      13.246   2.134   5.556  0.00  0.00    +0.004 C 
ENDBRANCH  24  25
ENDBRANCH  18  19
ENDBRANCH  17  18
TORSDOF 5
