REMARK  Name = 3unj_ligand
REMARK  3 active torsions:
REMARK  status: ('A' for Active; 'I' for Inactive)
REMARK    1  A    between atoms: C06_1  and  C11_2
REMARK    2  A    between atoms: C09_5  and  N01_8
REMARK    3  A    between atoms: N04_15  and  C16_16
REMARK                            x       y       z     vdW  Elec       q    Type
REMARK                         _______ _______ _______ _____ _____    ______ ____
ROOT
ATOM      5  N   UNL     1      76.507  67.564  64.852  0.00  0.00    -0.243 N 
ATOM      6  H   UNL     1      76.174  68.241  65.553  0.00  0.00    +0.219 HD
ATOM      7  C   UNL     1      77.573  67.979  63.998  0.00  0.00    +0.196 A 
ATOM      8  N   UNL     1      78.177  67.082  63.218  0.00  0.00    -0.234 NA
ATOM      9  C   UNL     1      79.171  67.445  62.391  0.00  0.00    +0.134 A 
ATOM     10  N   UNL     1      79.756  66.434  61.558  0.00  0.00    -0.256 N 
ATOM     11  H   UNL     1      79.307  65.507  61.553  0.00  0.00    +0.216 HD
ATOM     18  C   UNL     1      79.571  68.784  62.373  0.00  0.00    +0.057 A 
ATOM     19  C   UNL     1      78.936  69.705  63.209  0.00  0.00    +0.086 A 
ATOM     20  N   UNL     1      77.940  69.265  63.998  0.00  0.00    -0.269 NA
ENDROOT
BRANCH   5   4
ATOM      1  C   UNL     1      74.506  63.868  64.958  0.00  0.00    -0.002 A 
ATOM      2  C   UNL     1      75.316  64.132  63.853  0.00  0.00    +0.005 A 
ATOM      3  C   UNL     1      76.000  65.352  63.786  0.00  0.00    +0.020 A 
ATOM      4  C   UNL     1      75.862  66.287  64.817  0.00  0.00    +0.068 A 
ATOM     21  C   UNL     1      75.049  66.009  65.901  0.00  0.00    +0.020 A 
ATOM     22  C   UNL     1      74.382  64.804  65.965  0.00  0.00    +0.005 A 
BRANCH   1  23
ATOM     23  C   UNL     1      73.744  62.595  65.123  0.00  0.00    +0.055 C 
ATOM     24  O   UNL     1      74.054  61.560  64.471  0.00  0.00    -0.564 OA
ATOM     25  O   UNL     1      72.778  62.565  65.945  0.00  0.00    -0.564 OA
ENDBRANCH   1  23
ENDBRANCH   5   4
BRANCH  10  12
ATOM     12  C   UNL     1      80.913  66.608  60.734  0.00  0.00    +0.064 A 
ATOM     13  C   UNL     1      80.893  66.178  59.414  0.00  0.00    +0.015 A 
ATOM     14  C   UNL     1      82.038  66.331  58.637  0.00  0.00    -0.013 A 
ATOM     15  C   UNL     1      83.199  66.907  59.146  0.00  0.00    -0.021 A 
ATOM     16  C   UNL     1      83.211  67.328  60.471  0.00  0.00    -0.013 A 
ATOM     17  C   UNL     1      82.075  67.163  61.255  0.00  0.00    +0.015 A 
ENDBRANCH  10  12
TORSDOF 3
