REMARK  Name = 4d2v_ligand
REMARK  5 active torsions:
REMARK  status: ('A' for Active; 'I' for Inactive)
REMARK    1  A    between atoms: C1_1  and  O2_2
REMARK    2  A    between atoms: O2_2  and  C3_3
REMARK    3  A    between atoms: C5_5  and  C23_23
REMARK    4  A    between atoms: C8_8  and  C9_9
REMARK    5  A    between atoms: N11_11  and  C12_12
REMARK                            x       y       z     vdW  Elec       q    Type
REMARK                         _______ _______ _______ _____ _____    ______ ____
ROOT
ATOM      5  C   UNL     1      -9.467 -40.217 -17.884  0.00  0.00    +0.221 C 
ATOM      6  N   UNL     1     -10.050 -39.100 -18.358  0.00  0.00    -0.241 N 
ATOM      7  H   UNL     1     -10.433 -39.174 -19.279  0.00  0.00    +0.222 HD
ATOM     21  O   UNL     1      -8.718 -40.190 -16.911  0.00  0.00    -0.383 OA
ENDROOT
BRANCH   6   8
ATOM      8  C   UNL     1     -10.197 -37.841 -17.741  0.00  0.00    +0.052 A 
ATOM      9  C   UNL     1     -11.239 -37.081 -18.251  0.00  0.00    -0.004 A 
ATOM     10  C   UNL     1     -11.508 -35.803 -17.770  0.00  0.00    -0.049 A 
ATOM     11  C   UNL     1     -12.683 -35.061 -18.360  0.00  0.00    +0.108 C 
ATOM     12  C   UNL     1     -12.339 -33.713 -18.979  0.00  0.00    +0.142 C 
ATOM     13  N   UNL     1     -12.164 -32.622 -17.971  0.00  0.00    +0.230 N 
ATOM     14  H   UNL     1     -12.977 -32.624 -17.375  0.00  0.00    +0.202 HD
ATOM     15  H   UNL     1     -12.117 -31.749 -18.472  0.00  0.00    +0.202 HD
ATOM     16  C   UNL     1     -10.958 -32.705 -17.093  0.00  0.00    +0.140 C 
ATOM     17  C   UNL     1     -10.940 -33.906 -16.161  0.00  0.00    +0.099 C 
ATOM     18  C   UNL     1     -10.692 -35.267 -16.765  0.00  0.00    -0.050 A 
ATOM     19  C   UNL     1      -9.653 -36.041 -16.248  0.00  0.00    -0.029 A 
ATOM     20  C   UNL     1      -9.403 -37.313 -16.737  0.00  0.00    -0.011 A 
ENDBRANCH   6   8
BRANCH   5   4
ATOM      3  C   UNL     1     -10.802 -41.745 -19.542  0.00  0.00    +0.107 A 
ATOM      4  C   UNL     1      -9.768 -41.506 -18.607  0.00  0.00    +0.079 A 
ATOM     22  C   UNL     1      -8.923 -42.566 -18.276  0.00  0.00    +0.008 A 
ATOM     23  C   UNL     1      -9.074 -43.806 -18.858  0.00  0.00    -0.018 A 
ATOM     24  C   UNL     1     -10.079 -44.049 -19.790  0.00  0.00    -0.040 A 
ATOM     31  C   UNL     1     -10.940 -43.006 -20.115  0.00  0.00    +0.022 A 
BRANCH  24  25
ATOM     25  C   UNL     1     -10.254 -45.395 -20.375  0.00  0.00    +0.002 A 
ATOM     26  C   UNL     1      -9.411 -46.482 -20.242  0.00  0.00    +0.168 A 
ATOM     27  N   UNL     1      -9.970 -47.493 -20.915  0.00  0.00    -0.215 N 
ATOM     28  H   UNL     1      -9.557 -48.434 -20.990  0.00  0.00    +0.261 HD
ATOM     29  N   UNL     1     -11.142 -47.134 -21.485  0.00  0.00    -0.215 NA
ATOM     30  C   UNL     1     -11.315 -45.860 -21.148  0.00  0.00    +0.075 A 
ENDBRANCH  24  25
BRANCH   3   2
ATOM      1  C   UNL     1     -12.489 -40.766 -20.942  0.00  0.00    +0.235 C 
ATOM      2  O   UNL     1     -11.620 -40.680 -19.816  0.00  0.00    -0.317 OA
ENDBRANCH   3   2
ENDBRANCH   5   4
TORSDOF 4
