REMARK  Name = SQS
REMARK  15 active torsions:
REMARK  status: ('A' for Active; 'I' for Inactive)
REMARK    1  A    between atoms: C4_1  and  C3_11
REMARK    2  A    between atoms: C5_2  and  C6_3
REMARK    3  A    between atoms: C6_3  and  C7_4
REMARK    4  A    between atoms: C7_4  and  C8_5
REMARK    5  A    between atoms: C8_5  and  C9_16
REMARK    6  A    between atoms: C10_6  and  C9_16
REMARK    7  A    between atoms: C10_6  and  C11_17
REMARK    8  A    between atoms: C13_7  and  C12_18
REMARK    9  A    between atoms: C13_7  and  C14_19
REMARK   10  A    between atoms: C15_8  and  C14_19
REMARK   11  A    between atoms: C15_8  and  C16_20
REMARK   12  A    between atoms: C17_9  and  C16_20
REMARK   13  A    between atoms: C3_11  and  C2_12
REMARK   14  A    between atoms: C2_12  and  C1_14
REMARK   15  A    between atoms: C11_17  and  C12_18
REMARK                            x       y       z     vdW  Elec       q    Type
REMARK                         _______ _______ _______ _____ _____    ______ ____
ROOT
ATOM      5  C   UNL     1      49.285  64.162   4.956  0.00  0.00    +0.000 C 
ENDROOT
BRANCH   5   4
ATOM      4  C   UNL     1      48.180  63.584   4.090  0.00  0.00    +0.005 C 
BRANCH   4   3
ATOM      3  C   UNL     1      48.571  63.509   2.621  0.00  0.00    +0.026 C 
BRANCH   3   2
ATOM      1  C   UNL     1      48.093  61.148   2.176  0.00  0.00    +0.003 C 
ATOM      2  C   UNL     1      49.013  62.107   2.277  0.00  0.00    -0.028 C 
BRANCH   1  16
ATOM     16  C   UNL     1      48.458  59.715   1.840  0.00  0.00    +0.194 C 
ATOM     17  O   UNL     1      47.248  58.936   1.701  0.00  0.00    -0.217 OA
BRANCH  16  18
ATOM     18  CA  UNL     1      49.346  59.638   0.582  0.00  0.00    +0.159 C 
ATOM     19  N   UNL     1      49.547  58.246   0.209  0.00  0.00    -0.127 NA
BRANCH  18  20
ATOM     20  C   UNL     1      48.810  60.412  -0.630  0.00  0.00    +0.204 C 
ATOM     21  O   UNL     1      49.906  60.899  -1.424  0.00  0.00    -0.219 OA
ENDBRANCH  18  20
ENDBRANCH  16  18
ENDBRANCH   1  16
ENDBRANCH   3   2
ENDBRANCH   4   3
ENDBRANCH   5   4
BRANCH   5   6
ATOM      6  C   UNL     1      48.789  64.393   6.378  0.00  0.00    +0.000 C 
BRANCH   6   7
ATOM      7  C   UNL     1      49.843  64.033   7.412  0.00  0.00    +0.000 C 
BRANCH   7   8
ATOM      8  C   UNL     1      49.395  64.499   8.795  0.00  0.00    +0.000 C 
BRANCH   8   9
ATOM      9  C   UNL     1      49.771  63.540   9.923  0.00  0.00    +0.000 C 
BRANCH   9  10
ATOM     10  C   UNL     1      50.736  64.153  10.940  0.00  0.00    +0.000 C 
BRANCH  10  11
ATOM     11  C   UNL     1      50.893  63.280  12.191  0.00  0.00    +0.000 C 
BRANCH  11  12
ATOM     12  C   UNL     1      52.187  62.455  12.239  0.00  0.00    +0.000 C 
BRANCH  12  13
ATOM     13  C   UNL     1      51.954  60.966  11.973  0.00  0.00    +0.000 C 
BRANCH  13  14
ATOM     14  C   UNL     1      53.127  60.314  11.244  0.00  0.00    +0.000 C 
ATOM     15  C   UNL     1      52.695  59.112  10.426  0.00  0.00    +0.000 C 
ENDBRANCH  13  14
ENDBRANCH  12  13
ENDBRANCH  11  12
ENDBRANCH  10  11
ENDBRANCH   9  10
ENDBRANCH   8   9
ENDBRANCH   7   8
ENDBRANCH   6   7
ENDBRANCH   5   6
TORSDOF 15
