REMARK  Name = 4afe_ligand
REMARK  12 active torsions:
REMARK  status: ('A' for Active; 'I' for Inactive)
REMARK    1  A    between atoms: C01_1  and  C02_2
REMARK    2  A    between atoms: C02_2  and  C03_3
REMARK    3  A    between atoms: C02_2  and  O09_9
REMARK    4  A    between atoms: C04_4  and  C05_5
REMARK    5  A    between atoms: O09_9  and  C10_10
REMARK    6  A    between atoms: C12_12  and  C13_13
REMARK    7  A    between atoms: C15_15  and  C16_16
REMARK    8  A    between atoms: C18_18  and  C19_19
REMARK    9  A    between atoms: C19_19  and  N20_20
REMARK   10  A    between atoms: N20_20  and  C21_21
REMARK   11  A    between atoms: N20_20  and  C22_22
REMARK   12  A    between atoms: C31_31  and  C32_32
REMARK                            x       y       z     vdW  Elec       q    Type
REMARK                         _______ _______ _______ _____ _____    ______ ____
ROOT
ATOM      4  C   UNL     1       3.356  -8.797  14.437  0.00  0.00    +0.119 A 
ATOM      5  C   UNL     1       4.728  -8.439  14.687  0.00  0.00    +0.077 A 
ATOM     11  C   UNL     1       5.457  -7.805  13.691  0.00  0.00    +0.013 A 
ATOM     12  C   UNL     1       4.874  -7.516  12.467  0.00  0.00    -0.008 A 
ATOM     13  C   UNL     1       3.510  -7.872  12.223  0.00  0.00    -0.021 A 
ATOM     32  C   UNL     1       2.776  -8.505  13.209  0.00  0.00    +0.033 A 
ENDROOT
BRANCH  13  14
ATOM     14  C   UNL     1       2.850  -7.553  10.859  0.00  0.00    +0.028 A 
ATOM     15  C   UNL     1       2.893  -6.271  10.336  0.00  0.00    +0.120 A 
ATOM     16  N   UNL     1       3.541  -5.215  11.033  0.00  0.00    -0.320 N 
ATOM     17  H   UNL     1       3.984  -5.395  11.934  0.00  0.00    +0.179 HD
ATOM     18  H   UNL     1       3.563  -4.277  10.632  0.00  0.00    +0.179 HD
ATOM     19  N   UNL     1       2.311  -6.004   9.138  0.00  0.00    -0.283 NA
ATOM     20  C   UNL     1       1.680  -6.966   8.428  0.00  0.00    +0.083 A 
ATOM     21  C   UNL     1       1.603  -8.264   8.896  0.00  0.00    +0.004 A 
ATOM     31  C   UNL     1       2.201  -8.577  10.144  0.00  0.00    +0.031 A 
BRANCH  21  22
ATOM     22  C   UNL     1       0.905  -9.317   8.106  0.00  0.00    +0.030 A 
ATOM     23  S   UNL     1       0.652 -10.954   8.559  0.00  0.00    -0.053 S 
ATOM     24  C   UNL     1      -0.196 -11.514   7.174  0.00  0.00    +0.044 A 
ATOM     25  C   UNL     1      -0.308 -10.396   6.287  0.00  0.00    -0.080 A 
ATOM     30  C   UNL     1       0.308  -9.176   6.814  0.00  0.00    -0.027 A 
BRANCH  25  26
ATOM     26  C   UNL     1      -1.006 -10.471   4.919  0.00  0.00    -0.063 C 
BRANCH  26  27
ATOM     27  N   UNL     1      -1.586  -9.234   4.382  0.00  0.00    +0.402 NA
ATOM     28  C   UNL     1      -2.957  -9.032   4.947  0.00  0.00    -0.129 C 
ATOM     29  C   UNL     1      -1.668  -9.312   2.934  0.00  0.00    -0.129 C 
ENDBRANCH  26  27
ENDBRANCH  25  26
ENDBRANCH  21  22
ENDBRANCH  13  14
BRANCH   5   6
ATOM      6  C   UNL     1       5.375  -8.746  16.008  0.00  0.00    +0.196 C 
ATOM      7  O   UNL     1       6.288  -8.065  16.415  0.00  0.00    -0.392 OA
ATOM      8  N   UNL     1       4.918  -9.869  16.831  0.00  0.00    -0.302 N 
ATOM      9  H   UNL     1       4.150 -10.458  16.509  0.00  0.00    +0.180 HD
ATOM     10  H   UNL     1       5.368 -10.062  17.726  0.00  0.00    +0.180 HD
ENDBRANCH   5   6
BRANCH   4   3
ATOM      3  O   UNL     1       2.589  -9.441  15.425  0.00  0.00    -0.277 OA
BRANCH   3   2
ATOM      1  C   UNL     1       0.734 -10.635  16.210  0.00  0.00    +0.089 C 
ATOM      2  C   UNL     1       1.638 -10.386  15.064  0.00  0.00    +0.264 C 
BRANCH   2  33
ATOM     33  C   UNL     1       2.287 -11.699  14.649  0.00  0.00    +0.181 C 
ATOM     34  C   UNL     1       1.654 -12.523  13.768  0.00  0.00    +0.066 C 
BRANCH  34  35
ATOM     35  C   UNL     1       0.335 -12.141  13.216  0.00  0.00    +0.341 C 
ATOM     36  F   UNL     1      -0.531 -11.968  14.216  0.00  0.00    -0.252 F 
ATOM     37  F   UNL     1       0.455 -10.992  12.522  0.00  0.00    -0.252 F 
ATOM     38  F   UNL     1      -0.113 -13.112  12.399  0.00  0.00    -0.252 F 
ENDBRANCH  34  35
ENDBRANCH   2  33
ENDBRANCH   3   2
ENDBRANCH   4   3
TORSDOF 9
