REMARK  Name = 2etk_ligand
REMARK  2 active torsions:
REMARK  status: ('A' for Active; 'I' for Inactive)
REMARK    1  A    between atoms: C5_7  and  S1_12
REMARK    2  A    between atoms: S1_12  and  N2_15
REMARK                            x       y       z     vdW  Elec       q    Type
REMARK                         _______ _______ _______ _____ _____    ______ ____
ROOT
ATOM      1  O   UNL     1      50.137  98.450  24.994  0.00  0.00    -0.393 OA
ATOM      2  C   UNL     1      50.238  99.581  25.521  0.00  0.00    +0.226 A 
ATOM      3  C   UNL     1      50.723  99.733  26.921  0.00  0.00    +0.050 A 
ATOM      4  C   UNL     1      51.089  98.644  27.709  0.00  0.00    +0.012 A 
ATOM      5  C   UNL     1      51.538  98.839  29.016  0.00  0.00    -0.009 A 
ATOM      6  C   UNL     1      51.642 100.112  29.584  0.00  0.00    +0.023 A 
ATOM      7  C   UNL     1      51.305 101.274  28.882  0.00  0.00    +0.106 A 
ATOM     20  C   UNL     1      50.815 101.110  27.476  0.00  0.00    -0.008 A 
ATOM     21  C   UNL     1      50.439 102.168  26.651  0.00  0.00    -0.017 A 
ATOM     22  C   UNL     1      49.994 101.920  25.348  0.00  0.00    +0.164 A 
ATOM     23  N   UNL     1      49.904 100.680  24.826  0.00  0.00    -0.225 N 
ATOM     24  H   UNL     1      49.577 100.575  23.887  0.00  0.00    +0.249 HD
ENDROOT
BRANCH   7   8
ATOM      8  S   UNL     1      51.440 102.712  29.583  0.00  0.00    +0.068 S 
ATOM     18  O   UNL     1      50.122 103.242  29.799  0.00  0.00    -0.151 OA
ATOM     19  O   UNL     1      52.150 103.612  28.719  0.00  0.00    -0.151 OA
BRANCH   8   9
ATOM      9  N   UNL     1      52.195 102.600  30.914  0.00  0.00    -0.230 NA
ATOM     10  C   UNL     1      51.467 102.351  32.162  0.00  0.00    +0.176 C 
ATOM     11  C   UNL     1      51.296 103.701  32.863  0.00  0.00    +0.150 C 
ATOM     12  N   UNL     1      52.473 104.142  33.600  0.00  0.00    +0.228 N 
ATOM     13  H   UNL     1      52.401 103.717  34.511  0.00  0.00    +0.201 HD
ATOM     14  H   UNL     1      52.383 105.142  33.687  0.00  0.00    +0.201 HD
ATOM     15  C   UNL     1      53.841 103.903  33.157  0.00  0.00    +0.131 C 
ATOM     16  C   UNL     1      54.023 104.018  31.642  0.00  0.00    +0.071 C 
ATOM     17  C   UNL     1      53.659 102.709  30.935  0.00  0.00    +0.131 C 
ENDBRANCH   8   9
ENDBRANCH   7   8
TORSDOF 2
