REMARK  Name = 6N7A
REMARK  4 active torsions:
REMARK  status: ('A' for Active; 'I' for Inactive)
REMARK    1  A    between atoms: C5_3  and  C7_6
REMARK    2  A    between atoms: C11_5  and  C10_9
REMARK    3  A    between atoms: C8_7  and  N3_15
REMARK    4  A    between atoms: C16_18  and  O1_19
REMARK                            x       y       z     vdW  Elec       q    Type
REMARK                         _______ _______ _______ _____ _____    ______ ____
ROOT
ATOM     14  C   UNL     1       7.115 -24.000  23.009  0.00  0.00    +0.100 C 
ATOM     15  C   UNL     1       6.876 -22.647  22.680  0.00  0.00    +0.100 C 
ATOM     16  N   UNL     1       7.906 -21.880  23.042  0.00  0.00    -0.350 NA
ATOM     17  N   UNL     1       8.787 -22.745  23.600  0.00  0.00    -0.200 NA
ATOM     18  C   UNL     1      10.055 -22.243  24.126  0.00  0.00    -0.050 C 
ATOM     28  C   UNL     1       8.350 -24.012  23.599  0.00  0.00    +0.000 C 
ENDROOT
BRANCH  15  19
ATOM     19  C   UNL     1       5.712 -22.012  22.034  0.00  0.00    +0.000 A 
ATOM     20  C   UNL     1       5.246 -22.433  20.778  0.00  0.00    +0.185 A 
ATOM     23  C   UNL     1       4.151 -21.817  20.184  0.00  0.00    -0.130 A 
ATOM     24  C   UNL     1       3.521 -20.758  20.819  0.00  0.00    -0.130 A 
ATOM     25  C   UNL     1       3.998 -20.325  22.037  0.00  0.00    +0.200 A 
ATOM     26 CL   UNL     1       3.186 -19.019  22.847  0.00  0.00    -0.200 Cl
ATOM     27  C   UNL     1       5.065 -20.938  22.660  0.00  0.00    -0.130 A 
BRANCH  20  21
ATOM     21  O   UNL     1       5.954 -23.455  20.207  0.00  0.00    -0.365 OA
ATOM     22  C   UNL     1       5.612 -23.846  18.863  0.00  0.00    +0.030 C 
ENDBRANCH  20  21
ENDBRANCH  15  19
BRANCH  14  13
ATOM     11  C   UNL     1       6.421 -26.361  23.168  0.00  0.00    +0.600 C 
ATOM     12  O   UNL     1       7.435 -26.743  23.760  0.00  0.00    -0.550 OA
ATOM     13  N   UNL     1       6.241 -25.062  22.769  0.00  0.00    -0.400 NA
BRANCH  11  10
ATOM      1  C   UNL     1       5.457 -28.657  23.101  0.00  0.00    +0.250 A 
ATOM      2  N   UNL     1       4.578 -29.616  22.758  0.00  0.00    -0.760 NA
ATOM      3  C   UNL     1       3.498 -29.260  22.056  0.00  0.00    +0.250 A 
ATOM      4  C   UNL     1       3.239 -27.942  21.695  0.00  0.00    +0.000 A 
ATOM      5  C   UNL     1       2.194 -27.247  20.983  0.00  0.00    +0.000 C 
ATOM      6  N   UNL     1       2.563 -25.958  20.971  0.00  0.00    -0.200 NA
ATOM      7  C   UNL     1       1.767 -24.846  20.451  0.00  0.00    -0.050 C 
ATOM      8  N   UNL     1       3.742 -25.718  21.609  0.00  0.00    -0.300 NA
ATOM      9  C   UNL     1       4.164 -26.924  22.053  0.00  0.00    +0.050 A 
ATOM     10  C   UNL     1       5.322 -27.306  22.781  0.00  0.00    +0.000 A 
ENDBRANCH  11  10
ENDBRANCH  14  13
TORSDOF 4
