REMARK  Name = 4rj7_ligand
REMARK  9 active torsions:
REMARK  status: ('A' for Active; 'I' for Inactive)
REMARK    1  A    between atoms: C4_1  and  N14_13
REMARK    2  A    between atoms: C11_3  and  C9_4
REMARK    3  A    between atoms: C9_4  and  C12_5
REMARK    4  A    between atoms: C9_4  and  N8_11
REMARK    5  A    between atoms: C12_5  and  O13_12
REMARK    6  A    between atoms: C1_7  and  C2_8
REMARK    7  A    between atoms: N14_13  and  C15_14
REMARK    8  A    between atoms: C17_16  and  N21_20
REMARK    9  A    between atoms: C22_21  and  C24_23
REMARK                            x       y       z     vdW  Elec       q    Type
REMARK                         _______ _______ _______ _____ _____    ______ ____
ROOT
ATOM      4  C   UNK A   0     -53.923   1.441 -21.145  0.00  0.00    +0.119 A 
ATOM      5  N   UNK A   0     -54.798   2.107 -21.917  0.00  0.00    -0.302 NA
ATOM      6  C   UNK A   0     -54.914   1.891 -23.232  0.00  0.00    +0.056 A 
ATOM      7  C   UNK A   0     -54.082   0.975 -23.861  0.00  0.00    +0.025 A 
ATOM      8  C   UNK A   0     -53.146   0.232 -23.095  0.00  0.00    +0.076 A 
ATOM     21  C   UNK A   0     -53.101   0.472 -21.720  0.00  0.00    +0.057 A 
ENDROOT
BRANCH   8   9
ATOM      9  N   UNK A   0     -52.298  -0.787 -23.581  0.00  0.00    -0.227 N 
ATOM     10  H   UNK A   0     -51.567  -1.096 -22.973  0.00  0.00    +0.230 HD
ATOM     11  C   UNK A   0     -52.382  -1.384 -24.792  0.00  0.00    +0.236 C 
ATOM     20  O   UNK A   0     -53.196  -1.018 -25.645  0.00  0.00    -0.371 OA
BRANCH  11  12
ATOM     12  C   UNK A   0     -51.484  -2.499 -25.180  0.00  0.00    +0.084 A 
ATOM     13  C   UNK A   0     -51.835  -3.839 -24.920  0.00  0.00    +0.061 A 
ATOM     14 CL   UNK A   0     -53.187  -4.220 -23.914  0.00  0.00    -0.065 Cl
ATOM     15  C   UNK A   0     -51.073  -4.879 -25.425  0.00  0.00    +0.021 A 
ATOM     16  C   UNK A   0     -49.970  -4.601 -26.222  0.00  0.00    +0.008 A 
ATOM     17  C   UNK A   0     -49.627  -3.285 -26.516  0.00  0.00    +0.021 A 
ATOM     18  C   UNK A   0     -50.388  -2.238 -26.015  0.00  0.00    +0.061 A 
ATOM     19 CL   UNK A   0     -49.957  -0.595 -26.352  0.00  0.00    -0.065 Cl
ENDBRANCH  11  12
ENDBRANCH   8   9
BRANCH   4   2
ATOM      2  N   UNK A   0     -53.908   1.682 -19.762  0.00  0.00    -0.248 N 
ATOM      3  H   UNK A   0     -54.678   2.260 -19.395  0.00  0.00    +0.219 HD
BRANCH   2   1
ATOM      1  C   UNK A   0     -52.973   1.232 -18.822  0.00  0.00    +0.127 A 
ATOM     22  N   UNK A   0     -51.941   0.453 -19.176  0.00  0.00    -0.247 NA
ATOM     23  C   UNK A   0     -51.012   0.060 -18.311  0.00  0.00    +0.166 A 
ATOM     24  N   ALA A   1     -49.947  -0.733 -18.731  0.00  0.00    -0.289 N 
ATOM     25  H   ALA A   1     -49.319  -1.128 -18.017  0.00  0.00    +0.186 HD
ATOM     31  N   UNK A   0     -51.110   0.399 -17.025  0.00  0.00    -0.274 NA
ATOM     32  C   UNK A   0     -52.112   1.164 -16.574  0.00  0.00    +0.014 A 
ATOM     33  C   UNK A   0     -52.169   1.531 -15.110  0.00  0.00    +0.115 C 
ATOM     34  C   UNK A   0     -53.079   1.632 -17.472  0.00  0.00    +0.048 A 
BRANCH  24  26
ATOM     26  CA  ALA A   1     -49.677  -1.033 -20.145  0.00  0.00    +0.120 C 
ATOM     30  CB  ALA A   1     -48.175  -1.194 -20.339  0.00  0.00    +0.036 C 
BRANCH  26  27
ATOM     27  C   ALA A   1     -50.377  -2.340 -20.556  0.00  0.00    +0.183 C 
BRANCH  27  28
ATOM     28  O   ALA A   1     -50.668  -2.333 -21.965  0.00  0.00    -0.393 OA
ATOM     29  H   ALA A   1     -51.099  -3.146 -22.202  0.00  0.00    +0.209 HD
ENDBRANCH  27  28
ENDBRANCH  26  27
ENDBRANCH  24  26
ENDBRANCH   2   1
ENDBRANCH   4   2
TORSDOF 7
