REMARK  Name = 5N68
REMARK  6 active torsions:
REMARK  status: ('A' for Active; 'I' for Inactive)
REMARK    1  A    between atoms: C_3  and  N_24
REMARK    2  A    between atoms: N_11  and  C_12
REMARK    3  A    between atoms: C_20  and  N_21
REMARK    4  A    between atoms: N_24  and  C_25
REMARK    5  A    between atoms: C_25  and  C_26
REMARK    6  A    between atoms: C_26  and  C_27
REMARK                            x       y       z     vdW  Elec       q    Type
REMARK                         _______ _______ _______ _____ _____    ______ ____
ROOT
ATOM      1  C   UNL     1     -24.520 -15.767   8.269  0.00  0.00    +0.053 A 
ATOM      2  C   UNL     1     -24.920 -15.217   7.052  0.00  0.00    +0.049 A 
ATOM      3  C   UNL     1     -25.465 -13.939   6.982  0.00  0.00    +0.026 A 
ATOM      4  C   UNL     1     -25.630 -13.169   8.144  0.00  0.00    +0.023 A 
ATOM      5  C   UNL     1     -25.222 -13.723   9.367  0.00  0.00    +0.015 A 
ATOM      9  N   UNL     1     -24.007 -17.022   8.356  0.00  0.00    -0.339 N 
ATOM     10  H   UNL     1     -23.908 -17.603   7.463  0.00  0.00    +0.167 HD
ATOM     11  C   UNL     1     -23.619 -17.560   9.527  0.00  0.00    +0.141 A 
ATOM     12  C   UNL     1     -23.002 -18.811   9.589  0.00  0.00    +0.017 C 
ATOM     13  C   UNL     1     -22.753 -19.517   8.423  0.00  0.00    +0.009 C 
ATOM     14  C   UNL     1     -22.065 -20.724   8.460  0.00  0.00    +0.002 C 
ATOM     15  C   UNL     1     -21.646 -21.270   9.668  0.00  0.00    +0.085 C 
ATOM     16  C   UNL     1     -21.853 -20.539  10.841  0.00  0.00    +0.002 C 
ATOM     23  C   UNL     1     -22.537 -19.329  10.794  0.00  0.00    +0.009 C 
ATOM     24  N   UNL     1     -23.761 -16.849  10.645  0.00  0.00    -0.214 NA
ATOM     25  C   UNL     1     -24.233 -15.606  10.605  0.00  0.00    +0.130 A 
ATOM     36  C   UNL     1     -24.681 -15.022   9.419  0.00  0.00    +0.038 A 
ENDROOT
BRANCH  15  17
ATOM     17  N   UNL     1     -20.969 -22.439   9.675  0.00  0.00    -0.284 NA
ATOM     18  C   UNL     1     -20.135 -22.905  10.791  0.00  0.00    +0.113 C 
ATOM     19  C   UNL     1     -20.263 -24.413  10.950  0.00  0.00    +0.175 C 
ATOM     20  O   UNL     1     -19.851 -25.132   9.752  0.00  0.00    -0.377 OA
ATOM     21  C   UNL     1     -20.742 -24.669   8.706  0.00  0.00    +0.175 C 
ATOM     22  C   UNL     1     -20.643 -23.176   8.455  0.00  0.00    +0.113 C 
ENDBRANCH  15  17
BRANCH   3   6
ATOM      6  N   UNL     1     -25.855 -13.464   5.792  0.00  0.00    -0.358 N 
ATOM      7  H   UNL     1     -26.248 -12.548   5.723  0.00  0.00    +0.142 HD
ATOM      8  H   UNL     1     -25.752 -14.027   4.971  0.00  0.00    +0.142 HD
ENDBRANCH   3   6
BRANCH  25  26
ATOM     26  N   UNL     1     -24.430 -14.942  11.734  0.00  0.00    -0.328 N 
ATOM     27  H   UNL     1     -24.784 -14.008  11.785  0.00  0.00    +0.147 HD
BRANCH  26  28
ATOM     28  C   UNL     1     -24.123 -15.580  13.022  0.00  0.00    +0.107 C 
BRANCH  28  29
ATOM     29  C   UNL     1     -25.480 -15.604  13.722  0.00  0.00    +0.054 C 
BRANCH  29  30
ATOM     30  C   UNL     1     -25.466 -16.193  14.988  0.00  0.00    -0.046 A 
ATOM     31  C   UNL     1     -26.642 -16.764  15.459  0.00  0.00    +0.003 A 
ATOM     32  C   UNL     1     -26.694 -17.364  16.713  0.00  0.00    +0.000 A 
ATOM     33  C   UNL     1     -25.548 -17.380  17.493  0.00  0.00    +0.000 A 
ATOM     34  C   UNL     1     -24.369 -16.806  17.024  0.00  0.00    +0.000 A 
ATOM     35  C   UNL     1     -24.319 -16.207  15.769  0.00  0.00    +0.003 A 
ENDBRANCH  29  30
ENDBRANCH  28  29
ENDBRANCH  26  28
ENDBRANCH  25  26
TORSDOF 6
