REMARK  Name = 4rj3_ligand
REMARK  4 active torsions:
REMARK  status: ('A' for Active; 'I' for Inactive)
REMARK    1  A    between atoms: C3_9  and  O2_11
REMARK    2  A    between atoms: C1_10  and  O2_11
REMARK    3  A    between atoms: N15_15  and  C16_16
REMARK    4  A    between atoms: N22_22  and  C23_23
REMARK                            x       y       z     vdW  Elec       q    Type
REMARK                         _______ _______ _______ _____ _____    ______ ____
ROOT
ATOM      1  C   UNL     1      -2.345 -22.617  45.486  0.00  0.00    +0.056 C 
ATOM      2  C   UNL     1      -1.438 -23.200  46.582  0.00  0.00    +0.122 C 
ATOM      5  C   UNL     1      -1.065 -24.643  46.210  0.00  0.00    +0.056 C 
ATOM      6  C   UNL     1      -2.346 -25.470  46.329  0.00  0.00    +0.141 C 
ATOM      7  N   UNL     1      -3.392 -24.918  45.435  0.00  0.00    -0.278 N 
ATOM      8  C   UNL     1      -3.754 -25.661  44.316  0.00  0.00    +0.177 A 
ATOM      9  N   UNL     1      -3.145 -26.820  44.021  0.00  0.00    -0.238 NA
ATOM     10  C   UNL     1      -3.518 -27.533  42.944  0.00  0.00    +0.134 A 
ATOM     11  N   UNL     1      -2.943 -28.748  42.573  0.00  0.00    -0.249 N 
ATOM     12  H   UNL     1      -3.356 -29.216  41.754  0.00  0.00    +0.217 HD
ATOM     27  C   UNL     1      -4.548 -27.044  42.130  0.00  0.00    +0.056 A 
ATOM     28  C   UNL     1      -5.152 -25.838  42.466  0.00  0.00    +0.085 A 
ATOM     29  N   UNL     1      -4.731 -25.182  43.550  0.00  0.00    -0.273 NA
ATOM     30  C   UNL     1      -3.638 -23.451  45.401  0.00  0.00    +0.141 C 
ENDROOT
BRANCH  11  13
ATOM     13  C   UNL     1      -1.869 -29.406  43.185  0.00  0.00    +0.120 A 
ATOM     14  N   UNL     1      -1.678 -30.683  42.847  0.00  0.00    -0.296 NA
ATOM     15  C   UNL     1      -0.689 -31.406  43.365  0.00  0.00    +0.063 A 
ATOM     16  C   UNL     1       0.198 -30.837  44.288  0.00  0.00    -0.010 A 
ATOM     17  C   UNL     1       1.359 -31.315  45.045  0.00  0.00    -0.033 A 
ATOM     18  C   UNL     1       1.788 -30.292  45.796  0.00  0.00    +0.117 A 
ATOM     19  N   UNL     1       1.007 -29.176  45.581  0.00  0.00    -0.260 N 
ATOM     25  C   UNL     1       0.020 -29.484  44.672  0.00  0.00    +0.074 A 
ATOM     26  C   UNL     1      -1.025 -28.774  44.102  0.00  0.00    +0.057 A 
BRANCH  19  20
ATOM     20  C   UNL     1       1.142 -27.871  46.245  0.00  0.00    +0.128 C 
ATOM     21  C   UNL     1       2.579 -27.504  46.641  0.00  0.00    +0.035 C 
ATOM     22  C   UNL     1       2.359 -26.412  47.714  0.00  0.00    +0.003 C 
ATOM     23  C   UNL     1       1.199 -26.994  48.574  0.00  0.00    +0.003 C 
ATOM     24  C   UNL     1       0.430 -27.955  47.623  0.00  0.00    +0.035 C 
ENDBRANCH  19  20
ENDBRANCH  11  13
BRANCH   2   3
ATOM      3  O   UNL     1      -0.258 -22.411  46.763  0.00  0.00    -0.380 OA
ATOM      4  C   UNL     1       0.214 -22.392  48.114  0.00  0.00    +0.194 C 
ENDBRANCH   2   3
TORSDOF 3
