REMARK  Name = 5ANL
REMARK  8 active torsions:
REMARK  status: ('A' for Active; 'I' for Inactive)
REMARK    1  A    between atoms: C_4  and  N_10
REMARK    2  A    between atoms: N_5  and  C_18
REMARK    3  A    between atoms: C_8  and  C_9
REMARK    4  A    between atoms: C_18  and  C_21
REMARK    5  A    between atoms: C_21  and  O_22
REMARK    6  A    between atoms: O_22  and  C_25
REMARK    7  A    between atoms: C_25  and  C_26
REMARK    8  A    between atoms: C_25  and  C_27
REMARK                            x       y       z     vdW  Elec       q    Type
REMARK                         _______ _______ _______ _____ _____    ______ ____
ROOT
ATOM      1  C   UNL     1      25.313 -16.290  22.957  0.00  0.00    +0.203 C 
ATOM      2  N   UNL     1      23.969 -16.378  23.209  0.00  0.00    -0.287 N 
ATOM      9  C   UNL     1      23.282 -17.606  23.648  0.00  0.00    +0.182 C 
ATOM     10  C   UNL     1      24.006 -18.858  23.175  0.00  0.00    +0.053 C 
ATOM     11  C   UNL     1      25.510 -18.745  23.417  0.00  0.00    +0.130 C 
ATOM     16  N   UNL     1      26.080 -17.430  23.070  0.00  0.00    -0.281 N 
ATOM     17  C   UNL     1      27.470 -17.382  22.865  0.00  0.00    +0.257 C 
ATOM     18  O   UNL     1      28.157 -18.405  22.996  0.00  0.00    -0.268 OA
ATOM     19  C   UNL     1      27.969 -16.124  22.527  0.00  0.00    +0.114 C 
ATOM     20  C   UNL     1      27.135 -15.024  22.423  0.00  0.00    +0.130 C 
ATOM     27  N   UNL     1      25.798 -15.098  22.654  0.00  0.00    -0.201 NA
ENDROOT
BRANCH  20  21
ATOM     21  N   UNL     1      27.578 -13.800  22.009  0.00  0.00    -0.311 N 
ATOM     22  C   UNL     1      26.669 -12.654  21.949  0.00  0.00    +0.134 C 
ATOM     23  C   UNL     1      27.212 -11.617  21.002  0.00  0.00    +0.178 C 
ATOM     24  O   UNL     1      28.546 -11.235  21.332  0.00  0.00    -0.377 OA
ATOM     25  C   UNL     1      29.419 -12.371  21.325  0.00  0.00    +0.178 C 
ATOM     26  C   UNL     1      28.970 -13.417  22.293  0.00  0.00    +0.134 C 
ENDBRANCH  20  21
BRANCH   9  12
ATOM     12  C   UNL     1      23.146 -17.542  25.155  0.00  0.00    +0.408 C 
ATOM     13  F   UNL     1      22.478 -18.581  25.665  0.00  0.00    -0.169 F 
ATOM     14  F   UNL     1      22.500 -16.437  25.531  0.00  0.00    -0.169 F 
ATOM     15  F   UNL     1      24.333 -17.523  25.754  0.00  0.00    -0.169 F 
ENDBRANCH   9  12
BRANCH   2   3
ATOM      3  C   UNL     1      23.091 -15.229  23.007  0.00  0.00    +0.136 C 
BRANCH   3   4
ATOM      4  C   UNL     1      22.227 -15.608  21.843  0.00  0.00    +0.179 C 
BRANCH   4   5
ATOM      5  O   UNL     1      22.394 -14.468  21.005  0.00  0.00    -0.376 OA
BRANCH   5   6
ATOM      6  C   UNL     1      21.361 -13.509  21.063  0.00  0.00    +0.112 C 
ATOM      7  C   UNL     1      21.964 -12.151  20.711  0.00  0.00    +0.037 C 
ATOM      8  C   UNL     1      20.365 -14.070  20.056  0.00  0.00    +0.037 C 
ENDBRANCH   5   6
ENDBRANCH   4   5
ENDBRANCH   3   4
ENDBRANCH   2   3
TORSDOF 6
