REMARK  Name = 3FLS
REMARK  8 active torsions:
REMARK  status: ('A' for Active; 'I' for Inactive)
REMARK    1  A    between atoms: C_1  and  C_2
REMARK    2  A    between atoms: C_1  and  C_3
REMARK    3  A    between atoms: C_1  and  N_10
REMARK    4  A    between atoms: C_3  and  S_8
REMARK    5  A    between atoms: C_4  and  S_8
REMARK    6  A    between atoms: C_6  and  O_21
REMARK    7  A    between atoms: N_14  and  C_15
REMARK    8  A    between atoms: O_21  and  C_22
REMARK                            x       y       z     vdW  Elec       q    Type
REMARK                         _______ _______ _______ _____ _____    ______ ____
ROOT
ATOM      2  N   UNL     1      25.115   6.710  30.714  0.00  0.00    -0.309 N 
ATOM      3  H   UNL     1      25.203   5.644  30.675  0.00  0.00    +0.149 HD
ATOM      4  C   UNL     1      23.883   7.272  30.663  0.00  0.00    +0.217 A 
ATOM      5  N   UNL     1      22.774   6.538  30.360  0.00  0.00    -0.222 NA
ATOM      6  C   UNL     1      21.558   7.115  30.301  0.00  0.00    +0.126 A 
ATOM      7  C   UNL     1      21.421   8.477  30.565  0.00  0.00    +0.039 A 
ATOM      8  C   UNL     1      20.138   9.148  30.527  0.00  0.00    +0.065 C 
ATOM      9  C   UNL     1      20.058  10.485  30.806  0.00  0.00    +0.193 C 
ATOM     19  C   UNL     1      21.208  11.204  31.120  0.00  0.00    +0.295 C 
ATOM     20  O   UNL     1      21.138  12.425  31.365  0.00  0.00    -0.264 OA
ATOM     21  N   UNL     1      22.465  10.586  31.158  0.00  0.00    -0.293 N 
ATOM     22  C   UNL     1      23.663  11.374  31.488  0.00  0.00    +0.154 C 
ATOM     23  C   UNL     1      22.562   9.207  30.880  0.00  0.00    +0.148 A 
ATOM     24  N   UNL     1      23.769   8.592  30.924  0.00  0.00    -0.196 NA
ENDROOT
BRANCH   2   1
ATOM      1  C   UNL     1      26.325   7.517  30.821  0.00  0.00    +0.091 C 
ATOM     30  C   UNL     1      26.809   7.926  29.434  0.00  0.00    +0.029 C 
BRANCH   1  25
ATOM     25  C   UNL     1      27.449   6.741  31.501  0.00  0.00    +0.187 C 
BRANCH  25  26
ATOM     26  S   UNL     1      27.223   6.463  33.127  0.00  0.00    -0.032 S 
ATOM     27  O   UNL     1      28.539   6.423  33.709  0.00  0.00    -0.175 OA
ATOM     28  O   UNL     1      26.466   7.494  33.786  0.00  0.00    -0.175 OA
ATOM     29  C   UNL     1      26.458   5.004  33.365  0.00  0.00    +0.194 C 
ENDBRANCH  25  26
ENDBRANCH   1  25
ENDBRANCH   2   1
BRANCH   9  10
ATOM     10  O   UNL     1      18.868  11.183  30.801  0.00  0.00    -0.448 OA
BRANCH  10  11
ATOM     11  C   UNL     1      17.624  10.639  30.650  0.00  0.00    +0.164 A 
ATOM     12  C   UNL     1      16.887  10.981  29.518  0.00  0.00    +0.052 A 
ATOM     13  C   UNL     1      15.626  10.433  29.342  0.00  0.00    +0.042 A 
ATOM     14  C   UNL     1      15.092   9.570  30.298  0.00  0.00    +0.126 A 
ATOM     15  F   UNL     1      13.872   9.071  30.081  0.00  0.00    -0.205 F 
ATOM     16  C   UNL     1      15.823   9.229  31.443  0.00  0.00    +0.080 A 
ATOM     17  C   UNL     1      17.099   9.779  31.611  0.00  0.00    +0.168 A 
ATOM     18  F   UNL     1      17.841   9.492  32.691  0.00  0.00    -0.202 F 
ENDBRANCH  10  11
ENDBRANCH   9  10
TORSDOF 5
