REMARK  Name = 4ps3_ligand
REMARK  9 active torsions:
REMARK  status: ('A' for Active; 'I' for Inactive)
REMARK    1  A    between atoms: C1_1  and  C2_2
REMARK    2  A    between atoms: C2_2  and  C3_3
REMARK    3  A    between atoms: C3_3  and  N4_4
REMARK    4  A    between atoms: C6_6  and  C9_9
REMARK    5  A    between atoms: C9_9  and  C10_10
REMARK    6  A    between atoms: C10_10  and  N11_11
REMARK    7  A    between atoms: C20_20  and  C24_24
REMARK    8  A    between atoms: C26_26  and  O30_30
REMARK    9  A    between atoms: O30_30  and  C31_31
REMARK                            x       y       z     vdW  Elec       q    Type
REMARK                         _______ _______ _______ _____ _____    ______ ____
ROOT
ATOM     10  N   UNL     1      14.648  62.616  24.056  0.00  0.00    -0.264 N 
ATOM     11  H   UNL     1      14.323  62.083  24.837  0.00  0.00    +0.186 HD
ATOM     12  C   UNL     1      15.932  62.522  23.681  0.00  0.00    +0.303 C 
ATOM     13  N   UNL     1      16.745  61.667  24.356  0.00  0.00    -0.174 N 
ATOM     14  H   UNL     1      16.381  61.165  25.141  0.00  0.00    +0.246 HD
ATOM     15  C   UNL     1      18.067  61.473  23.983  0.00  0.00    +0.213 A 
ATOM     16  S   UNL     1      18.912  62.428  22.768  0.00  0.00    +0.031 S 
ATOM     17  C   UNL     1      20.347  61.454  22.995  0.00  0.00    +0.050 A 
ATOM     18  C   UNL     1      21.578  61.578  22.374  0.00  0.00    +0.013 A 
ATOM     19  C   UNL     1      22.583  60.718  22.720  0.00  0.00    -0.027 A 
ATOM     28  C   UNL     1      22.311  59.720  23.671  0.00  0.00    -0.010 A 
ATOM     29  C   UNL     1      21.101  59.568  24.276  0.00  0.00    -0.009 A 
ATOM     30  C   UNL     1      20.075  60.459  23.945  0.00  0.00    +0.009 A 
ATOM     31  N   UNL     1      18.820  60.522  24.420  0.00  0.00    -0.308 NA
ATOM     32  O   UNL     1      16.328  63.206  22.745  0.00  0.00    -0.385 OA
ENDROOT
BRANCH  19  20
ATOM     20  C   UNL     1      23.897  60.843  22.055  0.00  0.00    -0.007 A 
ATOM     21  C   UNL     1      25.048  60.249  22.600  0.00  0.00    +0.077 A 
ATOM     22  N   UNL     1      26.235  60.339  21.992  0.00  0.00    -0.308 NA
ATOM     23  C   UNL     1      26.402  60.980  20.846  0.00  0.00    +0.111 A 
ATOM     24  C   UNL     1      25.309  61.599  20.234  0.00  0.00    +0.117 A 
ATOM     27  C   UNL     1      24.030  61.536  20.839  0.00  0.00    +0.055 A 
BRANCH  24  25
ATOM     25  O   UNL     1      25.515  62.256  19.057  0.00  0.00    -0.314 OA
ATOM     26  C   UNL     1      24.523  62.123  18.038  0.00  0.00    +0.235 C 
ENDBRANCH  24  25
ENDBRANCH  19  20
BRANCH  10   9
ATOM      9  C   UNL     1      13.719  63.484  23.341  0.00  0.00    +0.145 C 
BRANCH   9   8
ATOM      8  C   UNL     1      12.359  63.221  23.978  0.00  0.00    +0.072 C 
BRANCH   8   7
ATOM      4  N   UNL     1      11.363  60.226  22.206  0.00  0.00    -0.261 N 
ATOM      5  C   UNL     1      10.687  60.078  23.370  0.00  0.00    +0.213 A 
ATOM      6  N   UNL     1      10.960  61.114  24.125  0.00  0.00    -0.325 NA
ATOM      7  C   UNL     1      11.811  61.927  23.456  0.00  0.00    -0.005 A 
ATOM     33  C   UNL     1      12.076  61.397  22.246  0.00  0.00    +0.105 A 
BRANCH   4   3
ATOM      3  C   UNL     1      11.341  59.310  21.082  0.00  0.00    +0.179 C 
BRANCH   3   2
ATOM      1  C   UNL     1      12.937  57.656  22.170  0.00  0.00    +0.007 C 
ATOM      2  C   UNL     1      11.555  57.882  21.552  0.00  0.00    +0.030 C 
ENDBRANCH   3   2
ENDBRANCH   4   3
ENDBRANCH   8   7
ENDBRANCH   9   8
ENDBRANCH  10   9
TORSDOF 7
