REMARK  Name = 3faa_ligand
REMARK  4 active torsions:
REMARK  status: ('A' for Active; 'I' for Inactive)
REMARK    1  A    between atoms: C9_9  and  C11_11
REMARK    2  A    between atoms: C12_12  and  C16_16
REMARK    3  A    between atoms: C20_20  and  C23_23
REMARK    4  A    between atoms: C25_25  and  C27_27
REMARK                            x       y       z     vdW  Elec       q    Type
REMARK                         _______ _______ _______ _____ _____    ______ ____
ROOT
ATOM      6  C   UNL     1      76.078  26.004  91.494  0.00  0.00    +0.025 A 
ATOM      7  N   UNL     1      76.361  25.136  90.465  0.00  0.00    -0.308 NA
ATOM      8  C   UNL     1      76.934  25.829  89.434  0.00  0.00    +0.243 A 
ATOM      9  N   UNL     1      77.323  25.205  88.269  0.00  0.00    -0.188 N 
ATOM     10  H   UNL     1      77.270  25.716  87.411  0.00  0.00    +0.238 HD
ATOM     11  C   UNL     1      77.787  23.893  88.235  0.00  0.00    +0.210 C 
ATOM     12  C   UNL     1      78.142  23.472  86.830  0.00  0.00    +0.175 C 
ATOM     13  O   UNL     1      77.924  23.101  89.174  0.00  0.00    -0.382 OA
ATOM     14  N   UNL     1      77.034  27.088  89.745  0.00  0.00    -0.229 N 
ATOM     15  H   UNL     1      77.427  27.832  89.152  0.00  0.00    +0.235 HD
ATOM     16  C   UNL     1      76.518  27.244  91.012  0.00  0.00    +0.095 A 
ENDROOT
BRANCH   6   5
ATOM      1  C   UNL     1      75.070  22.124  96.095  0.00  0.00    +0.134 A 
ATOM      2  N   UNL     1      75.678  22.566  94.945  0.00  0.00    -0.274 NA
ATOM      3  C   UNL     1      75.276  23.768  94.443  0.00  0.00    +0.069 A 
ATOM      4  C   UNL     1      75.862  24.270  93.265  0.00  0.00    +0.030 A 
ATOM      5  C   UNL     1      75.457  25.519  92.719  0.00  0.00    -0.016 A 
ATOM     25  C   UNL     1      74.439  26.272  93.387  0.00  0.00    +0.020 A 
ATOM     26  C   UNL     1      73.842  25.779  94.577  0.00  0.00    +0.036 A 
ATOM     27  C   UNL     1      74.238  24.544  95.116  0.00  0.00    +0.072 A 
ATOM     28  N   UNL     1      73.651  24.083  96.255  0.00  0.00    -0.272 NA
ATOM     29  C   UNL     1      74.074  22.871  96.735  0.00  0.00    +0.134 A 
ENDBRANCH   6   5
BRANCH  16  17
ATOM     17  C   UNL     1      76.502  28.570  91.641  0.00  0.00    +0.053 A 
ATOM     18  N   UNL     1      76.221  29.649  90.839  0.00  0.00    -0.303 NA
ATOM     19  C   UNL     1      76.209  30.908  91.415  0.00  0.00    +0.051 A 
ATOM     20  C   UNL     1      75.902  32.080  90.530  0.00  0.00    +0.108 C 
ATOM     21  C   UNL     1      76.469  31.105  92.781  0.00  0.00    +0.156 A 
ATOM     22  F   UNL     1      76.449  32.319  93.317  0.00  0.00    -0.183 F 
ATOM     23  C   UNL     1      76.757  30.005  93.584  0.00  0.00    +0.049 A 
ATOM     24  C   UNL     1      76.776  28.725  93.020  0.00  0.00    +0.021 A 
ENDBRANCH  16  17
TORSDOF 2
