REMARK  Name = 3iw6_ligand
REMARK  11 active torsions:
REMARK  status: ('A' for Active; 'I' for Inactive)
REMARK    1  A    between atoms: CAA_1  and  CAL_12
REMARK    2  A    between atoms: CAB_2  and  CAM_13
REMARK    3  A    between atoms: CAC_3  and  CAW_23
REMARK    4  A    between atoms: CAD_4  and  CAX_24
REMARK    5  A    between atoms: CAL_12  and  OAS_19
REMARK    6  A    between atoms: CAM_13  and  NBC_29
REMARK    7  A    between atoms: CAR_18  and  CAV_22
REMARK    8  A    between atoms: CAR_18  and  NBA_27
REMARK    9  A    between atoms: OAS_19  and  CAT_20
REMARK   10  A    between atoms: CAT_20  and  CAZ_26
REMARK   11  A    between atoms: CAU_21  and  CAY_25
REMARK                            x       y       z     vdW  Elec       q    Type
REMARK                         _______ _______ _______ _____ _____    ______ ____
ROOT
ATOM      9  C   UNL     1     -19.113  -2.175   6.347  0.00  0.00    +0.175 C 
ATOM     10  N   UNL     1     -18.301  -2.180   5.270  0.00  0.00    -0.269 N 
ATOM     11  C   UNL     1     -16.856  -2.426   5.438  0.00  0.00    +0.187 C 
ATOM     12  C   UNL     1     -16.536  -3.628   4.598  0.00  0.00    +0.157 C 
ATOM     13  N   UNL     1     -16.909  -3.418   3.182  0.00  0.00    +0.250 N 
ATOM     14  H   UNL     1     -16.339  -2.685   2.790  0.00  0.00    +0.205 HD
ATOM     22  C   UNL     1     -18.353  -3.108   2.983  0.00  0.00    +0.157 C 
ATOM     23  C   UNL     1     -18.791  -1.962   3.894  0.00  0.00    +0.187 C 
ATOM     24  O   UNL     1     -18.656  -2.379   7.465  0.00  0.00    -0.406 OA
ENDROOT
BRANCH   9   8
ATOM      5  C   UNL     1     -22.608  -1.035   5.857  0.00  0.00    +0.130 A 
ATOM      6  N   UNL     1     -22.788  -2.301   6.244  0.00  0.00    -0.260 N 
ATOM      7  C   UNL     1     -21.614  -2.859   6.469  0.00  0.00    +0.066 A 
ATOM      8  C   UNL     1     -20.611  -1.938   6.211  0.00  0.00    +0.045 A 
ATOM     25  C   UNL     1     -21.438  -4.295   6.929  0.00  0.00    +0.133 C 
ATOM     28  C   UNL     1     -21.236  -0.774   5.819  0.00  0.00    -0.033 A 
ATOM     29  C   UNL     1     -20.520   0.516   5.420  0.00  0.00    +0.062 C 
BRANCH   5   4
ATOM      4  C   UNL     1     -23.751  -0.090   5.480  0.00  0.00    +0.258 C 
ATOM     30  O   UNL     1     -23.506   0.979   4.915  0.00  0.00    -0.377 OA
BRANCH   4   3
ATOM      3  O   UNL     1     -25.043  -0.483   5.738  0.00  0.00    -0.283 OA
BRANCH   3   2
ATOM      1  C   UNL     1     -27.376   0.205   6.216  0.00  0.00    +0.039 C 
ATOM      2  C   UNL     1     -26.130   0.404   5.319  0.00  0.00    +0.193 C 
ENDBRANCH   3   2
ENDBRANCH   4   3
ENDBRANCH   5   4
BRANCH   6  26
ATOM     26  C   UNL     1     -24.079  -2.987   6.426  0.00  0.00    +0.172 C 
ATOM     27  C   UNL     1     -24.635  -3.552   5.089  0.00  0.00    +0.040 C 
ENDBRANCH   6  26
ENDBRANCH   9   8
BRANCH  13  15
ATOM     15  C   UNL     1     -16.711  -4.687   2.471  0.00  0.00    +0.198 C 
BRANCH  15  16
ATOM     16  C   UNL     1     -15.238  -5.153   2.441  0.00  0.00    +0.001 A 
ATOM     17  C   UNL     1     -14.239  -4.326   1.925  0.00  0.00    +0.001 A 
ATOM     18  C   UNL     1     -12.913  -4.789   1.895  0.00  0.00    -0.009 A 
ATOM     19  C   UNL     1     -12.587  -6.068   2.360  0.00  0.00    -0.013 A 
ATOM     20  C   UNL     1     -13.604  -6.887   2.868  0.00  0.00    -0.009 A 
ATOM     21  C   UNL     1     -14.924  -6.428   2.910  0.00  0.00    +0.001 A 
ENDBRANCH  15  16
ENDBRANCH  13  15
TORSDOF 7
