REMARK  Name = 5M4I
REMARK  4 active torsions:
REMARK  status: ('A' for Active; 'I' for Inactive)
REMARK    1  A    between atoms: C_4  and  C_21
REMARK    2  A    between atoms: C_5  and  O_8
REMARK    3  A    between atoms: O_10  and  C_22
REMARK    4  A    between atoms: C_19  and  C_20
REMARK                            x       y       z     vdW  Elec       q    Type
REMARK                         _______ _______ _______ _____ _____    ______ ____
ROOT
ATOM      9  C   UNL     1     -17.431   5.084  19.068  0.00  0.00    +0.165 C 
ATOM     10  C   UNL     1     -16.584   6.136  19.451  0.00  0.00    +0.168 C 
ATOM     13  C   UNL     1     -15.911   6.880  18.430  0.00  0.00    +0.142 C 
ATOM     16  C   UNL     1     -16.156   6.483  17.045  0.00  0.00    +0.055 C 
ATOM     17  C   UNL     1     -16.996   5.444  16.786  0.00  0.00    +0.132 C 
ATOM     18  C   UNL     1     -17.254   5.029  15.441  0.00  0.00    +0.104 C 
ATOM     19  C   UNL     1     -16.645   5.698  14.386  0.00  0.00    +0.044 C 
ATOM     20  C   UNL     1     -15.781   6.770  14.647  0.00  0.00    +0.073 C 
ATOM     21 CL   UNL     1     -15.015   7.609  13.342  0.00  0.00    -0.116 Cl
ATOM     22 CL   UNL     1     -18.331   3.706  15.146  0.00  0.00    -0.113 Cl
ATOM     23  C   UNL     1     -15.530   7.168  15.962  0.00  0.00    +0.030 C 
ATOM     24  O   UNL     1     -17.598   4.782  17.800  0.00  0.00    -0.350 OA
ENDROOT
BRANCH   9   2
ATOM      1  C   UNL     1     -17.846   4.175  21.384  0.00  0.00    +0.007 A 
ATOM      2  C   UNL     1     -18.175   4.227  20.036  0.00  0.00    -0.010 A 
ATOM      3  C   UNL     1     -19.203   3.431  19.548  0.00  0.00    +0.007 A 
ATOM      4  C   UNL     1     -19.909   2.602  20.403  0.00  0.00    +0.010 A 
ATOM      5  C   UNL     1     -19.586   2.568  21.750  0.00  0.00    -0.003 A 
ATOM     25  C   UNL     1     -18.555   3.353  22.242  0.00  0.00    +0.010 A 
BRANCH   5   6
ATOM      6  C   UNL     1     -20.339   1.679  22.676  0.00  0.00    +0.072 C 
ATOM      7  O   UNL     1     -19.697   0.947  23.473  0.00  0.00    -0.545 OA
ATOM      8  O   UNL     1     -21.599   1.654  22.660  0.00  0.00    -0.545 OA
ENDBRANCH   5   6
ENDBRANCH   9   2
BRANCH  10  11
ATOM     11  O   UNL     1     -16.377   6.481  20.767  0.00  0.00    -0.379 OA
ATOM     12  H   UNL     1     -17.291   6.754  21.206  0.00  0.00    +0.211 HD
ENDBRANCH  10  11
BRANCH  13  14
ATOM     14  O   UNL     1     -15.072   7.925  18.746  0.00  0.00    -0.382 OA
ATOM     15  H   UNL     1     -14.108   7.722  18.384  0.00  0.00    +0.210 HD
ENDBRANCH  13  14
TORSDOF 4
