REMARK  Name = E0A
REMARK  6 active torsions:
REMARK  status: ('A' for Active; 'I' for Inactive)
REMARK    1  A    between atoms: CAV_2  and  CAS_3
REMARK    2  A    between atoms: CAS_3  and  CAR_4
REMARK    3  A    between atoms: CAR_4  and  SAQ_5
REMARK    4  A    between atoms: SAQ_5  and  NAP_8
REMARK    5  A    between atoms: NAP_8  and  CAC_9
REMARK    6  A    between atoms: NAK_21  and  CAN_22
REMARK                            x       y       z     vdW  Elec       q    Type
REMARK                         _______ _______ _______ _____ _____    ______ ____
ROOT
ATOM      7  C   UNL     1      -5.311  20.730  -4.089  0.00  0.00    +0.091 A 
ATOM      8  C   UNL     1      -5.591  21.450  -2.886  0.00  0.00    +0.018 A 
ATOM      9  C   UNL     1      -6.249  20.807  -1.883  0.00  0.00    +0.022 A 
ATOM     10  C   UNL     1      -6.593  21.332  -0.669  0.00  0.00    +0.058 A 
ATOM     11  C   UNL     1      -7.240  20.356   0.003  0.00  0.00    +0.261 A 
ATOM     12  O   UNL     1      -7.802  20.408   1.121  0.00  0.00    -0.267 OA
ATOM     13  N   UNL     1      -7.309  19.266  -0.798  0.00  0.00    -0.295 N 
ATOM     16  C   UNL     1      -6.230  22.598  -0.388  0.00  0.00    +0.005 A 
ATOM     17  C   UNL     1      -5.556  23.357  -1.360  0.00  0.00    +0.000 A 
ATOM     18  C   UNL     1      -6.667  19.548  -1.961  0.00  0.00    +0.063 A 
ATOM     19  C   UNL     1      -6.426  18.812  -3.086  0.00  0.00    +0.019 A 
ATOM     20  C   UNL     1      -5.207  22.786  -2.598  0.00  0.00    +0.001 A 
ATOM     21  C   UNL     1      -5.732  19.387  -4.170  0.00  0.00    +0.020 A 
ENDROOT
BRANCH  13  14
ATOM     14  C   UNL     1      -7.965  18.050  -0.394  0.00  0.00    +0.109 C 
ATOM     15  C   UNL     1      -9.364  18.079  -0.978  0.00  0.00    +0.027 C 
ENDBRANCH  13  14
BRANCH   7   6
ATOM      6  N   UNL     1      -4.616  21.376  -5.086  0.00  0.00    -0.101 NA
BRANCH   6   5
ATOM      5  S   UNL     1      -4.990  21.178  -6.636  0.00  0.00    +0.073 S 
ATOM     22  O   UNL     1      -4.647  19.779  -7.096  0.00  0.00    -0.153 OA
ATOM     23  O   UNL     1      -4.264  22.235  -7.458  0.00  0.00    -0.153 OA
BRANCH   5   4
ATOM      4  C   UNL     1      -6.772  21.380  -6.898  0.00  0.00    +0.174 C 
BRANCH   4   3
ATOM      3  C   UNL     1      -7.085  22.826  -6.566  0.00  0.00    +0.027 C 
BRANCH   3   2
ATOM      1  C   UNL     1      -8.875  24.316  -6.494  0.00  0.00    +0.000 C 
ATOM      2  C   UNL     1      -8.529  22.958  -6.977  0.00  0.00    +0.002 C 
ENDBRANCH   3   2
ENDBRANCH   4   3
ENDBRANCH   5   4
ENDBRANCH   6   5
ENDBRANCH   7   6
TORSDOF 6
