REMARK  Name = 8MB
REMARK  2 active torsions:
REMARK  status: ('A' for Active; 'I' for Inactive)
REMARK    1  A    between atoms: C4_1  and  C7_4
REMARK    2  A    between atoms: C8_5  and  C9_6
REMARK                            x       y       z     vdW  Elec       q    Type
REMARK                         _______ _______ _______ _____ _____    ______ ____
ROOT
ATOM      1  C   UNL     1    -140.057   1.734  -2.149  0.00  0.00    +0.000 A 
ATOM      7  C   UNL     1    -141.335   1.556  -1.619  0.00  0.00    -0.000 A 
ATOM      8  C   UNL     1    -142.408   1.254  -2.437  0.00  0.00    -0.004 A 
ATOM      9  C   UNL     1    -142.256   1.128  -3.815  0.00  0.00    -0.022 A 
ATOM     10  C   UNL     1    -140.986   1.303  -4.337  0.00  0.00    -0.004 A 
ATOM     11  C   UNL     1    -143.434   0.836  -4.706  0.00  0.00    +0.031 C 
ATOM     12  C   UNL     1    -139.905   1.595  -3.529  0.00  0.00    -0.000 A 
ENDROOT
BRANCH   1   2
ATOM      2  C   UNL     1    -138.897   2.108  -1.339  0.00  0.00    +0.007 C 
ATOM      3  C   UNL     1    -137.672   2.258  -1.817  0.00  0.00    +0.086 C 
BRANCH   3   4
ATOM      4  C   UNL     1    -136.565   2.934  -1.078  0.00  0.00    +0.388 C 
ATOM      5  O   UNL     1    -136.811   3.447   0.062  0.00  0.00    -0.240 OA
ATOM      6  O   UNL     1    -135.442   2.987  -1.656  0.00  0.00    -0.240 OA
ENDBRANCH   3   4
ENDBRANCH   1   2
TORSDOF 2
