REMARK  Name = 5P9I
REMARK  7 active torsions:
REMARK  status: ('A' for Active; 'I' for Inactive)
REMARK    1  A    between atoms: C_6  and  N_8
REMARK    2  A    between atoms: C_7  and  C_10
REMARK    3  A    between atoms: C_10  and  C_26
REMARK    4  A    between atoms: O_25  and  C_27
REMARK    5  A    between atoms: O_25  and  C_28
REMARK    6  A    between atoms: C_29  and  C_30
REMARK    7  A    between atoms: C_31  and  N_32
REMARK                            x       y       z     vdW  Elec       q    Type
REMARK                         _______ _______ _______ _____ _____    ______ ____
ROOT
ATOM      1  N   UNL     1     -17.888   4.645 -18.815  0.00  0.00    -0.220 NA
ATOM      2  C   UNL     1     -17.751   4.988 -17.544  0.00  0.00    +0.131 A 
ATOM      6  C   UNL     1     -16.541   5.577 -17.144  0.00  0.00    +0.086 A 
ATOM      7  C   UNL     1     -15.984   6.093 -15.909  0.00  0.00    +0.105 A 
ATOM     21  N   UNL     1     -14.805   6.579 -16.201  0.00  0.00    -0.168 NA
ATOM     22  N   UNL     1     -14.522   6.409 -17.534  0.00  0.00    -0.241 N 
ATOM     33  C   UNL     1     -15.551   5.786 -18.127  0.00  0.00    +0.164 A 
ATOM     34  N   UNL     1     -15.745   5.430 -19.376  0.00  0.00    -0.216 NA
ATOM     35  C   UNL     1     -16.874   4.811 -19.662  0.00  0.00    +0.225 A 
ENDROOT
BRANCH  22  23
ATOM     23  C   UNL     1     -13.276   6.786 -18.186  0.00  0.00    +0.127 C 
ATOM     24  C   UNL     1     -13.322   8.318 -18.391  0.00  0.00    +0.134 C 
ATOM     25  N   UNL     1     -12.002   8.701 -18.928  0.00  0.00    -0.299 N 
ATOM     26  C   UNL     1     -11.861   9.049 -20.232  0.00  0.00    +0.215 C 
ATOM     29  O   UNL     1     -12.824   9.100 -20.997  0.00  0.00    -0.276 OA
ATOM     30  C   UNL     1     -10.881   8.521 -17.963  0.00  0.00    +0.108 C 
ATOM     31  C   UNL     1     -10.736   7.001 -17.752  0.00  0.00    +0.021 C 
ATOM     32  C   UNL     1     -12.076   6.352 -17.316  0.00  0.00    +0.030 C 
BRANCH  26  27
ATOM     27  C   UNL     1     -10.479   9.326 -20.783  0.00  0.00    +0.092 C 
ATOM     28  C   UNL     1     -10.130  10.788 -20.538  0.00  0.00    +0.013 C 
ENDBRANCH  26  27
ENDBRANCH  22  23
BRANCH   7   8
ATOM      8  C   UNL     1     -16.558   6.068 -14.557  0.00  0.00    +0.003 A 
ATOM      9  C   UNL     1     -16.710   7.251 -13.825  0.00  0.00    +0.013 A 
ATOM     10  C   UNL     1     -17.216   7.184 -12.552  0.00  0.00    +0.047 A 
ATOM     11  C   UNL     1     -17.577   5.952 -11.998  0.00  0.00    +0.129 A 
ATOM     19  C   UNL     1     -17.405   4.770 -12.711  0.00  0.00    +0.047 A 
ATOM     20  C   UNL     1     -16.898   4.838 -13.997  0.00  0.00    +0.013 A 
BRANCH  11  12
ATOM     12  O   UNL     1     -18.037   5.875 -10.713  0.00  0.00    -0.456 OA
BRANCH  12  13
ATOM     13  C   UNL     1     -19.051   6.685 -10.275  0.00  0.00    +0.128 A 
ATOM     14  C   UNL     1     -19.031   6.997  -8.923  0.00  0.00    +0.046 A 
ATOM     15  C   UNL     1     -19.997   7.837  -8.382  0.00  0.00    +0.004 A 
ATOM     16  C   UNL     1     -21.059   8.248  -9.178  0.00  0.00    +0.000 A 
ATOM     17  C   UNL     1     -21.134   7.854 -10.513  0.00  0.00    +0.004 A 
ATOM     18  C   UNL     1     -20.118   7.109 -11.085  0.00  0.00    +0.046 A 
ENDBRANCH  12  13
ENDBRANCH  11  12
ENDBRANCH   7   8
BRANCH   2   3
ATOM      3  N   UNL     1     -18.827   4.848 -16.726  0.00  0.00    -0.343 N 
ATOM      4  H   UNL     1     -18.752   5.116 -15.693  0.00  0.00    +0.144 HD
ATOM      5  H   UNL     1     -19.749   4.470 -17.115  0.00  0.00    +0.144 HD
ENDBRANCH   2   3
TORSDOF 6
