REMARK  Name = 3VS5
REMARK  6 active torsions:
REMARK  status: ('A' for Active; 'I' for Inactive)
REMARK    1  A    between atoms: N_3  and  C_4
REMARK    2  A    between atoms: C_7  and  N_8
REMARK    3  A    between atoms: C_14  and  N_15
REMARK    4  A    between atoms: C_17  and  C_18
REMARK    5  A    between atoms: C_23  and  O_24
REMARK    6  A    between atoms: O_24  and  C_25
REMARK                            x       y       z     vdW  Elec       q    Type
REMARK                         _______ _______ _______ _____ _____    ______ ____
ROOT
ATOM      3  N   UNL     1      -6.710  -2.884  16.351  0.00  0.00    -0.328 N 
ATOM      4  C   UNL     1      -5.505  -3.434  16.134  0.00  0.00    +0.147 A 
ATOM      5  C   UNL     1      -4.507  -2.491  16.418  0.00  0.00    +0.066 A 
ATOM      6  C   UNL     1      -5.177  -1.335  16.857  0.00  0.00    +0.012 A 
ATOM     20  C   UNL     1      -3.167  -2.882  16.246  0.00  0.00    +0.129 A 
ATOM     24  N   UNL     1      -2.893  -4.140  15.814  0.00  0.00    -0.220 NA
ATOM     25  C   UNL     1      -3.875  -5.009  15.543  0.00  0.00    +0.225 A 
ATOM     26  N   UNL     1      -5.164  -4.673  15.697  0.00  0.00    -0.218 NA
ATOM     27  C   UNL     1      -6.539  -1.622  16.784  0.00  0.00    +0.097 A 
ENDROOT
BRANCH   3   2
ATOM      1  C   UNL     1      -8.830  -2.846  15.091  0.00  0.00    +0.040 C 
ATOM      2  C   UNL     1      -8.025  -3.567  16.170  0.00  0.00    +0.091 C 
ATOM     28  C   UNL     1      -8.768  -3.571  17.509  0.00  0.00    +0.040 C 
ATOM     29  C   UNL     1     -10.210  -4.068  17.424  0.00  0.00    +0.086 C 
ATOM     30  N   UNL     1     -10.812  -3.524  16.210  0.00  0.00    -0.305 NA
ATOM     31  C   UNL     1     -12.041  -4.103  15.682  0.00  0.00    +0.105 C 
ATOM     32  C   UNL     1     -10.209  -2.381  15.545  0.00  0.00    +0.086 C 
ENDBRANCH   3   2
BRANCH   6   7
ATOM      7  C   UNL     1      -4.642   0.011  17.249  0.00  0.00    -0.016 A 
ATOM      8  C   UNL     1      -5.321   0.845  18.143  0.00  0.00    +0.012 A 
ATOM      9  C   UNL     1      -4.810   2.113  18.451  0.00  0.00    +0.047 A 
ATOM     10  C   UNL     1      -3.623   2.567  17.870  0.00  0.00    +0.129 A 
ATOM     18  C   UNL     1      -2.981   1.756  16.942  0.00  0.00    +0.047 A 
ATOM     19  C   UNL     1      -3.491   0.498  16.634  0.00  0.00    +0.012 A 
BRANCH  10  11
ATOM     11  O   UNL     1      -3.103   3.822  18.113  0.00  0.00    -0.456 OA
BRANCH  11  12
ATOM     12  C   UNL     1      -2.643   4.332  19.309  0.00  0.00    +0.128 A 
ATOM     13  C   UNL     1      -1.961   3.544  20.228  0.00  0.00    +0.046 A 
ATOM     14  C   UNL     1      -1.490   4.096  21.425  0.00  0.00    +0.004 A 
ATOM     15  C   UNL     1      -1.685   5.447  21.700  0.00  0.00    +0.000 A 
ATOM     16  C   UNL     1      -2.361   6.244  20.777  0.00  0.00    +0.004 A 
ATOM     17  C   UNL     1      -2.830   5.690  19.588  0.00  0.00    +0.046 A 
ENDBRANCH  11  12
ENDBRANCH  10  11
ENDBRANCH   6   7
BRANCH  20  21
ATOM     21  N   UNL     1      -2.118  -2.057  16.500  0.00  0.00    -0.343 N 
ATOM     22  H   UNL     1      -2.293  -1.058  16.842  0.00  0.00    +0.144 HD
ATOM     23  H   UNL     1      -1.117  -2.406  16.358  0.00  0.00    +0.144 HD
ENDBRANCH  20  21
TORSDOF 5
