REMARK  Name = 5CEI
REMARK  4 active torsions:
REMARK  status: ('A' for Active; 'I' for Inactive)
REMARK    1  A    between atoms: C_1  and  C_9
REMARK    2  A    between atoms: C_5  and  O_14
REMARK    3  A    between atoms: N_8  and  C_10
REMARK    4  A    between atoms: O_14  and  C_15
REMARK                            x       y       z     vdW  Elec       q    Type
REMARK                         _______ _______ _______ _____ _____    ______ ____
ROOT
ATOM      1  C   UNL     1       5.521  58.840  53.160  0.00  0.00    +0.075 A 
ATOM      2  S   UNL     1       6.772  59.743  53.978  0.00  0.00    -0.082 S 
ATOM      3  C   UNL     1       7.631  60.001  52.452  0.00  0.00    +0.042 A 
ATOM      4  C   UNL     1       6.921  59.408  51.398  0.00  0.00    +0.035 A 
ATOM      5  C   UNL     1       7.482  59.523  50.091  0.00  0.00    +0.155 A 
ATOM     14  C   UNL     1       8.674  60.196  49.924  0.00  0.00    +0.157 A 
ATOM     15  N   UNL     1       9.323  60.738  50.945  0.00  0.00    -0.259 NA
ATOM     16  C   UNL     1       8.833  60.672  52.169  0.00  0.00    +0.126 A 
ATOM     22  C   UNL     1       5.748  58.777  51.839  0.00  0.00    +0.033 A 
ENDROOT
BRANCH   1  17
ATOM     17  C   UNL     1       4.386  58.250  53.873  0.00  0.00    +0.251 C 
ATOM     18  O   UNL     1       4.233  58.483  55.058  0.00  0.00    -0.270 OA
ATOM     19  N   UNL     1       3.546  57.415  53.236  0.00  0.00    -0.314 N 
ATOM     20  H   UNL     1       3.688  57.181  52.202  0.00  0.00    +0.149 HD
ATOM     21  C   UNL     1       2.433  56.834  53.988  0.00  0.00    +0.128 C 
ENDBRANCH   1  17
BRANCH   5   6
ATOM      6  O   UNL     1       6.868  59.019  48.990  0.00  0.00    -0.454 OA
BRANCH   6   7
ATOM      7  C   UNL     1       6.637  57.709  48.705  0.00  0.00    +0.129 A 
ATOM      8  C   UNL     1       7.237  56.665  49.392  0.00  0.00    +0.047 A 
ATOM      9  C   UNL     1       6.950  55.355  49.034  0.00  0.00    +0.018 A 
ATOM     10  C   UNL     1       6.072  55.069  47.994  0.00  0.00    +0.014 A 
ATOM     11  I   UNL     1       5.617  53.088  47.414  0.00  0.00    -0.044 I 
ATOM     12  C   UNL     1       5.486  56.120  47.314  0.00  0.00    +0.018 A 
ATOM     13  C   UNL     1       5.767  57.425  47.662  0.00  0.00    +0.047 A 
ENDBRANCH   6   7
ENDBRANCH   5   6
TORSDOF 3
