REMARK  Name = 4gk3_ligand
REMARK  7 active torsions:
REMARK  status: ('A' for Active; 'I' for Inactive)
REMARK    1  A    between atoms: N5_4  and  C18_5
REMARK    2  A    between atoms: N3_13  and  C6_14
REMARK    3  A    between atoms: C6_14  and  C7_15
REMARK    4  A    between atoms: C7_15  and  C8_16
REMARK    5  A    between atoms: C8_16  and  C9_17
REMARK    6  A    between atoms: C5_18  and  C10_20
REMARK    7  A    between atoms: C11_21  and  C26_22
REMARK                            x       y       z     vdW  Elec       q    Type
REMARK                         _______ _______ _______ _____ _____    ______ ____
ROOT
ATOM      1  O   UNL     1      18.742 -16.527  24.508  0.00  0.00    -0.361 OA
ATOM      2  C   UNL     1      19.074 -15.315  24.450  0.00  0.00    +0.366 A 
ATOM      3  N   UNL     1      19.249 -14.743  23.249  0.00  0.00    -0.123 N 
ATOM      4  C   UNL     1      19.603 -13.458  23.188  0.00  0.00    +0.291 A 
ATOM      5  N   UNL     1      19.827 -12.715  22.043  0.00  0.00    -0.144 N 
ATOM      6  H   UNL     1      19.762 -12.999  21.055  0.00  0.00    +0.252 HD
ATOM      7  C   UNL     1      20.166 -11.475  22.591  0.00  0.00    +0.297 A 
ATOM      8  N   UNL     1      20.489 -10.236  22.096  0.00  0.00    -0.186 N 
ATOM      9  C   UNL     1      20.713  -9.430  23.173  0.00  0.00    +0.101 A 
ATOM     17  C   UNL     1      20.488 -10.151  24.391  0.00  0.00    +0.058 A 
ATOM     22  N   UNL     1      20.163 -11.426  23.925  0.00  0.00    -0.272 N 
ATOM     23  C   UNL     1      19.796 -12.689  24.339  0.00  0.00    +0.189 A 
ATOM     24  C   UNL     1      19.611 -13.291  25.586  0.00  0.00    +0.245 A 
ATOM     25  O   UNL     1      19.755 -12.689  26.663  0.00  0.00    -0.382 OA
ATOM     26  C   UNL     1      19.058 -15.504  22.005  0.00  0.00    +0.272 C 
ATOM     27  N   UNL     1      19.254 -14.603  25.600  0.00  0.00    -0.171 N 
ATOM     28  H   UNL     1      19.119 -15.060  26.479  0.00  0.00    +0.227 HD
ENDROOT
BRANCH   9  10
ATOM     10  C   UNL     1      21.118  -8.007  22.946  0.00  0.00    +0.024 A 
ATOM     11  C   UNL     1      20.256  -7.167  22.245  0.00  0.00    +0.014 A 
ATOM     12  C   UNL     1      20.623  -5.851  21.986  0.00  0.00    -0.003 A 
ATOM     13  C   UNL     1      21.857  -5.369  22.421  0.00  0.00    +0.003 A 
ATOM     14  C   UNL     1      22.728  -6.211  23.108  0.00  0.00    +0.005 A 
ATOM     15  C   UNL     1      22.361  -7.532  23.367  0.00  0.00    -0.025 A 
ATOM     16  C   UNL     1      23.328  -8.415  24.124  0.00  0.00    +0.099 C 
ENDBRANCH   9  10
BRANCH   8  18
ATOM     18  C   UNL     1      20.573 -10.079  20.641  0.00  0.00    +0.188 C 
BRANCH  18  19
ATOM     19  C   UNL     1      19.190 -10.226  20.004  0.00  0.00    +0.033 C 
BRANCH  19  20
ATOM     20  C   UNL     1      18.161  -9.271  20.606  0.00  0.00    -0.001 C 
ATOM     21  C   UNL     1      16.792  -9.526  20.009  0.00  0.00    +0.004 C 
ENDBRANCH  19  20
ENDBRANCH  18  19
ENDBRANCH   8  18
TORSDOF 4
