REMARK  Name = 1E9A
REMARK  8 active torsions:
REMARK  status: ('A' for Active; 'I' for Inactive)
REMARK    1  A    between atoms: N_1  and  C_16
REMARK    2  A    between atoms: C_5  and  O_6
REMARK    3  A    between atoms: C_7  and  C_9
REMARK    4  A    between atoms: C_10  and  O_11
REMARK    5  A    between atoms: C_10  and  C_12
REMARK    6  A    between atoms: O_11  and  P_20
REMARK    7  A    between atoms: C_14  and  N_17
REMARK    8  A    between atoms: N_17  and  N_18
REMARK                            x       y       z     vdW  Elec       q    Type
REMARK                         _______ _______ _______ _____ _____    ______ ____
ROOT
ATOM      2  C   UNL     1      13.876  77.348  25.455  0.00  0.00    +0.212 C 
ATOM      3  C   UNL     1      12.850  76.894  26.518  0.00  0.00    +0.083 C 
ATOM      4  C   UNL     1      13.736  75.955  27.396  0.00  0.00    +0.186 C 
ATOM      9  C   UNL     1      14.800  75.461  26.462  0.00  0.00    +0.173 C 
ATOM     16  O   UNL     1      14.661  76.206  25.240  0.00  0.00    -0.351 OA
ENDROOT
BRANCH   2   1
ATOM      1  N   UNL     1      13.437  77.844  24.153  0.00  0.00    -0.255 N 
ATOM     17  C   UNL     1      12.718  76.946  23.430  0.00  0.00    +0.147 C 
ATOM     18  C   UNL     1      12.283  77.349  22.189  0.00  0.00    +0.002 C 
ATOM     19  C   UNL     1      11.451  76.450  21.327  0.00  0.00    +0.046 C 
ATOM     20  C   UNL     1      12.652  78.695  21.706  0.00  0.00    +0.185 C 
ATOM     23  N   UNL     1      13.417  79.508  22.521  0.00  0.00    -0.240 N 
ATOM     24  H   UNL     1      13.676  80.484  22.167  0.00  0.00    +0.159 HD
ATOM     25  C   UNL     1      13.859  79.128  23.755  0.00  0.00    +0.311 C 
ATOM     26  O   UNL     1      14.546  79.867  24.454  0.00  0.00    -0.252 OA
BRANCH  20  21
ATOM     21  O   UNL     1      12.255  79.114  20.469  0.00  0.00    -0.495 OA
ATOM     22  H   UNL     1      11.672  79.982  20.563  0.00  0.00    +0.293 HD
ENDBRANCH  20  21
ENDBRANCH   2   1
BRANCH   4   5
ATOM      5  N   UNL     1      14.377  76.766  28.515  0.00  0.00    +0.003 N 
ATOM      6  H   UNL     1      14.438  77.787  28.202  0.00  0.00    +0.238 HD
BRANCH   5   7
ATOM      7  N   UNL     1      13.745  76.718  29.577  0.00  0.00    +0.298 NA
ATOM      8  N   UNL     1      13.435  76.637  30.685  0.00  0.00    +0.251 NA
ENDBRANCH   5   7
ENDBRANCH   4   5
BRANCH   9  10
ATOM     10  C   UNL     1      14.814  73.906  26.376  0.00  0.00    +0.197 C 
BRANCH  10  11
ATOM     11  O   UNL     1      13.454  73.467  26.164  0.00  0.00    -0.365 OA
BRANCH  11  12
ATOM     12  P   UNL     1      12.947  72.036  26.724  0.00  0.00    -0.015 P 
ATOM     13  O   UNL     1      12.956  72.010  28.196  0.00  0.00    -0.638 OA
ATOM     14  O   UNL     1      14.020  71.055  26.126  0.00  0.00    -0.577 OA
ATOM     15  O   UNL     1      11.635  71.922  26.018  0.00  0.00    -0.577 OA
ENDBRANCH  11  12
ENDBRANCH  10  11
ENDBRANCH   9  10
TORSDOF 7
