REMARK  Name = 4gk2_ligand
REMARK  7 active torsions:
REMARK  status: ('A' for Active; 'I' for Inactive)
REMARK    1  A    between atoms: N5_6  and  C18_7
REMARK    2  A    between atoms: N3_14  and  C32_24
REMARK    3  A    between atoms: C5_15  and  C10_16
REMARK    4  A    between atoms: C11_17  and  C40_18
REMARK    5  A    between atoms: C14_22  and  O41_23
REMARK    6  A    between atoms: C37_29  and  O38_30
REMARK    7  A    between atoms: O38_30  and  C39_31
REMARK                            x       y       z     vdW  Elec       q    Type
REMARK                         _______ _______ _______ _____ _____    ______ ____
ROOT
ATOM      1  O   UNL     1      -0.095 -17.184 -12.576  0.00  0.00    -0.361 OA
ATOM      2  C   UNL     1       0.193 -15.856 -12.676  0.00  0.00    +0.365 A 
ATOM      3  N   UNL     1       0.362 -15.352 -13.907  0.00  0.00    -0.123 N 
ATOM      4  C   UNL     1       0.639 -14.059 -14.028  0.00  0.00    +0.290 A 
ATOM      5  N   UNL     1       0.842 -13.374 -15.197  0.00  0.00    -0.146 N 
ATOM      6  H   UNL     1       0.827 -13.721 -16.167  0.00  0.00    +0.251 HD
ATOM      7  C   UNL     1       1.074 -12.086 -14.728  0.00  0.00    +0.307 A 
ATOM      8  N   UNL     1       1.397 -10.895 -15.330  0.00  0.00    -0.146 N 
ATOM     17  C   UNL     1       1.499 -10.018 -14.336  0.00  0.00    +0.111 A 
ATOM     27  C   UNL     1       1.313 -10.594 -12.925  0.00  0.00    +0.057 A 
ATOM     28  N   UNL     1       1.063 -11.959 -13.381  0.00  0.00    -0.273 N 
ATOM     29  C   UNL     1       0.764 -13.223 -12.916  0.00  0.00    +0.191 A 
ATOM     30  C   UNL     1       0.583 -13.758 -11.644  0.00  0.00    +0.246 A 
ATOM     31  O   UNL     1       0.691 -12.994 -10.524  0.00  0.00    -0.381 OA
ATOM     32  C   UNL     1       0.236 -16.189 -15.107  0.00  0.00    +0.270 C 
ATOM     33  N   UNL     1       0.304 -15.081 -11.565  0.00  0.00    -0.171 N 
ATOM     34  H   UNL     1       0.176 -15.499 -10.665  0.00  0.00    +0.227 HD
ENDROOT
BRANCH  17  18
ATOM     18  C   UNL     1       1.832  -8.574 -14.485  0.00  0.00    +0.016 A 
ATOM     19  C   UNL     1       0.951  -7.781 -15.221  0.00  0.00    +0.031 A 
ATOM     20  C   UNL     1       1.237  -6.436 -15.418  0.00  0.00    +0.087 A 
ATOM     23  C   UNL     1       2.393  -5.892 -14.881  0.00  0.00    +0.026 A 
ATOM     24  C   UNL     1       3.287  -6.679 -14.160  0.00  0.00    -0.004 A 
ATOM     25  C   UNL     1       3.012  -8.028 -13.956  0.00  0.00    -0.035 A 
ATOM     26  C   UNL     1       4.003  -8.855 -13.164  0.00  0.00    +0.090 C 
BRANCH  20  21
ATOM     21  O   UNL     1       0.377  -5.647 -16.118  0.00  0.00    -0.335 OA
ATOM     22  H   UNL     1       0.722  -4.763 -16.158  0.00  0.00    +0.247 HD
ENDBRANCH  20  21
ENDBRANCH  17  18
BRANCH   8   9
ATOM      9  C   UNL     1       1.444 -10.686 -16.645  0.00  0.00    +0.137 A 
ATOM     10  C   UNL     1       0.177 -10.660 -17.430  0.00  0.00    +0.128 A 
ATOM     13  C   UNL     1       0.165 -10.461 -18.806  0.00  0.00    +0.017 A 
ATOM     14  C   UNL     1       1.357 -10.266 -19.480  0.00  0.00    -0.024 A 
ATOM     15  C   UNL     1       2.557 -10.283 -18.775  0.00  0.00    -0.026 A 
ATOM     16  C   UNL     1       2.598 -10.482 -17.396  0.00  0.00    +0.021 A 
BRANCH  10  11
ATOM     11  O   UNL     1      -1.012 -10.864 -16.771  0.00  0.00    -0.321 OA
ATOM     12  C   UNL     1      -2.187 -10.136 -17.126  0.00  0.00    +0.231 C 
ENDBRANCH  10  11
ENDBRANCH   8   9
TORSDOF 4
