REMARK  Name = 5IMX
REMARK  15 active torsions:
REMARK  status: ('A' for Active; 'I' for Inactive)
REMARK    1  A    between atoms: C_1  and  N_31
REMARK    2  A    between atoms: C_3  and  C_7
REMARK    3  A    between atoms: C_4  and  C_33
REMARK    4  A    between atoms: C_6  and  O_32
REMARK    5  A    between atoms: C_8  and  C_9
REMARK    6  A    between atoms: C_8  and  C_10
REMARK    7  A    between atoms: C_8  and  O_32
REMARK    8  A    between atoms: S_15  and  C_17
REMARK    9  A    between atoms: S_15  and  C_20
REMARK   10  A    between atoms: C_17  and  C_18
REMARK   11  A    between atoms: C_17  and  C_19
REMARK   12  A    between atoms: N_22  and  C_23
REMARK   13  A    between atoms: C_25  and  N_26
REMARK   14  A    between atoms: N_26  and  C_27
REMARK   15  A    between atoms: N_36  and  C_37
REMARK                            x       y       z     vdW  Elec       q    Type
REMARK                         _______ _______ _______ _____ _____    ______ ____
ROOT
ATOM      2  N   UNL     1      23.669   9.879   8.740  0.00  0.00    -0.281 N 
ATOM      3  H   UNL     1      24.721   9.812   8.921  0.00  0.00    +0.155 HD
ATOM      4  C   UNL     1      23.051  11.013   9.134  0.00  0.00    +0.221 A 
ATOM      5  N   UNL     1      23.730  11.813   9.983  0.00  0.00    -0.221 NA
ATOM      6  C   UNL     1      23.173  12.923  10.485  0.00  0.00    +0.138 A 
ATOM      7  C   UNL     1      21.895  13.240  10.133  0.00  0.00    +0.099 A 
ATOM      8 CL   UNL     1      21.119  14.686  10.787  0.00  0.00    -0.078 Cl
ATOM      9  C   UNL     1      21.156  12.365   9.217  0.00  0.00    +0.146 A 
ATOM     25  N   UNL     1      21.796  11.289   8.771  0.00  0.00    -0.198 NA
ENDROOT
BRANCH   2   1
ATOM      1  C   UNL     1      23.085   8.829   8.143  0.00  0.00    +0.076 A 
ATOM     26  C   UNL     1      24.005   7.914   7.429  0.00  0.00    +0.142 A 
ATOM     31  C   UNL     1      23.469   6.862   6.727  0.00  0.00    +0.051 A 
ATOM     32  C   UNL     1      22.120   6.596   6.659  0.00  0.00    -0.038 A 
ATOM     40  C   UNL     1      21.183   7.494   7.371  0.00  0.00    -0.045 A 
ATOM     41  C   UNL     1      19.692   7.304   7.348  0.00  0.00    +0.044 C 
ATOM     42  C   UNL     1      21.709   8.597   8.094  0.00  0.00    +0.030 A 
BRANCH  32  33
ATOM     33  C   UNL     1      21.843   5.381   5.828  0.00  0.00    +0.022 C 
ATOM     34  C   UNL     1      21.718   5.637   4.330  0.00  0.00    +0.023 C 
ATOM     35  C   UNL     1      21.896   4.305   3.590  0.00  0.00    +0.085 C 
ATOM     36  N   UNL     1      21.832   3.138   4.509  0.00  0.00    -0.305 NA
ATOM     37  C   UNL     1      21.748   1.864   3.766  0.00  0.00    +0.105 C 
ATOM     38  C   UNL     1      20.699   3.215   5.472  0.00  0.00    +0.085 C 
ATOM     39  C   UNL     1      20.652   4.531   6.236  0.00  0.00    +0.023 C 
ENDBRANCH  32  33
BRANCH  26  27
ATOM     27  O   UNL     1      25.362   8.128   7.434  0.00  0.00    -0.487 OA
BRANCH  27  28
ATOM     28  C   UNL     1      26.443   7.186   7.665  0.00  0.00    +0.167 C 
ATOM     29  C   UNL     1      26.301   5.747   7.185  0.00  0.00    +0.051 C 
ATOM     30  C   UNL     1      27.679   7.800   7.018  0.00  0.00    +0.051 C 
ENDBRANCH  27  28
ENDBRANCH  26  27
ENDBRANCH   2   1
BRANCH   9  10
ATOM     10  N   UNL     1      19.925  12.702   8.780  0.00  0.00    -0.298 N 
ATOM     11  H   UNL     1      19.397  13.499   9.261  0.00  0.00    +0.153 HD
BRANCH  10  12
ATOM     12  C   UNL     1      19.342  12.046   7.737  0.00  0.00    +0.066 C 
ATOM     13  C   UNL     1      19.770  11.129   6.780  0.00  0.00    +0.159 C 
ATOM     14  N   UNL     1      18.682  10.768   6.093  0.00  0.00    -0.226 NA
ATOM     15  C   UNL     1      18.494   9.822   4.959  0.00  0.00    +0.128 C 
ATOM     16  N   UNL     1      17.475  11.372   6.534  0.00  0.00    -0.261 N 
ATOM     17  H   UNL     1      16.484  11.226   6.157  0.00  0.00    +0.168 HD
ATOM     18  C   UNL     1      17.877  12.176   7.543  0.00  0.00    +0.175 C 
BRANCH  18  19
ATOM     19  S   UNL     1      16.861  13.109   8.465  0.00  0.00    +0.015 S 
ATOM     23  O   UNL     1      17.682  14.122   9.114  0.00  0.00    -0.168 OA
ATOM     24  O   UNL     1      15.878  13.824   7.697  0.00  0.00    -0.168 OA
BRANCH  19  20
ATOM     20  C   UNL     1      15.989  12.178   9.571  0.00  0.00    +0.131 C 
ATOM     21  C   UNL     1      15.115  11.124   8.860  0.00  0.00    +0.032 C 
ATOM     22  C   UNL     1      16.927  11.522  10.593  0.00  0.00    +0.032 C 
ENDBRANCH  19  20
ENDBRANCH  18  19
ENDBRANCH  10  12
ENDBRANCH   9  10
TORSDOF 8
