REMARK  Name = MVG
REMARK  4 active torsions:
REMARK  status: ('A' for Active; 'I' for Inactive)
REMARK    1  A    between atoms: C17_2  and  C16_4
REMARK    2  A    between atoms: C13_9  and  C12_10
REMARK    3  A    between atoms: C4_24  and  N1_25
REMARK    4  A    between atoms: N1_25  and  C2_26
REMARK                            x       y       z     vdW  Elec       q    Type
REMARK                         _______ _______ _______ _____ _____    ______ ____
ROOT
ATOM      7  C   UNL     1     -43.634   1.342   0.315  0.00  0.00    +0.102 A 
ATOM      8  C   UNL     1     -44.802   1.224   1.086  0.00  0.00    +0.118 A 
ATOM      9  N   UNL     1     -45.993   0.984   0.511  0.00  0.00    -0.237 NA
ATOM     10  C   UNL     1     -46.038   0.856  -0.824  0.00  0.00    +0.138 A 
ATOM     11  C   UNL     1     -44.866   0.954  -1.584  0.00  0.00    +0.183 A 
ATOM     12  N   UNL     1     -44.904   0.958  -3.013  0.00  0.00    -0.211 N 
ATOM     13  N   UNL     1     -46.110   0.692  -3.655  0.00  0.00    -0.162 NA
ATOM     14  C   UNL     1     -45.908   0.969  -4.926  0.00  0.00    +0.122 A 
ATOM     15  C   UNL     1     -44.585   1.420  -5.174  0.00  0.00    +0.039 A 
ATOM     16  C   UNL     1     -43.869   1.922  -6.269  0.00  0.00    +0.004 A 
ATOM     17  C   UNL     1     -42.564   2.365  -6.110  0.00  0.00    +0.016 A 
ATOM     18  C   UNL     1     -41.949   2.314  -4.852  0.00  0.00    +0.067 A 
ATOM     19  C   UNL     1     -42.637   1.806  -3.752  0.00  0.00    +0.035 A 
ATOM     24  C   UNL     1     -43.949   1.378  -3.915  0.00  0.00    +0.087 A 
ATOM     25  N   UNL     1     -43.678   1.171  -1.017  0.00  0.00    -0.224 NA
ENDROOT
BRANCH   7   6
ATOM      3  C   UNL     1     -39.816   2.487   1.928  0.00  0.00    +0.080 A 
ATOM      4  C   UNL     1     -40.955   2.492   2.728  0.00  0.00    +0.007 A 
ATOM      5  C   UNL     1     -42.185   2.124   2.208  0.00  0.00    +0.002 A 
ATOM      6  C   UNL     1     -42.317   1.736   0.876  0.00  0.00    +0.019 A 
ATOM     26  C   UNL     1     -41.172   1.721   0.086  0.00  0.00    +0.002 A 
ATOM     27  C   UNL     1     -39.937   2.077   0.603  0.00  0.00    +0.007 A 
BRANCH   3   2
ATOM      1  O   UNL     1     -38.457   3.512   3.556  0.00  0.00    -0.241 OA
ATOM      2  C   UNL     1     -38.523   3.001   2.455  0.00  0.00    +0.388 C 
ATOM     28  O   UNL     1     -37.518   2.968   1.633  0.00  0.00    -0.241 OA
ENDBRANCH   3   2
ENDBRANCH   7   6
BRANCH  18  20
ATOM     20  N   UNL     1     -40.660   2.807  -4.651  0.00  0.00    -0.239 NA
BRANCH  20  21
ATOM     21  C   UNL     1     -39.793   2.639  -3.448  0.00  0.00    +0.093 C 
ATOM     22  C   UNL     1     -39.367   1.189  -3.302  0.00  0.00    +0.023 C 
ATOM     23  C   UNL     1     -38.608   3.576  -3.584  0.00  0.00    +0.023 C 
ENDBRANCH  20  21
ENDBRANCH  18  20
TORSDOF 4
