REMARK  Name = DD8
REMARK  2 active torsions:
REMARK  status: ('A' for Active; 'I' for Inactive)
REMARK    1  A    between atoms: C19_12  and  C22_15
REMARK    2  A    between atoms: N5_20  and  C6_21
REMARK                            x       y       z     vdW  Elec       q    Type
REMARK                         _______ _______ _______ _____ _____    ______ ____
ROOT
ATOM      1  C   UNL     1     -19.867  17.354  30.965  0.00  0.00    +0.135 C 
ATOM      2  N   UNL     1     -21.285  17.024  31.150  0.00  0.00    -0.277 N 
ATOM      3  C   UNL     1     -22.202  17.806  31.762  0.00  0.00    +0.332 A 
ATOM      4  O   UNL     1     -21.963  18.896  32.267  0.00  0.00    -0.246 OA
ATOM      5  N   UNL     1     -23.414  17.197  31.721  0.00  0.00    -0.281 N 
ATOM     12  C   UNL     1     -23.274  15.989  31.046  0.00  0.00    +0.083 A 
ATOM     13  C   UNL     1     -24.164  14.944  30.655  0.00  0.00    +0.035 A 
ATOM     14  C   UNL     1     -25.538  14.938  30.990  0.00  0.00    +0.003 A 
ATOM     15  C   UNL     1     -26.367  13.889  30.595  0.00  0.00    +0.002 A 
ATOM     22  C   UNL     1     -25.827  12.832  29.833  0.00  0.00    +0.002 A 
ATOM     23  C   UNL     1     -24.511  12.822  29.472  0.00  0.00    +0.019 A 
ATOM     24  C   UNL     1     -23.642  13.864  29.874  0.00  0.00    +0.083 A 
ATOM     25  N   UNL     1     -22.344  13.843  29.529  0.00  0.00    -0.242 NA
ATOM     26  C   UNL     1     -21.505  14.790  29.898  0.00  0.00    +0.117 A 
ATOM     27  C   UNL     1     -21.927  15.883  30.672  0.00  0.00    +0.099 A 
ENDROOT
BRANCH   5   6
ATOM      6  C   UNL     1     -24.701  17.729  32.212  0.00  0.00    +0.095 C 
ATOM      7  C   UNL     1     -24.842  17.745  33.738  0.00  0.00    +0.055 C 
ATOM      8  C   UNL     1     -26.290  18.117  34.081  0.00  0.00    +0.144 C 
ATOM      9  O   UNL     1     -26.622  19.365  33.449  0.00  0.00    -0.354 OA
ATOM     10  C   UNL     1     -26.574  19.405  32.012  0.00  0.00    +0.144 C 
ATOM     11  C   UNL     1     -25.168  19.023  31.518  0.00  0.00    +0.055 C 
ENDBRANCH   5   6
BRANCH  15  16
ATOM     16  C   UNL     1     -27.791  13.845  31.041  0.00  0.00    +0.019 A 
ATOM     17  C   UNL     1     -28.121  14.133  32.385  0.00  0.00    +0.003 A 
ATOM     18  C   UNL     1     -29.453  14.058  32.796  0.00  0.00    +0.021 A 
ATOM     19  C   UNL     1     -30.417  13.658  31.875  0.00  0.00    +0.099 A 
ATOM     20  N   UNL     1     -30.088  13.364  30.621  0.00  0.00    -0.242 NA
ATOM     21  C   UNL     1     -28.831  13.432  30.193  0.00  0.00    +0.099 A 
ENDBRANCH  15  16
TORSDOF 2
