REMARK  Name = 4ZTS
REMARK  8 active torsions:
REMARK  status: ('A' for Active; 'I' for Inactive)
REMARK    1  A    between atoms: C_1  and  C_2
REMARK    2  A    between atoms: C_2  and  C_3
REMARK    3  A    between atoms: C_6  and  N_9
REMARK    4  A    between atoms: C_12  and  C_13
REMARK    5  A    between atoms: C_13  and  C_14
REMARK    6  A    between atoms: N_17  and  C_18
REMARK    7  A    between atoms: C_21  and  C_24
REMARK    8  A    between atoms: N_34  and  C_35
REMARK                            x       y       z     vdW  Elec       q    Type
REMARK                         _______ _______ _______ _____ _____    ______ ____
ROOT
ATOM     15  C   UNL     1       1.224 -29.046  -6.381  0.00  0.00    -0.041 A 
ATOM     16  C   UNL     1       1.307 -28.828  -7.782  0.00  0.00    +0.023 A 
ATOM     17  C   UNL     1       0.772 -29.787  -8.637  0.00  0.00    +0.113 A 
ATOM     18  N   UNL     1       0.188 -30.877  -8.154  0.00  0.00    -0.240 NA
ATOM     19  C   UNL     1       0.065 -31.136  -6.849  0.00  0.00    +0.123 A 
ATOM     20  N   UNL     1      -0.580 -32.353  -6.489  0.00  0.00    -0.299 N 
ATOM     21  H   UNL     1      -0.822 -33.015  -7.294  0.00  0.00    +0.154 HD
ATOM     34  C   UNL     1       0.581 -30.217  -5.931  0.00  0.00    +0.047 A 
ENDROOT
BRANCH  20  22
ATOM     22  C   UNL     1      -0.943 -32.795  -5.180  0.00  0.00    +0.032 A 
ATOM     23  C   UNL     1      -2.114 -33.568  -5.085  0.00  0.00    +0.024 A 
ATOM     24  C   UNL     1      -2.542 -34.057  -3.868  0.00  0.00    +0.013 A 
ATOM     25  C   UNL     1      -1.825 -33.810  -2.724  0.00  0.00    +0.021 A 
ATOM     32  C   UNL     1      -0.648 -33.060  -2.809  0.00  0.00    +0.013 A 
ATOM     33  C   UNL     1      -0.218 -32.563  -4.037  0.00  0.00    +0.024 A 
BRANCH  25  26
ATOM     26  C   UNL     1      -2.305 -34.365  -1.381  0.00  0.00    +0.179 A 
ATOM     27  N   UNL     1      -3.431 -35.064  -1.152  0.00  0.00    -0.239 N 
ATOM     28  H   UNL     1      -4.165 -35.330  -1.884  0.00  0.00    +0.192 HD
ATOM     29  N   UNL     1      -3.474 -35.372   0.164  0.00  0.00    -0.046 NA
ATOM     30  N   UNL     1      -2.377 -34.873   0.741  0.00  0.00    -0.023 NA
ATOM     31  N   UNL     1      -1.661 -34.256  -0.209  0.00  0.00    -0.108 NA
ENDBRANCH  25  26
ENDBRANCH  20  22
BRANCH  15  14
ATOM     14  C   UNL     1       1.732 -28.112  -5.322  0.00  0.00    +0.064 C 
BRANCH  14  13
ATOM      7  N   UNL     1       5.479 -24.678  -6.547  0.00  0.00    -0.226 NA
ATOM      8  C   UNL     1       4.593 -25.471  -5.981  0.00  0.00    +0.164 C 
ATOM      9  N   UNL     1       4.406 -25.433  -4.508  0.00  0.00    -0.253 N 
ATOM     10  C   UNL     1       5.128 -24.601  -3.582  0.00  0.00    +0.140 C 
ATOM     11  C   UNL     1       3.252 -26.487  -4.132  0.00  0.00    +0.240 C 
ATOM     12  O   UNL     1       2.852 -26.705  -3.004  0.00  0.00    -0.274 OA
ATOM     13  C   UNL     1       2.750 -27.170  -5.420  0.00  0.00    +0.128 C 
ATOM     35  S   UNL     1       3.556 -26.569  -6.641  0.00  0.00    -0.072 S 
BRANCH   7   6
ATOM      3  C   UNL     1       6.444 -24.800 -10.602  0.00  0.00    -0.048 A 
ATOM      4  C   UNL     1       5.782 -23.661 -10.099  0.00  0.00    +0.006 A 
ATOM      5  C   UNL     1       5.436 -23.597  -8.751  0.00  0.00    +0.028 A 
ATOM      6  C   UNL     1       5.755 -24.669  -7.912  0.00  0.00    +0.067 A 
ATOM     36  C   UNL     1       6.428 -25.785  -8.406  0.00  0.00    +0.028 A 
ATOM     37  C   UNL     1       6.768 -25.856  -9.748  0.00  0.00    +0.006 A 
BRANCH   3   2
ATOM      1  C   UNL     1       5.950 -24.253 -13.097  0.00  0.00    +0.009 C 
ATOM      2  C   UNL     1       6.865 -24.964 -12.079  0.00  0.00    +0.032 C 
ENDBRANCH   3   2
ENDBRANCH   7   6
ENDBRANCH  14  13
ENDBRANCH  15  14
TORSDOF 6
