REMARK  Name = 2zmd_ligand
REMARK  0 active torsions:
REMARK  status: ('A' for Active; 'I' for Inactive)
REMARK                            x       y       z     vdW  Elec       q    Type
REMARK                         _______ _______ _______ _____ _____    ______ ____
ROOT
ATOM      1  C   UNL     1     -34.353 -15.219  -9.123  0.00  0.00    +0.006 A 
ATOM      2  C   UNL     1     -34.814 -14.201  -9.956  0.00  0.00    +0.004 A 
ATOM      3  C   UNL     1     -35.611 -14.506 -11.054  0.00  0.00    +0.022 A 
ATOM      4  C   UNL     1     -35.947 -15.832 -11.316  0.00  0.00    +0.042 A 
ATOM      5  C   UNL     1     -36.808 -16.183 -12.490  0.00  0.00    +0.158 A 
ATOM      6  O   UNL     1     -37.243 -15.303 -13.260  0.00  0.00    -0.371 OA
ATOM      7  C   UNL     1     -37.130 -17.620 -12.718  0.00  0.00    +0.046 A 
ATOM      8  C   UNL     1     -37.915 -18.086 -13.767  0.00  0.00    +0.024 A 
ATOM      9  C   UNL     1     -38.151 -19.460 -13.883  0.00  0.00    +0.007 A 
ATOM     10  C   UNL     1     -37.607 -20.364 -12.960  0.00  0.00    +0.016 A 
ATOM     11  C   UNL     1     -36.825 -19.882 -11.915  0.00  0.00    +0.014 A 
ATOM     12  N   UNL     1     -36.147 -20.395 -10.855  0.00  0.00    -0.286 NA
ATOM     13  N   UNL     1     -35.525 -19.333 -10.133  0.00  0.00    -0.228 N 
ATOM     14  H   UNL     1     -34.947 -19.431  -9.286  0.00  0.00    +0.291 HD
ATOM     15  C   UNL     1     -35.831 -18.173 -10.763  0.00  0.00    +0.144 A 
ATOM     16  C   UNL     1     -36.609 -18.535 -11.824  0.00  0.00    +0.052 A 
ATOM     17  C   UNL     1     -35.483 -16.854 -10.476  0.00  0.00    +0.041 A 
ATOM     18  C   UNL     1     -34.684 -16.545  -9.383  0.00  0.00    +0.017 A 
ENDROOT
TORSDOF 0
