REMARK  Name = 4dk5_ligand
REMARK  9 active torsions:
REMARK  status: ('A' for Active; 'I' for Inactive)
REMARK    1  A    between atoms: C31_1  and  O30_2
REMARK    2  A    between atoms: O30_2  and  C27_3
REMARK    3  A    between atoms: C24_8  and  N7_9
REMARK    4  A    between atoms: C5_13  and  C9_14
REMARK    5  A    between atoms: C9_14  and  N10_15
REMARK    6  A    between atoms: N13_20  and  S16_21
REMARK    7  A    between atoms: S16_21  and  C32_22
REMARK    8  A    between atoms: C3_26  and  C8_27
REMARK    9  A    between atoms: C18_30  and  C22_31
REMARK                            x       y       z     vdW  Elec       q    Type
REMARK                         _______ _______ _______ _____ _____    ______ ____
ROOT
ATOM      7  N   UNL     1      23.406  14.043  22.220  0.00  0.00    -0.258 N 
ATOM      8  H   UNL     1      22.956  13.387  22.859  0.00  0.00    +0.213 HD
ATOM      9  C   UNL     1      22.856  15.252  22.066  0.00  0.00    +0.145 A 
ATOM     10  C   UNL     1      21.607  15.501  22.631  0.00  0.00    +0.066 A 
ATOM     21  C   UNL     1      21.041  16.762  22.475  0.00  0.00    +0.035 A 
ATOM     22  C   UNL     1      21.736  17.729  21.744  0.00  0.00    -0.042 A 
ATOM     34  C   UNL     1      22.977  17.422  21.189  0.00  0.00    +0.079 A 
ATOM     35  N   UNL     1      23.494  16.219  21.369  0.00  0.00    -0.281 NA
ENDROOT
BRANCH  10  11
ATOM     11  C   UNL     1      20.962  14.515  23.374  0.00  0.00    +0.114 A 
ATOM     12  N   UNL     1      21.666  13.448  23.783  0.00  0.00    -0.257 NA
ATOM     13  C   UNL     1      21.085  12.490  24.515  0.00  0.00    +0.093 A 
ATOM     14  N   UNL     1      19.792  12.592  24.855  0.00  0.00    -0.233 NA
ATOM     15  C   UNL     1      19.087  13.660  24.466  0.00  0.00    +0.188 A 
ATOM     16  N   UNL     1      17.808  13.761  24.811  0.00  0.00    -0.299 N 
ATOM     17  H   UNL     1      17.263  14.572  24.518  0.00  0.00    +0.186 HD
ATOM     18  H   UNL     1      17.371  13.027  25.369  0.00  0.00    +0.186 HD
ATOM     19  C   UNL     1      21.912  11.292  24.958  0.00  0.00    +0.150 C 
ATOM     20  N   UNL     1      19.670  14.619  23.727  0.00  0.00    -0.236 NA
ENDBRANCH  10  11
BRANCH   7   6
ATOM      3  C   UNL     1      26.816  12.773  20.388  0.00  0.00    +0.152 A 
ATOM      4  N   UNL     1      26.593  12.547  21.699  0.00  0.00    -0.285 NA
ATOM      5  C   UNL     1      25.488  12.961  22.299  0.00  0.00    +0.092 A 
ATOM      6  C   UNL     1      24.509  13.648  21.585  0.00  0.00    +0.079 A 
ATOM     36  C   UNL     1      24.699  13.892  20.220  0.00  0.00    +0.037 A 
ATOM     37  C   UNL     1      25.873  13.454  19.618  0.00  0.00    +0.048 A 
BRANCH   3   2
ATOM      1  C   UNL     1      28.856  11.684  20.695  0.00  0.00    +0.234 C 
ATOM      2  O   UNL     1      27.959  12.338  19.786  0.00  0.00    -0.310 OA
ENDBRANCH   3   2
ENDBRANCH   7   6
BRANCH  22  23
ATOM     23  C   UNL     1      21.143  19.123  21.543  0.00  0.00    -0.040 C 
BRANCH  23  24
ATOM     24  N   UNL     1      20.411  19.108  20.273  0.00  0.00    +0.410 NA
ATOM     25  C   UNL     1      18.962  19.144  20.541  0.00  0.00    -0.086 C 
ATOM     26  C   UNL     1      18.258  18.882  19.212  0.00  0.00    +0.103 C 
ATOM     27  N   UNL     1      18.645  19.942  18.257  0.00  0.00    -0.243 NA
ATOM     32  C   UNL     1      20.110  20.058  18.059  0.00  0.00    +0.103 C 
ATOM     33  C   UNL     1      20.816  20.231  19.409  0.00  0.00    -0.086 C 
BRANCH  27  28
ATOM     28  S   UNL     1      17.923  19.688  16.806  0.00  0.00    +0.038 S 
ATOM     29  O   UNL     1      18.983  19.442  15.771  0.00  0.00    -0.156 OA
ATOM     30  O   UNL     1      16.986  18.503  16.852  0.00  0.00    -0.156 OA
ATOM     31  C   UNL     1      16.995  21.147  16.368  0.00  0.00    +0.218 C 
ENDBRANCH  27  28
ENDBRANCH  23  24
ENDBRANCH  22  23
TORSDOF 6
