REMARK  Name = 6I8Z
REMARK  7 active torsions:
REMARK  status: ('A' for Active; 'I' for Inactive)
REMARK    1  A    between atoms: C5_1  and  O13_20
REMARK    2  A    between atoms: C6_2  and  C9_16
REMARK    3  A    between atoms: C15_4  and  O13_20
REMARK    4  A    between atoms: N2_12  and  C33_33
REMARK    5  A    between atoms: C25_27  and  N27_28
REMARK    6  A    between atoms: C30_30  and  C37_37
REMARK    7  A    between atoms: C32_32  and  O35_35
REMARK                            x       y       z     vdW  Elec       q    Type
REMARK                         _______ _______ _______ _____ _____    ______ ____
ROOT
ATOM      1  C   UNL     1       5.258  22.849  29.052  0.00  0.00    +0.565 A 
ATOM     13  N   UNL     1       6.405  23.113  29.647  0.00  0.00    -0.760 NA
ATOM     14  C   UNL     1       6.816  22.202  30.548  0.00  0.00    +0.810 A 
ATOM     15  N   UNL     1       6.184  21.064  30.876  0.00  0.00    -0.760 NA
ATOM     16  C   UNL     1       5.027  20.836  30.241  0.00  0.00    +0.250 A 
ATOM     17  N   UNL     1       7.931  22.489  31.281  0.00  0.00    -0.350 NA
ATOM     36  C   UNL     1       4.472  21.702  29.310  0.00  0.00    +0.000 A 
ENDROOT
BRANCH  17  18
ATOM     18  C   UNL     1       8.708  23.666  31.362  0.00  0.00    +0.050 A 
ATOM     19  C   UNL     1       8.933  24.506  30.271  0.00  0.00    -0.130 A 
ATOM     20  C   UNL     1       9.678  25.660  30.425  0.00  0.00    -0.130 A 
ATOM     21  C   UNL     1      10.227  25.999  31.662  0.00  0.00    +0.000 A 
ATOM     32  C   UNL     1      10.011  25.170  32.761  0.00  0.00    -0.130 A 
ATOM     33  C   UNL     1       9.267  24.007  32.616  0.00  0.00    +0.185 A 
BRANCH  21  22
ATOM     22  C   UNL     1      11.085  27.215  31.832  0.00  0.00    +0.600 C 
ATOM     23  O   UNL     1      12.072  27.182  32.564  0.00  0.00    -0.550 OA
ATOM     24  N   UNL     1      10.719  28.331  31.178  0.00  0.00    -0.400 NA
BRANCH  24  25
ATOM     25  C   UNL     1      11.450  29.594  31.305  0.00  0.00    +0.050 C 
ATOM     26  C   UNL     1      11.673  30.237  29.947  0.00  0.00    -0.100 C 
ATOM     27  C   UNL     1      12.383  31.583  30.089  0.00  0.00    +0.100 C 
ATOM     28  N   UNL     1      11.593  32.487  30.980  0.00  0.00    +0.050 NA
ATOM     29  C   UNL     1      11.442  31.878  32.336  0.00  0.00    +0.100 C 
ATOM     30  C   UNL     1      12.199  33.846  31.057  0.00  0.00    +0.050 C 
ATOM     31  C   UNL     1      10.709  30.542  32.228  0.00  0.00    -0.100 C 
ENDBRANCH  24  25
ENDBRANCH  21  22
BRANCH  33  34
ATOM     34  O   UNL     1       9.037  23.090  33.606  0.00  0.00    -0.365 OA
ATOM     35  C   UNL     1       9.643  23.301  34.888  0.00  0.00    +0.030 C 
ENDBRANCH  33  34
ENDBRANCH  17  18
BRANCH  36  37
ATOM     37  C   UNL     1       3.159  21.387  28.652  0.00  0.00    +0.900 C 
ATOM     38  F   UNL     1       3.290  21.148  27.344  0.00  0.00    -0.300 F 
ATOM     39  F   UNL     1       2.278  22.378  28.774  0.00  0.00    -0.300 F 
ATOM     40  F   UNL     1       2.572  20.324  29.161  0.00  0.00    -0.300 F 
ENDBRANCH  36  37
BRANCH   1   2
ATOM      2  O   UNL     1       4.832  23.621  28.005  0.00  0.00    -0.370 OA
BRANCH   2   3
ATOM      3  C   UNL     1       5.659  24.594  27.440  0.00  0.00    +0.185 A 
ATOM      4  C   UNL     1       6.160  25.672  28.161  0.00  0.00    -0.130 A 
ATOM      5  C   UNL     1       7.006  26.574  27.531  0.00  0.00    -0.130 A 
ATOM      6  C   UNL     1       7.328  26.415  26.191  0.00  0.00    -0.130 A 
ATOM      7  C   UNL     1       6.812  25.349  25.459  0.00  0.00    +0.000 A 
ATOM      8  C   UNL     1       7.030  25.017  24.004  0.00  0.00    -0.100 C 
ATOM      9  C   UNL     1       6.198  23.746  23.767  0.00  0.00    -0.100 C 
ATOM     10  C   UNL     1       5.569  23.388  25.096  0.00  0.00    +0.550 C 
ATOM     11  O   UNL     1       4.858  22.422  25.303  0.00  0.00    -0.550 OA
ATOM     12  C   UNL     1       5.971  24.422  26.077  0.00  0.00    +0.000 A 
ENDBRANCH   2   3
ENDBRANCH   1   2
TORSDOF 7
