REMARK  Name = 5M4U
REMARK  4 active torsions:
REMARK  status: ('A' for Active; 'I' for Inactive)
REMARK    1  A    between atoms: C_4  and  C_21
REMARK    2  A    between atoms: C_5  and  O_8
REMARK    3  A    between atoms: O_10  and  C_22
REMARK    4  A    between atoms: C_19  and  C_20
REMARK                            x       y       z     vdW  Elec       q    Type
REMARK                         _______ _______ _______ _____ _____    ______ ____
ROOT
ATOM      9  C   UNL     1      10.536 -19.326  -8.976  0.00  0.00    +0.165 C 
ATOM     10  C   UNL     1      10.014 -20.596  -8.703  0.00  0.00    +0.168 C 
ATOM     13  C   UNL     1      10.894 -21.603  -8.196  0.00  0.00    +0.142 C 
ATOM     16  C   UNL     1      12.286 -21.232  -7.996  0.00  0.00    +0.055 C 
ATOM     17  C   UNL     1      12.684 -19.971  -8.300  0.00  0.00    +0.132 C 
ATOM     18  C   UNL     1      14.039 -19.581  -8.123  0.00  0.00    +0.104 C 
ATOM     19  C   UNL     1      14.962 -20.488  -7.628  0.00  0.00    +0.044 C 
ATOM     20  C   UNL     1      14.558 -21.788  -7.313  0.00  0.00    +0.073 C 
ATOM     21 CL   UNL     1      15.711 -22.920  -6.700  0.00  0.00    -0.116 Cl
ATOM     22 CL   UNL     1      14.497 -17.965  -8.520  0.00  0.00    -0.113 Cl
ATOM     23  C   UNL     1      13.228 -22.173  -7.491  0.00  0.00    +0.030 C 
ATOM     24  O   UNL     1      11.809 -19.066  -8.781  0.00  0.00    -0.350 OA
ENDROOT
BRANCH   9   2
ATOM      1  C   UNL     1       8.485 -18.385 -10.107  0.00  0.00    +0.007 A 
ATOM      2  C   UNL     1       9.731 -18.201  -9.522  0.00  0.00    -0.010 A 
ATOM      3  C   UNL     1      10.292 -16.934  -9.467  0.00  0.00    +0.007 A 
ATOM      4  C   UNL     1       9.607 -15.846  -9.979  0.00  0.00    +0.010 A 
ATOM      5  C   UNL     1       8.360 -16.030 -10.550  0.00  0.00    -0.003 A 
ATOM     25  C   UNL     1       7.794 -17.294 -10.614  0.00  0.00    +0.010 A 
BRANCH   5   6
ATOM      6  C   UNL     1       7.628 -14.861 -11.106  0.00  0.00    +0.072 C 
ATOM      7  O   UNL     1       8.008 -13.693 -10.820  0.00  0.00    -0.545 OA
ATOM      8  O   UNL     1       6.648 -15.056 -11.877  0.00  0.00    -0.545 OA
ENDBRANCH   5   6
ENDBRANCH   9   2
BRANCH  10  11
ATOM     11  O   UNL     1       8.696 -20.910  -8.900  0.00  0.00    -0.379 OA
ATOM     12  H   UNL     1       8.095 -20.284  -8.309  0.00  0.00    +0.211 HD
ENDBRANCH  10  11
BRANCH  13  14
ATOM     14  O   UNL     1      10.444 -22.860  -7.897  0.00  0.00    -0.382 OA
ATOM     15  H   UNL     1      10.967 -23.566  -8.473  0.00  0.00    +0.210 HD
ENDBRANCH  13  14
TORSDOF 4
