REMARK  Name = 4W8E
REMARK  4 active torsions:
REMARK  status: ('A' for Active; 'I' for Inactive)
REMARK    1  A    between atoms: C_9  and  C_15
REMARK    2  A    between atoms: C_20  and  C_21
REMARK    3  A    between atoms: C_22  and  C_24
REMARK    4  A    between atoms: C_28  and  C_29
REMARK                            x       y       z     vdW  Elec       q    Type
REMARK                         _______ _______ _______ _____ _____    ______ ____
ROOT
ATOM      1  N   UNL     1      -1.736  27.079  14.933  0.00  0.00    -0.235 NA
ATOM      2  C   UNL     1      -2.578  26.017  14.804  0.00  0.00    +0.165 A 
ATOM      3  C   UNL     1      -1.990  24.873  15.331  0.00  0.00    +0.068 A 
ATOM      4  C   UNL     1      -0.678  25.300  15.780  0.00  0.00    +0.014 A 
ATOM     13  C   UNL     1      -2.782  23.701  15.249  0.00  0.00    +0.135 A 
ATOM     14  N   UNL     1      -3.996  23.669  14.703  0.00  0.00    -0.220 NA
ATOM     15  C   UNL     1      -4.405  24.845  14.232  0.00  0.00    +0.225 A 
ATOM     16  N   UNL     1      -2.389  22.484  15.700  0.00  0.00    -0.310 N 
ATOM     17  C   UNL     1      -3.266  21.383  15.305  0.00  0.00    +0.146 C 
ATOM     18  C   UNL     1      -2.598  20.035  15.658  0.00  0.00    +0.206 C 
ATOM     19  O   UNL     1      -2.290  20.023  17.045  0.00  0.00    -0.366 OA
ATOM     20  C   UNL     1      -1.376  21.073  17.380  0.00  0.00    +0.179 C 
ATOM     27  C   UNL     1      -1.985  22.410  17.100  0.00  0.00    +0.135 C 
ATOM     28  N   UNL     1      -3.779  26.014  14.249  0.00  0.00    -0.216 NA
ATOM     29  C   UNL     1      -0.598  26.650  15.519  0.00  0.00    +0.122 A 
ENDROOT
BRANCH   4   5
ATOM      5  C   UNL     1       0.402  24.429  16.320  0.00  0.00    -0.014 A 
ATOM      6  C   UNL     1       1.200  24.873  17.365  0.00  0.00    +0.027 A 
ATOM      7  C   UNL     1       2.196  24.050  17.874  0.00  0.00    +0.052 A 
ATOM     10  C   UNL     1       2.407  22.802  17.332  0.00  0.00    +0.019 A 
ATOM     11  C   UNL     1       1.618  22.358  16.296  0.00  0.00    +0.002 A 
ATOM     12  C   UNL     1       0.620  23.163  15.792  0.00  0.00    +0.008 A 
BRANCH   7   8
ATOM      8  C   UNL     1       2.965  24.483  19.006  0.00  0.00    +0.099 C 
ATOM      9  N   UNL     1       3.570  24.793  19.912  0.00  0.00    -0.191 NA
ENDBRANCH   7   8
ENDBRANCH   4   5
BRANCH  18  21
ATOM     21  C   UNL     1      -3.527  18.859  15.452  0.00  0.00    +0.202 A 
ATOM     22  N   UNL     1      -4.678  18.940  14.860  0.00  0.00    -0.059 NA
ATOM     23  O   UNL     1      -5.117  17.601  14.828  0.00  0.00    -0.338 OA
ATOM     24  C   UNL     1      -4.165  16.882  15.428  0.00  0.00    +0.224 A 
ATOM     25  C   UNL     1      -4.402  15.429  15.586  0.00  0.00    +0.112 C 
ATOM     26  N   UNL     1      -3.167  17.595  15.829  0.00  0.00    -0.194 NA
ENDBRANCH  18  21
TORSDOF 3
