REMARK  Name = AEKK
REMARK  6 active torsions:
REMARK  status: ('A' for Active; 'I' for Inactive)
REMARK    1  A    between atoms: C4_2  and  N_12
REMARK    2  A    between atoms: C5_3  and  C6_4
REMARK    3  A    between atoms: C5_3  and  N_12
REMARK    4  A    between atoms: C7_6  and  C8_7
REMARK    5  A    between atoms: C8_7  and  N2_8
REMARK    6  A    between atoms: C1_18  and  C_19
REMARK                            x       y       z     vdW  Elec       q    Type
REMARK                         _______ _______ _______ _____ _____    ______ ____
ROOT
ATOM      8  N   UNL     1      65.239  28.717  12.756  0.00  0.00    -0.184 NA
ENDROOT
BRANCH   8   7
ATOM      3  C4* UNL     1      63.780  31.556  11.805  0.00  0.00    +0.183 C 
ATOM      4  C3* UNL     1      64.920  31.863  12.760  0.00  0.00    +0.216 C 
ATOM      5  C2* UNL     1      64.665  30.865  13.892  0.00  0.00    +0.228 C 
ATOM      6  O2* UNL     1      63.643  31.275  14.796  0.00  0.00    -0.216 OA
ATOM      7  C1* UNL     1      64.174  29.647  13.110  0.00  0.00    +0.223 C 
ATOM     18  O3* UNL     1      64.879  33.221  13.203  0.00  0.00    -0.218 OA
ATOM     19  O4* UNL     1      63.595  30.129  11.911  0.00  0.00    -0.334 OA
BRANCH   3   2
ATOM      1  O5* UNL     1      65.199  31.326   9.845  0.00  0.00    -0.218 OA
ATOM      2  C5* UNL     1      64.017  31.921  10.358  0.00  0.00    +0.214 C 
ENDBRANCH   3   2
ENDBRANCH   8   7
BRANCH   8   9
ATOM      9  C   UNL     1      65.896  28.662  11.552  0.00  0.00    +0.125 C 
BRANCH   9  10
ATOM     10  C   UNL     1      66.807  27.659  11.590  0.00  0.00    +0.038 C 
ATOM     11  C   UNL     1      66.756  27.051  12.871  0.00  0.00    +0.104 C 
ATOM     17 BR   UNL     1      67.917  27.077  10.195  0.00  0.00    -0.052 Br
BRANCH  11  12
ATOM     12  C   UNL     1      67.423  26.002  13.542  0.00  0.00    +0.429 C 
ATOM     16  N   UNL     1      68.435  25.318  13.004  0.00  0.00    +0.200 NA
BRANCH  12  13
ATOM     13  N   UNL     1      67.038  25.716  14.801  0.00  0.00    -0.006 NA
ATOM     14  C   UNL     1      66.063  26.444  15.350  0.00  0.00    +0.343 C 
ATOM     15  N   UNL     1      65.382  27.465  14.826  0.00  0.00    -0.075 NA
ENDBRANCH  12  13
ENDBRANCH  11  12
ENDBRANCH   9  10
ENDBRANCH   8   9
TORSDOF 6
