REMARK  Name = 4ZOG
REMARK  8 active torsions:
REMARK  status: ('A' for Active; 'I' for Inactive)
REMARK    1  A    between atoms: N_1  and  C_7
REMARK    2  A    between atoms: N_4  and  C_8
REMARK    3  A    between atoms: C_10  and  N_14
REMARK    4  A    between atoms: C_12  and  S_21
REMARK    5  A    between atoms: C_17  and  C_20
REMARK    6  A    between atoms: S_21  and  C_22
REMARK    7  A    between atoms: N_28  and  C_29
REMARK    8  A    between atoms: C_29  and  C_31
REMARK                            x       y       z     vdW  Elec       q    Type
REMARK                         _______ _______ _______ _____ _____    ______ ____
ROOT
ATOM      6  C   UNL     1     -10.412  12.298  -2.044  0.00  0.00    +0.130 A 
ATOM      7  N   UNL     1     -10.415  13.396  -2.841  0.00  0.00    -0.207 NA
ATOM      8  C   UNL     1     -11.570  13.939  -3.304  0.00  0.00    +0.195 A 
ATOM     22  N   UNL     1     -12.760  13.396  -2.953  0.00  0.00    -0.179 NA
ATOM     23  C   UNL     1     -12.810  12.307  -2.156  0.00  0.00    +0.274 A 
ATOM     31  C   UNL     1     -11.634  11.726  -1.680  0.00  0.00    +0.120 A 
ENDROOT
BRANCH   6   5
ATOM      1  N   UNL     1      -6.738  10.373  -1.811  0.00  0.00    -0.302 NA
ATOM      2  C   UNL     1      -5.409   9.851  -1.442  0.00  0.00    +0.105 C 
ATOM      3  C   UNL     1      -6.733  11.841  -1.809  0.00  0.00    +0.103 C 
ATOM      4  C   UNL     1      -8.060  12.310  -2.384  0.00  0.00    +0.122 C 
ATOM      5  N   UNL     1      -9.174  11.802  -1.556  0.00  0.00    -0.313 N 
ATOM     32  C   UNL     1      -9.146  10.339  -1.360  0.00  0.00    +0.122 C 
ATOM     33  C   UNL     1      -7.769   9.900  -0.871  0.00  0.00    +0.103 C 
ENDBRANCH   6   5
BRANCH  23  24
ATOM     24  N   UNL     1     -13.995  11.765  -1.824  0.00  0.00    -0.013 NA
ATOM     25  C   UNL     1     -15.202  12.312  -2.104  0.00  0.00    +0.396 C 
ATOM     26  N   UNL     1     -16.192  11.619  -1.537  0.00  0.00    +0.086 NA
ATOM     27  N   UNL     1     -17.391  12.251  -1.889  0.00  0.00    -0.040 NA
ATOM     28  C   UNL     1     -17.066  13.309  -2.654  0.00  0.00    +0.093 C 
ATOM     29  C   UNL     1     -17.928  14.360  -3.313  0.00  0.00    +0.070 C 
ATOM     30  C   UNL     1     -15.690  13.401  -2.832  0.00  0.00    +0.135 C 
ENDBRANCH  23  24
BRANCH   8   9
ATOM      9  S   UNL     1     -11.492  15.334  -4.284  0.00  0.00    -0.069 S 
BRANCH   9  10
ATOM     10  C   UNL     1     -13.097  15.904  -4.482  0.00  0.00    +0.083 C 
ATOM     11  C   UNL     1     -13.866  16.347  -3.401  0.00  0.00    -0.001 C 
ATOM     12  C   UNL     1     -15.172  16.806  -3.597  0.00  0.00    +0.022 C 
ATOM     13  C   UNL     1     -15.734  16.850  -4.885  0.00  0.00    +0.056 C 
ATOM     14  N   UNL     1     -16.999  17.285  -5.154  0.00  0.00    -0.181 NA
ATOM     20  C   UNL     1     -14.963  16.413  -5.961  0.00  0.00    +0.022 C 
ATOM     21  C   UNL     1     -13.661  15.939  -5.765  0.00  0.00    -0.001 C 
BRANCH  14  15
ATOM     15  C   UNL     1     -17.963  17.643  -4.282  0.00  0.00    +0.240 C 
ATOM     19  O   UNL     1     -17.850  17.649  -3.063  0.00  0.00    -0.273 OA
BRANCH  15  16
ATOM     16  C   UNL     1     -19.283  18.037  -4.905  0.00  0.00    +0.077 C 
ATOM     17  C   UNL     1     -20.178  18.771  -3.907  0.00  0.00    +0.013 C 
ATOM     18  C   UNL     1     -20.468  17.318  -4.247  0.00  0.00    +0.013 C 
ENDBRANCH  15  16
ENDBRANCH  14  15
ENDBRANCH   9  10
ENDBRANCH   8   9
TORSDOF 6
