REMARK  Name = 4uwh_ligand
REMARK  6 active torsions:
REMARK  status: ('A' for Active; 'I' for Inactive)
REMARK    1  A    between atoms: C6_6  and  C19_19
REMARK    2  A    between atoms: C8_8  and  N22_22
REMARK    3  A    between atoms: C17_17  and  C20_20
REMARK    4  A    between atoms: C18_18  and  C19_19
REMARK    5  A    between atoms: C18_18  and  N24_24
REMARK    6  A    between atoms: C19_19  and  O27_27
REMARK                            x       y       z     vdW  Elec       q    Type
REMARK                         _______ _______ _______ _____ _____    ______ ____
ROOT
ATOM      9  N   UNL     1      20.852 -15.699 -23.431  0.00  0.00    -0.293 N 
ATOM     10  C   UNL     1      21.661 -16.854 -23.865  0.00  0.00    +0.201 C 
ATOM     15  C   UNL     1      21.051 -18.165 -23.325  0.00  0.00    +0.062 C 
ATOM     16  C   UNL     1      19.576 -18.267 -23.708  0.00  0.00    +0.138 C 
ATOM     17  N   UNL     1      18.817 -17.061 -23.304  0.00  0.00    -0.230 N 
ATOM     18  C   UNL     1      17.430 -17.192 -23.078  0.00  0.00    +0.277 A 
ATOM     19  O   UNL     1      16.801 -18.232 -23.194  0.00  0.00    -0.339 OA
ATOM     20  C   UNL     1      16.721 -15.940 -22.657  0.00  0.00    +0.343 A 
ATOM     21  C   UNL     1      17.422 -14.764 -22.523  0.00  0.00    +0.302 A 
ATOM     28  N   UNL     1      18.787 -14.759 -22.771  0.00  0.00    -0.192 N 
ATOM     29  H   UNL     1      19.297 -13.873 -22.643  0.00  0.00    +0.245 HD
ATOM     30  C   UNL     1      19.471 -15.811 -23.159  0.00  0.00    +0.207 A 
ENDROOT
BRANCH  21  22
ATOM     22  N   UNL     1      16.823 -13.526 -22.143  0.00  0.00    -0.207 N 
ATOM     23  C   UNL     1      15.384 -13.241 -22.381  0.00  0.00    +0.206 C 
ATOM     24  C   UNL     1      14.883 -12.101 -21.493  0.00  0.00    +0.191 C 
ATOM     25  O   UNL     1      15.780 -10.986 -21.574  0.00  0.00    -0.375 OA
ATOM     26  C   UNL     1      17.086 -11.285 -21.089  0.00  0.00    +0.191 C 
ATOM     27  C   UNL     1      17.698 -12.300 -22.037  0.00  0.00    +0.206 C 
ENDBRANCH  21  22
BRANCH  10  11
ATOM     11  C   UNL     1      21.748 -16.846 -25.386  0.00  0.00    +0.413 C 
ATOM     12  F   UNL     1      22.457 -15.769 -25.818  0.00  0.00    -0.168 F 
ATOM     13  F   UNL     1      20.542 -16.833 -26.005  0.00  0.00    -0.168 F 
ATOM     14  F   UNL     1      22.384 -17.952 -25.803  0.00  0.00    -0.168 F 
ENDBRANCH  10  11
BRANCH   9   8
ATOM      8  C   UNL     1      21.559 -14.407 -23.301  0.00  0.00    +0.179 C 
BRANCH   8   5
ATOM      5  C   UNL     1      22.301 -14.287 -21.967  0.00  0.00    +0.188 C 
BRANCH   5   4
ATOM      1  C   UNL     1      23.071 -10.110 -20.949  0.00  0.00    -0.013 A 
ATOM      2  C   UNL     1      24.021 -10.865 -21.680  0.00  0.00    -0.009 A 
ATOM      3  C   UNL     1      23.771 -12.223 -22.013  0.00  0.00    -0.002 A 
ATOM      4  C   UNL     1      22.554 -12.834 -21.610  0.00  0.00    -0.013 A 
ATOM     31  C   UNL     1      21.602 -12.054 -20.867  0.00  0.00    -0.002 A 
ATOM     32  C   UNL     1      21.860 -10.699 -20.536  0.00  0.00    -0.009 A 
ENDBRANCH   5   4
BRANCH   5   6
ATOM      6  O   UNL     1      21.573 -14.900 -20.915  0.00  0.00    -0.377 OA
ATOM      7  H   UNL     1      22.057 -14.810 -20.102  0.00  0.00    +0.213 HD
ENDBRANCH   5   6
ENDBRANCH   8   5
ENDBRANCH   9   8
TORSDOF 6
