REMARK  Name = 1dm2_ligand
REMARK  1 active torsions:
REMARK  status: ('A' for Active; 'I' for Inactive)
REMARK    1  A    between atoms: C8_16  and  C9_17
REMARK                            x       y       z     vdW  Elec       q    Type
REMARK                         _______ _______ _______ _____ _____    ______ ____
ROOT
ATOM      1 BR   UNL     1      23.120  26.871  28.136  0.00  0.00    -0.025 Br
ATOM      2  C   UNL     1      24.565  28.027  28.082  0.00  0.00    +0.093 A 
ATOM      3  C   UNL     1      25.729  27.908  27.381  0.00  0.00    -0.020 A 
ATOM      4  C   UNL     1      26.490  29.072  27.672  0.00  0.00    -0.011 A 
ATOM      5  C   UNL     1      25.692  29.833  28.581  0.00  0.00    +0.130 A 
ATOM      6  C   UNL     1      25.860  31.121  29.268  0.00  0.00    +0.212 C 
ATOM      7  N   UNL     1      26.744  32.069  28.786  0.00  0.00    -0.288 N 
ATOM      8  H   UNL     1      26.799  32.919  29.310  0.00  0.00    +0.183 HD
ATOM      9  C   UNL     1      27.615  31.988  27.601  0.00  0.00    +0.139 C 
ATOM     10  C   UNL     1      28.521  30.770  27.600  0.00  0.00    +0.065 C 
ATOM     11  O   UNL     1      25.184  31.320  30.286  0.00  0.00    -0.396 OA
ATOM     12  C   UNL     1      27.838  29.518  27.057  0.00  0.00    +0.134 C 
ATOM     22  N   UNL     1      24.542  29.157  28.792  0.00  0.00    -0.279 N 
ATOM     23  H   UNL     1      23.771  29.464  29.403  0.00  0.00    +0.232 HD
ENDROOT
BRANCH  12  13
ATOM     13  C   UNL     1      28.432  28.805  26.010  0.00  0.00    +0.134 C 
ATOM     14  C   UNL     1      29.725  29.046  25.251  0.00  0.00    +0.246 C 
ATOM     15  N   UNL     1      29.858  28.107  24.284  0.00  0.00    -0.269 NA
ATOM     16  C   UNL     1      28.789  27.308  24.381  0.00  0.00    +0.168 C 
ATOM     17  N   UNL     1      28.548  26.271  23.602  0.00  0.00    -0.296 N 
ATOM     18  H   UNL     1      27.702  25.702  23.749  0.00  0.00    +0.192 HD
ATOM     19  H   UNL     1      29.206  26.030  22.847  0.00  0.00    +0.192 HD
ATOM     20  O   UNL     1      30.537  29.959  25.467  0.00  0.00    -0.309 OA
ATOM     21  N   UNL     1      27.950  27.650  25.376  0.00  0.00    -0.225 NA
ENDBRANCH  12  13
TORSDOF 1
