REMARK  Name = 5N93
REMARK  9 active torsions:
REMARK  status: ('A' for Active; 'I' for Inactive)
REMARK    1  A    between atoms: C_1  and  C_22
REMARK    2  A    between atoms: C_3  and  N_19
REMARK    3  A    between atoms: C_5  and  N_19
REMARK    4  A    between atoms: C_6  and  C_8
REMARK    5  A    between atoms: C_10  and  N_11
REMARK    6  A    between atoms: N_13  and  C_14
REMARK    7  A    between atoms: C_14  and  C_15
REMARK    8  A    between atoms: C_14  and  C_16
REMARK    9  A    between atoms: C_14  and  C_17
REMARK                            x       y       z     vdW  Elec       q    Type
REMARK                         _______ _______ _______ _____ _____    ______ ____
ROOT
ATOM     12  C   UNL     1      -0.066  33.143  45.827  0.00  0.00    +0.127 A 
ATOM     13  N   UNL     1      -0.566  34.265  45.257  0.00  0.00    -0.216 NA
ATOM     14  C   UNL     1      -1.394  34.221  44.226  0.00  0.00    +0.141 A 
ATOM     15  N   UNL     1      -1.930  35.329  43.618  0.00  0.00    -0.323 N 
ATOM     16  H   UNL     1      -2.729  35.203  42.918  0.00  0.00    +0.148 HD
ATOM     21  C   UNL     1      -1.749  32.902  43.630  0.00  0.00    +0.112 A 
ATOM     22  C   UNL     1      -1.191  31.711  44.271  0.00  0.00    +0.049 A 
ATOM     28  C   UNL     1      -0.351  31.883  45.349  0.00  0.00    +0.068 A 
ENDROOT
BRANCH  15  17
ATOM     17  C   UNL     1      -1.442  36.670  43.899  0.00  0.00    +0.025 C 
ATOM     18  C   UNL     1       0.049  36.814  43.786  0.00  0.00    +0.031 C 
ATOM     19  C   UNL     1      -2.159  37.453  42.800  0.00  0.00    +0.031 C 
ATOM     20  C   UNL     1      -1.945  37.083  45.275  0.00  0.00    +0.031 C 
ENDBRANCH  15  17
BRANCH  22  23
ATOM     23  N   UNL     1      -1.495  30.358  43.774  0.00  0.00    -0.357 N 
ATOM     24  H   UNL     1      -1.075  29.503  44.260  0.00  0.00    +0.142 HD
ATOM     25  H   UNL     1      -2.136  30.231  42.927  0.00  0.00    +0.142 HD
ENDBRANCH  22  23
BRANCH  12  10
ATOM     10  N   UNL     1       0.803  33.139  46.913  0.00  0.00    -0.299 N 
ATOM     11  H   UNL     1       1.283  32.223  47.186  0.00  0.00    +0.154 HD
BRANCH  10   9
ATOM      1  C   UNL     1       1.648  36.430  49.351  0.00  0.00    +0.037 A 
ATOM      7  C   UNL     1       1.340  36.657  48.012  0.00  0.00    +0.015 A 
ATOM      8  C   UNL     1       1.070  35.594  47.173  0.00  0.00    +0.024 A 
ATOM      9  C   UNL     1       1.074  34.304  47.669  0.00  0.00    +0.032 A 
ATOM     29  C   UNL     1       1.407  34.082  48.995  0.00  0.00    +0.024 A 
ATOM     30  C   UNL     1       1.682  35.140  49.842  0.00  0.00    +0.015 A 
BRANCH   1   2
ATOM      2  C   UNL     1       1.976  37.577  50.260  0.00  0.00    +0.241 C 
ATOM      3  N   UNL     1       2.418  38.776  49.665  0.00  0.00    -0.325 N 
ATOM      4  H   UNL     1       2.663  39.619  50.277  0.00  0.00    +0.145 HD
ATOM      5  H   UNL     1       2.509  38.843  48.601  0.00  0.00    +0.145 HD
ATOM      6  O   UNL     1       1.886  37.474  51.471  0.00  0.00    -0.270 OA
ENDBRANCH   1   2
ENDBRANCH  10   9
ENDBRANCH  12  10
BRANCH  21  26
ATOM     26  C   UNL     1      -2.575  32.775  42.679  0.00  0.00    +0.105 C 
ATOM     27  N   UNL     1      -3.370  32.602  41.842  0.00  0.00    -0.191 NA
ENDBRANCH  21  26
TORSDOF 6
