REMARK  Name = 1UDW
REMARK  10 active torsions:
REMARK  status: ('A' for Active; 'I' for Inactive)
REMARK    1  A    between atoms: N_1  and  C_9
REMARK    2  A    between atoms: C_10  and  O_11
REMARK    3  A    between atoms: C_12  and  O_15
REMARK    4  A    between atoms: C_13  and  C_16
REMARK    5  A    between atoms: C_16  and  O_17
REMARK    6  A    between atoms: O_17  and  P_18
REMARK    7  A    between atoms: P_18  and  O_21
REMARK    8  A    between atoms: O_21  and  P_22
REMARK    9  A    between atoms: P_22  and  O_25
REMARK   10  A    between atoms: O_25  and  P_26
REMARK                            x       y       z     vdW  Elec       q    Type
REMARK                         _______ _______ _______ _____ _____    ______ ____
ROOT
ATOM      2  C   UNL     1      10.158  35.785  34.381  0.00  0.00    +0.255 C 
ATOM      3  O   UNL     1      10.562  36.933  33.693  0.00  0.00    -0.346 OA
ATOM      4  C   UNL     1      11.455  36.540  32.635  0.00  0.00    +0.178 C 
ATOM     19  C   UNL     1      10.969  35.161  32.219  0.00  0.00    +0.178 C 
ATOM     22  C   UNL     1      10.030  34.705  33.301  0.00  0.00    +0.195 C 
ENDROOT
BRANCH   2   1
ATOM      1  N   UNL     1       8.882  36.034  35.122  0.00  0.00    -0.270 N 
ATOM     25  C   UNL     1       7.737  36.539  34.489  0.00  0.00    +0.096 C 
ATOM     26  C   UNL     1       6.519  36.786  35.135  0.00  0.00    +0.061 C 
ATOM     27  C   UNL     1       6.501  36.487  36.517  0.00  0.00    +0.123 C 
ATOM     28  N   UNL     1       5.395  36.676  37.254  0.00  0.00    -0.343 N 
ATOM     29  H   UNL     1       4.506  37.058  36.797  0.00  0.00    +0.144 HD
ATOM     30  H   UNL     1       5.402  36.444  38.299  0.00  0.00    +0.144 HD
ATOM     31  N   UNL     1       7.633  35.983  37.176  0.00  0.00    -0.178 NA
ATOM     32  C   UNL     1       8.780  35.768  36.485  0.00  0.00    +0.352 C 
ATOM     33  O   UNL     1       9.733  35.320  37.152  0.00  0.00    -0.244 OA
ENDBRANCH   2   1
BRANCH  19  20
ATOM     20  O   UNL     1      12.162  34.401  32.125  0.00  0.00    -0.386 OA
ATOM     21  H   UNL     1      12.687  34.459  33.032  0.00  0.00    +0.210 HD
ENDBRANCH  19  20
BRANCH  22  23
ATOM     23  O   UNL     1      10.306  33.406  33.822  0.00  0.00    -0.385 OA
ATOM     24  H   UNL     1      11.285  33.381  34.201  0.00  0.00    +0.210 HD
ENDBRANCH  22  23
BRANCH   4   5
ATOM      5  C   UNL     1      11.325  37.260  31.370  0.00  0.00    +0.202 C 
BRANCH   5   6
ATOM      6  O   UNL     1      11.560  38.632  31.516  0.00  0.00    -0.325 OA
BRANCH   6   7
ATOM      7  P   UNL     1      13.089  39.212  31.154  0.00  0.00    +0.218 P 
ATOM     17  O   UNL     1      14.097  38.331  31.914  0.00  0.00    -0.437 OA
ATOM     18  O   UNL     1      13.240  39.046  29.632  0.00  0.00    -0.517 OA
BRANCH   7   8
ATOM      8  O   UNL     1      13.267  40.772  31.698  0.00  0.00    -0.270 OA
BRANCH   8   9
ATOM      9  P   UNL     1      13.574  41.979  30.633  0.00  0.00    +0.221 P 
ATOM     15  O   UNL     1      12.374  42.177  29.676  0.00  0.00    -0.517 OA
ATOM     16  O   UNL     1      13.742  43.219  31.546  0.00  0.00    -0.437 OA
BRANCH   9  10
ATOM     10  O   UNL     1      14.951  41.575  29.772  0.00  0.00    -0.314 OA
BRANCH  10  11
ATOM     11  P   UNL     1      16.465  42.182  30.026  0.00  0.00    -0.007 P 
ATOM     12  O   UNL     1      16.846  41.862  31.486  0.00  0.00    -0.637 OA
ATOM     13  O   UNL     1      17.322  41.438  28.968  0.00  0.00    -0.577 OA
ATOM     14  O   UNL     1      16.373  43.735  29.788  0.00  0.00    -0.577 OA
ENDBRANCH  10  11
ENDBRANCH   9  10
ENDBRANCH   8   9
ENDBRANCH   7   8
ENDBRANCH   6   7
ENDBRANCH   5   6
ENDBRANCH   4   5
TORSDOF 10
