REMARK  Name = 6NFI
REMARK  5 active torsions:
REMARK  status: ('A' for Active; 'I' for Inactive)
REMARK    1  A    between atoms: C6_2  and  N5_19
REMARK    2  A    between atoms: C16_7  and  C17_8
REMARK    3  A    between atoms: C16_7  and  N15_24
REMARK    4  A    between atoms: C27_14  and  O28_15
REMARK    5  A    between atoms: S2_16  and  N5_19
REMARK                            x       y       z     vdW  Elec       q    Type
REMARK                         _______ _______ _______ _____ _____    ______ ____
ROOT
ATOM      4  C   UNL     1     -19.912  -6.096 -20.821  0.00  0.00    +0.050 C 
ATOM      5  C   UNL     1     -18.859  -5.739 -21.682  0.00  0.00    +0.185 C 
ATOM      6  C   UNL     1     -17.614  -5.427 -21.153  0.00  0.00    -0.130 C 
ATOM      7  C   UNL     1     -17.409  -5.452 -19.772  0.00  0.00    +0.000 C 
ATOM      8  C   UNL     1     -16.215  -5.137 -18.988  0.00  0.00    +0.100 C 
ATOM      9  N   UNL     1     -14.939  -4.731 -19.132  0.00  0.00    -0.400 NA
ATOM     10  N   UNL     1     -14.360  -4.602 -17.877  0.00  0.00    -0.100 NA
ATOM     11  C   UNL     1     -15.262  -4.910 -16.994  0.00  0.00    +0.100 C 
ATOM     12  N   UNL     1     -15.036  -4.881 -15.620  0.00  0.00    -0.400 NA
ATOM     22  C   UNL     1     -16.454  -5.249 -17.664  0.00  0.00    +0.100 C 
ATOM     23  C   UNL     1     -17.894  -5.693 -17.507  0.00  0.00    -0.200 C 
ATOM     24  C   UNL     1     -18.455  -5.778 -18.908  0.00  0.00    +0.050 C 
ATOM     27  C   UNL     1     -19.697  -6.102 -19.428  0.00  0.00    -0.130 C 
ENDROOT
BRANCH   5  25
ATOM     25  O   UNL     1     -19.028  -5.737 -23.038  0.00  0.00    -0.365 OA
ATOM     26  C   UNL     1     -18.635  -4.584 -23.792  0.00  0.00    +0.030 C 
ENDBRANCH   5  25
BRANCH   4   3
ATOM      3  N   UNL     1     -21.163  -6.409 -21.379  0.00  0.00    -0.420 NA
BRANCH   3   2
ATOM      1  C   UNL     1     -23.015  -7.040 -19.429  0.00  0.00    -0.090 C 
ATOM      2  S   UNL     1     -22.103  -7.676 -20.861  0.00  0.00    +1.360 S 
ATOM     28  O   UNL     1     -23.006  -7.885 -21.937  0.00  0.00    -0.650 OA
ATOM     29  O   UNL     1     -21.189  -8.696 -20.475  0.00  0.00    -0.650 OA
ENDBRANCH   3   2
ENDBRANCH   4   3
BRANCH  12  13
ATOM     13  C   UNL     1     -16.200  -4.880 -14.733  0.00  0.00    +0.000 C 
BRANCH  13  14
ATOM     14  C   UNL     1     -15.759  -4.631 -13.314  0.00  0.00    +0.000 C 
ATOM     15  C   UNL     1     -15.507  -5.703 -12.453  0.00  0.00    +0.000 C 
ATOM     16  C   UNL     1     -15.108  -5.447 -11.153  0.00  0.00    -0.130 C 
ATOM     17  C   UNL     1     -14.954  -4.152 -10.691  0.00  0.00    -0.130 C 
ATOM     18  C   UNL     1     -15.202  -3.092 -11.548  0.00  0.00    -0.130 C 
ATOM     19  C   UNL     1     -15.650  -7.149 -12.869  0.00  0.00    -0.150 C 
ATOM     20  C   UNL     1     -15.598  -3.319 -12.853  0.00  0.00    +0.000 C 
ATOM     21  C   UNL     1     -15.847  -2.103 -13.716  0.00  0.00    -0.150 C 
ENDBRANCH  13  14
ENDBRANCH  12  13
TORSDOF 5
