REMARK  Name = 08H
REMARK  1 active torsions:
REMARK  status: ('A' for Active; 'I' for Inactive)
REMARK    1  A    between atoms: CAO_16  and  CAQ_17
REMARK                            x       y       z     vdW  Elec       q    Type
REMARK                         _______ _______ _______ _____ _____    ______ ____
ROOT
ATOM      1  C   UNL     1      25.700   1.000   9.000  0.00  0.00    +0.000 C 
ENDROOT
TORSDOF 0
