REMARK  Name = 3psb_ligand
REMARK  8 active torsions:
REMARK  status: ('A' for Active; 'I' for Inactive)
REMARK    1  A    between atoms: C4_4  and  N10_10
REMARK    2  A    between atoms: C7_7  and  N12_12
REMARK    3  A    between atoms: N10_10  and  C11_11
REMARK    4  A    between atoms: N12_12  and  O23_23
REMARK    5  A    between atoms: C16_16  and  C17_17
REMARK    6  A    between atoms: C17_17  and  O24_24
REMARK    7  A    between atoms: O24_24  and  C26_26
REMARK    8  A    between atoms: C25_25  and  C26_26
REMARK                            x       y       z     vdW  Elec       q    Type
REMARK                         _______ _______ _______ _____ _____    ______ ____
ROOT
ATOM     13  N   UNL     1      84.218   7.018  -7.050  0.00  0.00    -0.280 N 
ATOM     14  H   UNL     1      84.968   6.598  -6.501  0.00  0.00    +0.207 HD
ENDROOT
BRANCH  13  12
ATOM      1  C   UNL     1      80.732   4.877  -6.504  0.00  0.00    -0.004 A 
ATOM      2  C   UNL     1      79.459   4.199  -6.453  0.00  0.00    +0.134 C 
ATOM      8  C   UNL     1      78.711   4.735  -7.693  0.00  0.00    +0.079 C 
ATOM      9  C   UNL     1      79.651   5.676  -8.502  0.00  0.00    +0.065 C 
ATOM     10  C   UNL     1      81.765   4.766  -5.557  0.00  0.00    -0.020 A 
ATOM     11  C   UNL     1      82.941   5.514  -5.775  0.00  0.00    -0.007 A 
ATOM     12  C   UNL     1      83.071   6.344  -6.911  0.00  0.00    +0.045 A 
ATOM     29  C   UNL     1      82.030   6.448  -7.860  0.00  0.00    +0.001 A 
ATOM     30  C   UNL     1      80.862   5.700  -7.625  0.00  0.00    -0.045 A 
BRANCH   2   3
ATOM      3  N   UNL     1      79.059   3.382  -5.566  0.00  0.00    +0.398 N 
ATOM      4  H   UNL     1      78.540   2.630  -6.019  0.00  0.00    +0.236 HD
ATOM      5  H   UNL     1      79.869   3.010  -5.070  0.00  0.00    +0.236 HD
BRANCH   3   6
ATOM      6  O   UNL     1      78.199   4.041  -4.625  0.00  0.00    -0.343 OA
ATOM      7  H   UNL     1      77.907   3.410  -3.963  0.00  0.00    +0.269 HD
ENDBRANCH   3   6
ENDBRANCH   2   3
ENDBRANCH  13  12
BRANCH  13  15
ATOM     15  C   UNL     1      84.664   8.150  -7.751  0.00  0.00    +0.093 A 
ATOM     16  C   UNL     1      85.992   8.351  -8.241  0.00  0.00    +0.129 A 
ATOM     22  S   UNL     1      86.227   9.879  -9.077  0.00  0.00    -0.034 S 
ATOM     23  C   UNL     1      84.550  10.299  -8.789  0.00  0.00    +0.066 A 
ATOM     24  C   UNL     1      83.905  11.490  -9.192  0.00  0.00    +0.103 A 
ATOM     25  N   UNL     1      82.600  11.708  -8.913  0.00  0.00    -0.306 NA
ATOM     26  C   UNL     1      81.910  10.764  -8.235  0.00  0.00    +0.077 A 
ATOM     27  C   UNL     1      82.482   9.545  -7.798  0.00  0.00    +0.037 A 
ATOM     28  C   UNL     1      83.845   9.313  -8.088  0.00  0.00    +0.036 A 
BRANCH  16  17
ATOM     17  C   UNL     1      87.123   7.472  -8.136  0.00  0.00    +0.253 C 
ATOM     21  O   UNL     1      86.968   6.327  -7.697  0.00  0.00    -0.375 OA
BRANCH  17  18
ATOM     18  O   UNL     1      88.320   8.112  -8.083  0.00  0.00    -0.283 OA
BRANCH  18  19
ATOM     19  C   UNL     1      89.541   7.460  -8.430  0.00  0.00    +0.193 C 
ATOM     20  C   UNL     1      90.488   8.460  -9.121  0.00  0.00    +0.039 C 
ENDBRANCH  18  19
ENDBRANCH  17  18
ENDBRANCH  16  17
ENDBRANCH  13  15
TORSDOF 7
