REMARK  Name = 4deb_ligand
REMARK  5 active torsions:
REMARK  status: ('A' for Active; 'I' for Inactive)
REMARK    1  A    between atoms: N01_1  and  C11_11
REMARK    2  A    between atoms: N04_4  and  C13_13
REMARK    3  A    between atoms: N04_4  and  C16_16
REMARK    4  A    between atoms: C08_8  and  C23_23
REMARK    5  A    between atoms: C20_20  and  C22_22
REMARK                            x       y       z     vdW  Elec       q    Type
REMARK                         _______ _______ _______ _____ _____    ______ ____
ROOT
ATOM      1  N   UNL     1      -2.830 -32.894   6.730  0.00  0.00    -0.242 N 
ATOM      2  H   UNL     1      -2.567 -33.590   7.428  0.00  0.00    +0.219 HD
ATOM      3  C   UNL     1      -3.450 -31.844   7.189  0.00  0.00    +0.197 A 
ATOM      4  N   UNL     1      -3.685 -31.829   8.533  0.00  0.00    -0.268 NA
ATOM      5  C   UNL     1      -4.334 -30.727   9.026  0.00  0.00    +0.086 A 
ATOM      6  C   UNL     1      -4.753 -29.650   8.244  0.00  0.00    +0.057 A 
ATOM      7  C   UNL     1      -4.461 -29.769   6.876  0.00  0.00    +0.135 A 
ATOM     20  N   UNL     1      -3.816 -30.847   6.336  0.00  0.00    -0.234 NA
ENDROOT
BRANCH   1  21
ATOM     21  C   UNL     1      -2.498 -33.179   5.494  0.00  0.00    +0.070 A 
ATOM     22  C   UNL     1      -3.171 -32.667   4.346  0.00  0.00    +0.023 A 
ATOM     23  C   UNL     1      -2.760 -33.037   3.045  0.00  0.00    +0.013 A 
ATOM     24  C   UNL     1      -1.673 -33.928   2.864  0.00  0.00    +0.038 A 
ATOM     30  C   UNL     1      -1.009 -34.433   4.001  0.00  0.00    +0.013 A 
ATOM     31  C   UNL     1      -1.421 -34.060   5.298  0.00  0.00    +0.023 A 
BRANCH  24  25
ATOM     25  C   UNL     1      -1.276 -34.299   1.598  0.00  0.00    +0.194 C 
ATOM     26  O   UNL     1      -0.449 -35.185   1.434  0.00  0.00    -0.390 OA
ATOM     27  N   UNL     1      -1.824 -33.693   0.496  0.00  0.00    -0.302 N 
ATOM     28  H   UNL     1      -2.515 -32.952   0.612  0.00  0.00    +0.180 HD
ATOM     29  H   UNL     1      -1.540 -33.983  -0.440  0.00  0.00    +0.180 HD
ENDBRANCH  24  25
ENDBRANCH   1  21
BRANCH   7   8
ATOM      8  N   UNL     1      -4.800 -28.805   6.081  0.00  0.00    -0.250 N 
ATOM      9  H   UNL     1      -4.255 -27.944   6.136  0.00  0.00    +0.216 HD
BRANCH   8  10
ATOM     10  C   UNL     1      -5.762 -28.836   5.229  0.00  0.00    +0.093 A 
ATOM     11  C   UNL     1      -7.050 -28.426   5.643  0.00  0.00    +0.066 A 
ATOM     12  C   UNL     1      -8.142 -28.426   4.734  0.00  0.00    +0.038 A 
ATOM     17  C   UNL     1      -7.939 -28.851   3.370  0.00  0.00    +0.035 A 
ATOM     18  C   UNL     1      -6.637 -29.267   2.943  0.00  0.00    +0.027 A 
ATOM     19  C   UNL     1      -5.548 -29.258   3.870  0.00  0.00    +0.070 A 
BRANCH  12  13
ATOM     13  C   UNL     1      -9.497 -27.963   5.247  0.00  0.00    +0.374 C 
ATOM     14  F   UNL     1     -10.103 -28.995   5.978  0.00  0.00    -0.221 F 
ATOM     15  F   UNL     1     -10.329 -27.592   4.184  0.00  0.00    -0.221 F 
ATOM     16  F   UNL     1      -9.308 -26.842   6.081  0.00  0.00    -0.221 F 
ENDBRANCH  12  13
ENDBRANCH   8  10
ENDBRANCH   7   8
TORSDOF 5
