REMARK  Name = 3qd3_ligand
REMARK  9 active torsions:
REMARK  status: ('A' for Active; 'I' for Inactive)
REMARK    1  A    between atoms: C6_6  and  C8_8
REMARK    2  A    between atoms: C10_10  and  N28_28
REMARK    3  A    between atoms: C12_12  and  O32_32
REMARK    4  A    between atoms: C16_16  and  N30_30
REMARK    5  A    between atoms: C17_17  and  C18_18
REMARK    6  A    between atoms: C19_19  and  C22_22
REMARK    7  A    between atoms: C20_20  and  C22_22
REMARK    8  A    between atoms: C21_21  and  C22_22
REMARK    9  A    between atoms: C22_22  and  O32_32
REMARK                            x       y       z     vdW  Elec       q    Type
REMARK                         _______ _______ _______ _____ _____    ______ ____
ROOT
ATOM     13  C   UNL     1     -44.176  17.056  11.522  0.00  0.00    +0.038 A 
ATOM     14  N   UNL     1     -45.078  16.341  10.832  0.00  0.00    -0.271 NA
ATOM     15  C   UNL     1     -46.244  16.938  10.533  0.00  0.00    +0.167 A 
ATOM     16  N   UNL     1     -47.206  16.217   9.818  0.00  0.00    -0.307 N 
ATOM     17  H   UNL     1     -48.109  16.654   9.584  0.00  0.00    +0.182 HD
ATOM     18  H   UNL     1     -47.011  15.249   9.525  0.00  0.00    +0.182 HD
ATOM     19  N   UNL     1     -46.575  18.187  10.875  0.00  0.00    -0.245 NA
ATOM     20  C   UNL     1     -45.663  18.897  11.551  0.00  0.00    +0.114 A 
ATOM     21  N   UNL     1     -45.987  20.210  11.974  0.00  0.00    -0.285 N 
ATOM     22  C   UNL     1     -44.912  20.999  12.549  0.00  0.00    +0.096 C 
ATOM     23  C   UNL     1     -44.372  22.000  11.560  0.00  0.00    +0.034 C 
ATOM     24  C   UNL     1     -45.619  21.722  13.672  0.00  0.00    +0.030 C 
ATOM     25  C   UNL     1     -46.840  22.472  13.147  0.00  0.00    +0.032 C 
ATOM     26  C   UNL     1     -47.783  21.526  12.421  0.00  0.00    +0.122 C 
ATOM     36  C   UNL     1     -47.021  20.930  11.252  0.00  0.00    +0.165 C 
ATOM     37  C   UNL     1     -44.442  18.353  11.907  0.00  0.00    +0.055 A 
ENDROOT
BRANCH  13  12
ATOM      1  C   UNL     1     -40.666  16.455  12.775  0.00  0.00    +0.030 A 
ATOM      2  C   UNL     1     -40.573  15.082  12.577  0.00  0.00    +0.079 A 
ATOM      3  C   UNL     1     -39.573  14.088  12.778  0.00  0.00    +0.241 A 
ATOM      7  N   UNL     1     -40.008  12.880  12.397  0.00  0.00    -0.255 N 
ATOM      8  H   UNL     1     -39.495  11.987  12.426  0.00  0.00    +0.254 HD
ATOM      9  N   UNL     1     -41.267  13.095  11.968  0.00  0.00    -0.440 NA
ATOM     10  C   UNL     1     -41.655  14.407  12.049  0.00  0.00    -0.048 A 
ATOM     11  C   UNL     1     -42.846  15.007  11.694  0.00  0.00    +0.012 A 
ATOM     12  C   UNL     1     -42.936  16.371  11.888  0.00  0.00    -0.001 A 
ATOM     38  C   UNL     1     -41.859  17.057  12.421  0.00  0.00    +0.018 A 
BRANCH   3   4
ATOM      4  N   UNL     1     -38.339  14.372  13.287  0.00  0.00    -0.261 N 
ATOM      5  H   UNL     1     -37.646  13.620  13.407  0.00  0.00    +0.210 HD
ATOM      6  H   UNL     1     -38.101  15.339  13.551  0.00  0.00    +0.210 HD
ENDBRANCH   3   4
ENDBRANCH  13  12
BRANCH  26  27
ATOM     27  N   UNL     1     -49.002  22.204  12.042  0.00  0.00    -0.258 N 
ATOM     28  H   UNL     1     -48.944  23.110  11.623  0.00  0.00    +0.187 HD
ATOM     29  C   UNL     1     -50.242  21.638  12.242  0.00  0.00    +0.320 C 
ATOM     35  O   UNL     1     -50.477  20.574  12.793  0.00  0.00    -0.378 OA
BRANCH  29  30
ATOM     30  O   UNL     1     -51.189  22.451  11.700  0.00  0.00    -0.258 OA
BRANCH  30  31
ATOM     31  C   UNL     1     -52.549  22.089  11.922  0.00  0.00    +0.090 C 
ATOM     32  C   UNL     1     -52.895  20.859  11.114  0.00  0.00    +0.046 C 
ATOM     33  C   UNL     1     -53.391  23.246  11.428  0.00  0.00    +0.046 C 
ATOM     34  C   UNL     1     -52.806  21.881  13.401  0.00  0.00    +0.046 C 
ENDBRANCH  30  31
ENDBRANCH  29  30
ENDBRANCH  26  27
TORSDOF 5
