REMARK  Name = A8Q
REMARK  6 active torsions:
REMARK  status: ('A' for Active; 'I' for Inactive)
REMARK    1  A    between atoms: C1_1  and  C3_10
REMARK    2  A    between atoms: C8_3  and  C9_4
REMARK    3  A    between atoms: C12_7  and  C13_8
REMARK    4  A    between atoms: C1_19  and  C3_28
REMARK    5  A    between atoms: C8_21  and  C9_22
REMARK    6  A    between atoms: C12_25  and  C13_26
REMARK                            x       y       z     vdW  Elec       q    Type
REMARK                         _______ _______ _______ _____ _____    ______ ____
ROOT
ATOM      2  C   UNL     1      15.827 120.758 368.363  0.00  0.00    -0.022 A 
ATOM      3  C   UNL     1      15.419 121.271 369.613  0.00  0.00    -0.003 A 
ATOM     13  C   UNL     1      16.006 122.452 370.085  0.00  0.00    -0.000 A 
ATOM     14  C   UNL     1      16.979 123.102 369.341  0.00  0.00    -0.000 A 
ATOM     15  C   UNL     1      17.361 122.605 368.108  0.00  0.00    -0.000 A 
ATOM     16  C   UNL     1      16.787 121.441 367.618  0.00  0.00    -0.004 A 
ENDROOT
BRANCH   3   4
ATOM      4  C   UNL     1      14.444 120.571 370.506  0.00  0.00    +0.010 A 
ATOM      5  C   UNL     1      14.851 119.423 371.200  0.00  0.00    +0.001 A 
ATOM      6  C   UNL     1      14.010 118.815 372.117  0.00  0.00    -0.003 A 
ATOM      7  C   UNL     1      12.744 119.322 372.382  0.00  0.00    -0.002 A 
ATOM     10  C   UNL     1      12.322 120.453 371.680  0.00  0.00    +0.009 A 
ATOM     11  C   UNL     1      13.162 121.063 370.766  0.00  0.00    +0.057 A 
ATOM     12 CL   UNL     1      12.619 122.512 369.974  0.00  0.00    -0.082 Cl
BRANCH   7   8
ATOM      8  C   UNL     1      11.831 118.690 373.429  0.00  0.00    +0.136 C 
ATOM      9  N   UNL     1      10.411 118.737 373.171  0.00  0.00    -0.126 NA
ENDBRANCH   7   8
ENDBRANCH   3   4
BRANCH   2   1
ATOM      1  C   UNL     1      15.275 119.434 367.856  0.00  0.00    +0.022 C 
ATOM     17  C   UNL     1      16.369 118.473 367.380  0.00  0.00    +0.005 C 
ATOM     18  C   UNL     1      14.218 119.614 366.777  0.00  0.00    +0.005 C 
ENDBRANCH   2   1
TORSDOF 3
