REMARK  Name = 5WR7
REMARK  13 active torsions:
REMARK  status: ('A' for Active; 'I' for Inactive)
REMARK    1  A    between atoms: C_1  and  C_2
REMARK    2  A    between atoms: C_2  and  C_3
REMARK    3  A    between atoms: C_2  and  C_4
REMARK    4  A    between atoms: C_2  and  N_24
REMARK    5  A    between atoms: C_5  and  C_6
REMARK    6  A    between atoms: C_7  and  C_29
REMARK    7  A    between atoms: C_8  and  C_27
REMARK    8  A    between atoms: C_9  and  C_10
REMARK    9  A    between atoms: C_18  and  N_37
REMARK   10  A    between atoms: C_19  and  S_38
REMARK   11  A    between atoms: C_22  and  C_23
REMARK   12  A    between atoms: C_22  and  C_41
REMARK   13  A    between atoms: N_37  and  S_38
REMARK                            x       y       z     vdW  Elec       q    Type
REMARK                         _______ _______ _______ _____ _____    ______ ____
ROOT
ATOM     15  C   UNL     1      -8.656 -22.633  17.876  0.00  0.00    +0.029 A 
ATOM     16  C   UNL     1      -9.851 -22.985  18.517  0.00  0.00    +0.018 A 
ATOM     17  C   UNL     1      -9.892 -23.192  19.888  0.00  0.00    +0.013 A 
ATOM     18  C   UNL     1      -8.693 -23.064  20.610  0.00  0.00    +0.031 A 
ATOM     19  C   UNL     1      -8.278 -23.208  22.000  0.00  0.00    +0.072 A 
ATOM     20  C   UNL     1      -8.992 -23.636  23.214  0.00  0.00    +0.197 C 
ATOM     21  C   UNL     1      -8.155 -23.804  24.447  0.00  0.00    +0.027 A 
ATOM     22  C   UNL     1      -8.761 -24.261  25.627  0.00  0.00    +0.014 A 
ATOM     23  C   UNL     1      -8.045 -24.432  26.781  0.00  0.00    +0.025 A 
ATOM     24  C   UNL     1      -6.674 -24.151  26.809  0.00  0.00    +0.048 A 
ATOM     31  C   UNL     1      -6.069 -23.696  25.642  0.00  0.00    +0.029 A 
ATOM     32  C   UNL     1      -6.780 -23.513  24.460  0.00  0.00    -0.022 A 
ATOM     33  C   UNL     1      -6.031 -23.026  23.244  0.00  0.00    +0.049 C 
ATOM     34  C   UNL     1      -5.360 -21.667  23.467  0.00  0.00    +0.024 C 
ATOM     35  C   UNL     1      -4.949 -24.057  22.886  0.00  0.00    +0.024 C 
ATOM     36  O   UNL     1     -10.183 -23.885  23.181  0.00  0.00    -0.286 OA
ATOM     37  C   UNL     1      -6.923 -22.961  22.036  0.00  0.00    +0.127 A 
ATOM     38  O   UNL     1      -6.520 -22.646  20.822  0.00  0.00    -0.458 OA
ATOM     39  C   UNL     1      -7.499 -22.705  19.942  0.00  0.00    +0.137 A 
ATOM     40  C   UNL     1      -7.470 -22.476  18.588  0.00  0.00    +0.063 A 
ENDROOT
BRANCH  15  14
ATOM     13  C   UNL     1      -8.279 -22.203  15.353  0.00  0.00    -0.041 C 
ATOM     14  C   UNL     1      -8.456 -22.397  16.487  0.00  0.00    -0.059 C 
BRANCH  13  12
ATOM      7  C   UNL     1      -8.245 -22.968  11.758  0.00  0.00    +0.041 A 
ATOM      8  C   UNL     1      -7.701 -21.763  11.272  0.00  0.00    +0.036 A 
ATOM      9  C   UNL     1      -7.371 -20.744  12.162  0.00  0.00    +0.040 A 
ATOM     10  C   UNL     1      -6.803 -19.459  11.634  0.00  0.00    +0.065 C 
ATOM     11  N   UNL     1      -7.547 -20.865  13.468  0.00  0.00    -0.243 NA
ATOM     12  C   UNL     1      -8.066 -21.978  13.969  0.00  0.00    +0.115 A 
ATOM     41  C   UNL     1      -8.407 -23.056  13.142  0.00  0.00    +0.050 A 
BRANCH   7   5
ATOM      3  N   UNL     1      -7.870 -24.426   9.799  0.00  0.00    -0.307 N 
ATOM      4  H   UNL     1      -7.048 -23.777   9.580  0.00  0.00    +0.149 HD
ATOM      5  C   UNL     1      -8.621 -24.136  10.903  0.00  0.00    +0.245 C 
ATOM      6  O   UNL     1      -9.577 -24.832  11.221  0.00  0.00    -0.270 OA
BRANCH   3   2
ATOM      1  C   UNL     1      -7.070 -25.476   7.726  0.00  0.00    +0.031 C 
ATOM      2  C   UNL     1      -8.102 -25.574   8.874  0.00  0.00    +0.026 C 
ATOM     42  C   UNL     1      -9.535 -25.553   8.282  0.00  0.00    +0.031 C 
ATOM     43  C   UNL     1      -7.866 -26.884   9.671  0.00  0.00    +0.031 C 
ENDBRANCH   3   2
ENDBRANCH   7   5
ENDBRANCH  13  12
ENDBRANCH  15  14
BRANCH  24  25
ATOM     25  N   UNL     1      -5.839 -24.275  27.932  0.00  0.00    -0.221 N 
ATOM     26  H   UNL     1      -5.537 -23.276  28.167  0.00  0.00    +0.173 HD
BRANCH  25  27
ATOM     27  S   UNL     1      -6.247 -24.956  29.387  0.00  0.00    +0.040 S 
ATOM     28  O   UNL     1      -7.492 -24.391  29.775  0.00  0.00    -0.156 OA
ATOM     29  O   UNL     1      -5.092 -24.698  30.175  0.00  0.00    -0.156 OA
ATOM     30  C   UNL     1      -6.404 -26.727  29.048  0.00  0.00    +0.218 C 
ENDBRANCH  25  27
ENDBRANCH  24  25
TORSDOF 6
