REMARK  Name = 7EA
REMARK  3 active torsions:
REMARK  status: ('A' for Active; 'I' for Inactive)
REMARK    1  A    between atoms: C13_7  and  O18_20
REMARK    2  A    between atoms: C1_10  and  C2_14
REMARK    3  A    between atoms: C9_15  and  O14_19
REMARK                            x       y       z     vdW  Elec       q    Type
REMARK                         _______ _______ _______ _____ _____    ______ ____
ROOT
ATOM      1  N   UNL     1      -9.123  -5.788  -7.304  0.00  0.00    -0.163 NA
ATOM      2  C   UNL     1      -9.360  -6.681  -6.390  0.00  0.00    +0.102 A 
ATOM     13  C   UNL     1     -10.682  -7.147  -6.145  0.00  0.00    +0.024 A 
ATOM     14  C   UNL     1     -11.738  -6.672  -6.889  0.00  0.00    +0.042 A 
ATOM     15  C   UNL     1     -11.484  -5.679  -7.863  0.00  0.00    +0.186 A 
ATOM     16  N   UNL     1     -12.209  -4.959  -8.717  0.00  0.00    -0.127 NA
ATOM     17  N   UNL     1     -11.424  -4.177  -9.382  0.00  0.00    -0.132 NA
ATOM     18  C   UNL     1     -10.187  -4.320  -8.982  0.00  0.00    +0.164 A 
ATOM     19  C   UNL     1      -8.939  -3.616  -9.455  0.00  0.00    +0.076 C 
ATOM     20  N   UNL     1     -10.185  -5.255  -8.030  0.00  0.00    -0.195 N 
ENDROOT
BRANCH   2   3
ATOM      3  C   UNL     1      -8.170  -7.216  -5.681  0.00  0.00    +0.023 A 
ATOM      4  C   UNL     1      -8.308  -7.777  -4.414  0.00  0.00    +0.042 A 
ATOM      5  C   UNL     1      -7.186  -8.297  -3.778  0.00  0.00    +0.172 A 
ATOM      8  C   UNL     1      -5.936  -8.253  -4.398  0.00  0.00    +0.172 A 
ATOM     11  C   UNL     1      -5.789  -7.680  -5.662  0.00  0.00    +0.040 A 
ATOM     12  C   UNL     1      -6.906  -7.162  -6.299  0.00  0.00    +0.005 A 
BRANCH   5   6
ATOM      6  O   UNL     1      -7.280  -8.885  -2.552  0.00  0.00    -0.468 OA
ATOM      7  C   UNL     1      -8.563  -8.969  -1.917  0.00  0.00    +0.253 C 
ENDBRANCH   5   6
BRANCH   8   9
ATOM      9  O   UNL     1      -4.876  -8.786  -3.719  0.00  0.00    -0.468 OA
ATOM     10  C   UNL     1      -3.555  -8.698  -4.273  0.00  0.00    +0.253 C 
ENDBRANCH   8   9
ENDBRANCH   2   3
TORSDOF 3
