REMARK  Name = RNH
REMARK  12 active torsions:
REMARK  status: ('A' for Active; 'I' for Inactive)
REMARK    1  A    between atoms: CAA_1  and  CAJ_7
REMARK    2  A    between atoms: CAA_1  and  CAY_21
REMARK    3  A    between atoms: CAJ_7  and  CAK_8
REMARK    4  A    between atoms: CAK_8  and  CAL_9
REMARK    5  A    between atoms: CAL_9  and  CAM_10
REMARK    6  A    between atoms: CAM_10  and  NAQ_14
REMARK    7  A    between atoms: CAN_11  and  CAO_12
REMARK    8  A    between atoms: CAN_11  and  NAR_15
REMARK    9  A    between atoms: CAO_12  and  CAT_17
REMARK   10  A    between atoms: CAP_13  and  CAW_20
REMARK   11  A    between atoms: CAU_18  and  CAV_19
REMARK   12  A    between atoms: CAV_19  and  CAW_20
REMARK                            x       y       z     vdW  Elec       q    Type
REMARK                         _______ _______ _______ _____ _____    ______ ____
ROOT
ATOM      8  C   UNL     1      32.674  11.722  -9.669  0.00  0.00    +0.110 C 
ENDROOT
BRANCH   8   7
ATOM      6  N   UNL     1      32.910  10.637 -11.800  0.00  0.00    -0.205 NA
ATOM      7  C   UNL     1      33.517  10.912 -10.631  0.00  0.00    +0.243 C 
ATOM     20  O   UNL     1      34.641  10.524 -10.285  0.00  0.00    -0.273 OA
BRANCH   6   5
ATOM      5  C   UNL     1      33.547   9.821 -12.861  0.00  0.00    +0.115 C 
BRANCH   5   4
ATOM      4  C   UNL     1      34.186  10.681 -13.977  0.00  0.00    +0.023 C 
BRANCH   4   3
ATOM      3  C   UNL     1      35.349   9.922 -14.701  0.00  0.00    +0.002 C 
BRANCH   3   2
ATOM      2  C   UNL     1      34.861   9.014 -15.841  0.00  0.00    +0.000 C 
BRANCH   2   1
ATOM      1  C   UNL     1      36.025   8.325 -16.573  0.00  0.00    +0.000 C 
BRANCH   1  21
ATOM     21  C   UNL     1      35.512   7.483 -17.751  0.00  0.00    +0.000 C 
ATOM     22  C   UNL     1      36.683   6.976 -18.621  0.00  0.00    +0.000 C 
ENDBRANCH   1  21
ENDBRANCH   2   1
ENDBRANCH   3   2
ENDBRANCH   4   3
ENDBRANCH   5   4
ENDBRANCH   6   5
ENDBRANCH   8   7
BRANCH   8   9
ATOM      9  C   UNL     1      32.206  10.840  -8.526  0.00  0.00    +0.125 C 
BRANCH   9  10
ATOM     10  N   UNL     1      31.688  11.706  -7.479  0.00  0.00    -0.203 NA
ATOM     11  C   UNL     1      32.508  12.285  -6.593  0.00  0.00    +0.272 C 
ATOM     19  O   UNL     1      33.732  12.126  -6.587  0.00  0.00    -0.271 OA
BRANCH  11  12
ATOM     12  C   UNL     1      31.799  13.104  -5.514  0.00  0.00    +0.231 C 
ATOM     18  O   UNL     1      30.382  12.853  -5.621  0.00  0.00    -0.213 OA
BRANCH  12  13
ATOM     13  C   UNL     1      32.043  14.621  -5.596  0.00  0.00    +0.067 C 
ATOM     16  C   UNL     1      33.517  14.929  -5.343  0.00  0.00    +0.006 C 
ATOM     17  C   UNL     1      31.637  15.186  -6.957  0.00  0.00    +0.006 C 
BRANCH  13  14
ATOM     14  C   UNL     1      31.164  15.292  -4.511  0.00  0.00    +0.185 C 
ATOM     15  O   UNL     1      31.226  14.596  -3.189  0.00  0.00    -0.220 OA
ENDBRANCH  13  14
ENDBRANCH  12  13
ENDBRANCH  11  12
ENDBRANCH   9  10
ENDBRANCH   8   9
TORSDOF 12
