REMARK  Name = 4hvg_ligand
REMARK  8 active torsions:
REMARK  status: ('A' for Active; 'I' for Inactive)
REMARK    1  A    between atoms: C1_1  and  C10_10
REMARK    2  A    between atoms: C8_8  and  C19_19
REMARK    3  A    between atoms: N11_11  and  C13_13
REMARK    4  A    between atoms: C13_13  and  C14_14
REMARK    5  A    between atoms: C13_13  and  C15_15
REMARK    6  A    between atoms: C15_15  and  C16_16
REMARK    7  A    between atoms: C15_15  and  C17_17
REMARK    8  A    between atoms: C15_15  and  O18_18
REMARK                            x       y       z     vdW  Elec       q    Type
REMARK                         _______ _______ _______ _____ _____    ______ ____
ROOT
ATOM      1  C   UNL     1       0.651 -13.519  -4.167  0.00  0.00    +0.073 A 
ATOM     13  C   UNL     1      -0.387 -14.515  -3.874  0.00  0.00    +0.079 A 
ATOM     14  N   UNL     1      -0.420 -15.834  -3.922  0.00  0.00    -0.296 NA
ATOM     15  C   UNL     1      -1.538 -16.499  -3.580  0.00  0.00    +0.041 A 
ATOM     19  C   UNL     1      -2.668 -15.808  -3.159  0.00  0.00    +0.107 A 
ATOM     20  N   UNL     1      -2.651 -14.481  -3.106  0.00  0.00    -0.265 NA
ATOM     21  C   UNL     1      -1.538 -13.798  -3.457  0.00  0.00    +0.164 A 
ATOM     22  N   UNL     1      -1.201 -12.444  -3.510  0.00  0.00    -0.250 N 
ATOM     23  H   UNL     1      -1.836 -11.669  -3.269  0.00  0.00    +0.237 HD
ATOM     24  C   UNL     1       0.102 -12.292  -3.931  0.00  0.00    +0.175 A 
ENDROOT
BRANCH   1   2
ATOM      2  C   UNL     1       2.002 -13.859  -4.644  0.00  0.00    +0.182 C 
ATOM      3  O   UNL     1       2.887 -13.018  -4.808  0.00  0.00    -0.402 OA
ATOM      4  N   UNL     1       2.185 -15.177  -4.897  0.00  0.00    -0.286 N 
ATOM      5  H   UNL     1       1.429 -15.803  -4.706  0.00  0.00    +0.184 HD
BRANCH   4   6
ATOM      6  C   UNL     1       3.424 -15.735  -5.433  0.00  0.00    +0.124 C 
ATOM     12  C   UNL     1       3.876 -16.933  -4.573  0.00  0.00    +0.036 C 
BRANCH   6   7
ATOM      7  C   UNL     1       3.112 -16.172  -6.900  0.00  0.00    +0.083 C 
ATOM     10  C   UNL     1       2.784 -14.957  -7.754  0.00  0.00    +0.043 C 
ATOM     11  C   UNL     1       1.860 -17.069  -7.011  0.00  0.00    +0.043 C 
BRANCH   7   8
ATOM      8  O   UNL     1       4.272 -16.868  -7.424  0.00  0.00    -0.387 OA
ATOM      9  H   UNL     1       5.036 -16.308  -7.351  0.00  0.00    +0.210 HD
ENDBRANCH   7   8
ENDBRANCH   6   7
ENDBRANCH   4   6
ENDBRANCH   1   2
BRANCH  15  16
ATOM     16  C   UNL     1      -1.572 -18.012  -3.641  0.00  0.00    +0.058 C 
ATOM     17  C   UNL     1      -0.207 -18.740  -3.608  0.00  0.00    +0.023 C 
ATOM     18  C   UNL     1      -1.043 -18.711  -4.896  0.00  0.00    +0.023 C 
ENDBRANCH  15  16
TORSDOF 5
