REMARK  Name = 2C0I
REMARK  9 active torsions:
REMARK  status: ('A' for Active; 'I' for Inactive)
REMARK    1  A    between atoms: C_1  and  C_3
REMARK    2  A    between atoms: N_9  and  C_15
REMARK    3  A    between atoms: C_13  and  O_18
REMARK    4  A    between atoms: C_17  and  N_21
REMARK    5  A    between atoms: O_18  and  C_22
REMARK    6  A    between atoms: C_25  and  C_27
REMARK    7  A    between atoms: C_26  and  N_29
REMARK    8  A    between atoms: N_30  and  C_35
REMARK    9  A    between atoms: N_41  and  C_44
REMARK                            x       y       z     vdW  Elec       q    Type
REMARK                         _______ _______ _______ _____ _____    ______ ____
ROOT
ATOM      1  C   UNL     1       3.321  63.180  12.907  0.00  0.00    +0.105 A 
ATOM      2  N   UNL     1       3.597  61.867  12.723  0.00  0.00    -0.168 NA
ATOM      3  N   UNL     1       4.776  61.801  11.992  0.00  0.00    -0.243 N 
ATOM     17  C   UNL     1       5.224  63.032  11.734  0.00  0.00    +0.164 A 
ATOM     18  N   UNL     1       6.319  63.430  11.061  0.00  0.00    -0.216 NA
ATOM     19  C   UNL     1       6.542  64.737  10.940  0.00  0.00    +0.225 A 
ATOM     20  N   UNL     1       5.686  65.638  11.469  0.00  0.00    -0.220 NA
ATOM     21  C   UNL     1       4.587  65.311  12.145  0.00  0.00    +0.131 A 
ATOM     22  N   UNL     1       3.809  66.336  12.616  0.00  0.00    -0.343 N 
ATOM     23  H   UNL     1       4.103  67.351  12.449  0.00  0.00    +0.144 HD
ATOM     24  H   UNL     1       2.908  66.121  13.151  0.00  0.00    +0.144 HD
ATOM     47  C   UNL     1       4.321  63.943  12.293  0.00  0.00    +0.086 A 
ENDROOT
BRANCH   3   4
ATOM      4  C   UNL     1       5.380  60.462  11.656  0.00  0.00    +0.110 C 
ATOM      5  C   UNL     1       5.845  59.759  12.950  0.00  0.00    +0.028 C 
ATOM      6  C   UNL     1       6.381  58.354  12.658  0.00  0.00    +0.021 C 
ATOM      7  C   UNL     1       5.325  57.518  11.936  0.00  0.00    +0.057 C 
ATOM     15  C   UNL     1       4.934  58.213  10.631  0.00  0.00    +0.021 C 
ATOM     16  C   UNL     1       4.366  59.593  10.908  0.00  0.00    +0.028 C 
BRANCH   7   8
ATOM      8  N   UNL     1       5.827  56.122  11.657  0.00  0.00    -0.297 NA
ATOM      9  C   UNL     1       6.860  56.130  10.614  0.00  0.00    +0.100 C 
ATOM     10  C   UNL     1       7.250  54.679  10.284  0.00  0.00    +0.099 C 
ATOM     11  N   UNL     1       7.788  54.021  11.508  0.00  0.00    -0.303 NA
ATOM     12  C   UNL     1       8.155  52.615  11.200  0.00  0.00    +0.105 C 
ATOM     13  C   UNL     1       6.766  54.047  12.592  0.00  0.00    +0.099 C 
ATOM     14  C   UNL     1       6.359  55.501  12.885  0.00  0.00    +0.100 C 
ENDBRANCH   7   8
ENDBRANCH   3   4
BRANCH   1  25
ATOM     25  C   UNL     1       2.091  63.629  13.607  0.00  0.00    +0.006 A 
ATOM     26  C   UNL     1       1.811  63.276  14.935  0.00  0.00    +0.012 A 
ATOM     27  C   UNL     1       0.617  63.722  15.507  0.00  0.00    +0.027 A 
ATOM     28  C   UNL     1      -0.297  64.475  14.758  0.00  0.00    +0.076 A 
ATOM     43  C   UNL     1      -0.034  64.773  13.439  0.00  0.00    +0.142 A 
ATOM     46  C   UNL     1       1.175  64.371  12.864  0.00  0.00    +0.057 A 
BRANCH  28  29
ATOM     29  N   UNL     1      -1.520  64.893  15.268  0.00  0.00    -0.277 N 
ATOM     30  H   UNL     1      -2.360  64.915  14.605  0.00  0.00    +0.155 HD
ATOM     31  C   UNL     1      -1.711  65.268  16.531  0.00  0.00    +0.265 C 
ATOM     32  O   UNL     1      -0.800  65.336  17.338  0.00  0.00    -0.268 OA
BRANCH  31  33
ATOM     33  C   UNL     1      -3.088  65.598  16.973  0.00  0.00    +0.106 A 
ATOM     34  C   UNL     1      -4.222  64.958  16.504  0.00  0.00    +0.041 A 
ATOM     35  C   UNL     1      -5.269  65.583  17.253  0.00  0.00    +0.001 A 
ATOM     36  C   UNL     1      -6.642  65.358  17.174  0.00  0.00    +0.010 A 
ATOM     37  C   UNL     1      -7.511  66.093  18.001  0.00  0.00    +0.001 A 
ATOM     38  C   UNL     1      -7.012  67.065  18.875  0.00  0.00    +0.002 A 
ATOM     39  C   UNL     1      -5.630  67.290  18.925  0.00  0.00    +0.026 A 
ATOM     40  C   UNL     1      -4.769  66.543  18.112  0.00  0.00    +0.049 A 
ATOM     41  N   UNL     1      -3.421  66.515  17.918  0.00  0.00    -0.339 N 
ATOM     42  C   UNL     1      -2.439  67.379  18.629  0.00  0.00    +0.149 C 
ENDBRANCH  31  33
ENDBRANCH  28  29
BRANCH  43  44
ATOM     44  O   UNL     1      -0.972  65.514  12.790  0.00  0.00    -0.493 OA
ATOM     45  C   UNL     1      -0.606  66.321  11.677  0.00  0.00    +0.277 C 
ENDBRANCH  43  44
ENDBRANCH   1  25
TORSDOF 6
