REMARK  Name = 4FSU
REMARK  6 active torsions:
REMARK  status: ('A' for Active; 'I' for Inactive)
REMARK    1  A    between atoms: C_2  and  C_3
REMARK    2  A    between atoms: C_8  and  C_9
REMARK    3  A    between atoms: C_19  and  C_23
REMARK    4  A    between atoms: C_20  and  O_21
REMARK    5  A    between atoms: O_21  and  C_22
REMARK    6  A    between atoms: C_23  and  N_24
REMARK                            x       y       z     vdW  Elec       q    Type
REMARK                         _______ _______ _______ _____ _____    ______ ____
ROOT
ATOM      7  C   UNL     1      15.457  -3.495   9.871  0.00  0.00    +0.070 A 
ATOM      8  C   UNL     1      16.741  -4.100   9.856  0.00  0.00    +0.010 A 
ATOM      9  C   UNL     1      17.575  -5.225  10.396  0.00  0.00    +0.075 C 
ATOM     10  C   UNL     1      18.947  -4.871   9.846  0.00  0.00    -0.033 A 
ATOM     11  C   UNL     1      20.166  -5.541  10.017  0.00  0.00    +0.013 A 
ATOM     12  C   UNL     1      21.325  -5.059   9.344  0.00  0.00    +0.014 A 
ATOM     19  C   UNL     1      21.224  -3.909   8.517  0.00  0.00    +0.126 A 
ATOM     22  C   UNL     1      19.985  -3.220   8.359  0.00  0.00    +0.056 A 
ATOM     23  C   UNL     1      18.885  -3.721   9.025  0.00  0.00    +0.009 A 
ATOM     24  C   UNL     1      17.540  -3.262   9.062  0.00  0.00    +0.097 A 
ATOM     25  N   UNL     1      16.772  -2.219   8.613  0.00  0.00    -0.173 NA
ATOM     26  N   UNL     1      15.505  -2.342   9.089  0.00  0.00    -0.276 N 
ATOM     27  H   UNL     1      14.741  -1.876   8.612  0.00  0.00    +0.189 HD
ENDROOT
BRANCH   7   6
ATOM      3  C   UNL     1      12.005  -4.694  12.057  0.00  0.00    +0.052 A 
ATOM      4  C   UNL     1      13.139  -5.481  12.083  0.00  0.00    +0.019 A 
ATOM      5  C   UNL     1      14.257  -5.091  11.353  0.00  0.00    +0.011 A 
ATOM      6  C   UNL     1      14.241  -3.896  10.590  0.00  0.00    +0.000 A 
ATOM     28  C   UNL     1      13.064  -3.113  10.561  0.00  0.00    +0.011 A 
ATOM     29  C   UNL     1      11.954  -3.503  11.298  0.00  0.00    +0.019 A 
BRANCH   3   2
ATOM      1  N   UNL     1       9.983  -5.482  13.397  0.00  0.00    -0.191 NA
ATOM      2  C   UNL     1      10.889  -5.124  12.801  0.00  0.00    +0.099 C 
ENDBRANCH   3   2
ENDBRANCH   7   6
BRANCH  19  20
ATOM     20  O   UNL     1      22.382  -3.570   7.873  0.00  0.00    -0.495 OA
ATOM     21  C   UNL     1      22.414  -2.451   7.011  0.00  0.00    +0.277 C 
ENDBRANCH  19  20
BRANCH  12  13
ATOM     13  C   UNL     1      22.645  -5.779   9.533  0.00  0.00    +0.161 C 
BRANCH  13  14
ATOM     14  N   UNL     1      22.794  -6.810   8.501  0.00  0.00    -0.332 N 
ATOM     15  C   UNL     1      23.294  -6.601   7.208  0.00  0.00    +0.107 A 
ATOM     16  C   UNL     1      23.184  -7.826   6.559  0.00  0.00    +0.130 A 
ATOM     17  N   UNL     1      22.639  -8.785   7.419  0.00  0.00    -0.244 NA
ATOM     18  C   UNL     1      22.428  -8.150   8.597  0.00  0.00    +0.199 A 
ENDBRANCH  13  14
ENDBRANCH  12  13
TORSDOF 5
