REMARK  Name = 4ez5_ligand
REMARK  6 active torsions:
REMARK  status: ('A' for Active; 'I' for Inactive)
REMARK    1  A    between atoms: C1_1  and  N1_23
REMARK    2  A    between atoms: C2_2  and  N1_23
REMARK    3  A    between atoms: C3_3  and  N1_23
REMARK    4  A    between atoms: C12_6  and  C14_8
REMARK    5  A    between atoms: C14_8  and  C15_9
REMARK    6  A    between atoms: C18_12  and  C20_14
REMARK                            x       y       z     vdW  Elec       q    Type
REMARK                         _______ _______ _______ _____ _____    ______ ____
ROOT
ATOM      4  C   UNL     1      39.349  20.904  15.745  0.00  0.00    +0.068 C 
ATOM      5  C   UNL     1      39.566  20.200  14.386  0.00  0.00    +0.078 C 
ATOM      6  C   UNL     1      38.217  19.827  13.752  0.00  0.00    +0.137 C 
ATOM      7  N   UNL     1      37.358  21.004  13.633  0.00  0.00    -0.298 N 
ATOM      8  C   UNL     1      36.964  21.546  12.453  0.00  0.00    +0.098 A 
ATOM      9  N   UNL     1      36.169  22.647  12.500  0.00  0.00    -0.292 NA
ATOM     10  C   UNL     1      35.801  23.134  11.282  0.00  0.00    +0.092 A 
ATOM     11  N   UNL     1      35.005  24.226  10.987  0.00  0.00    -0.274 NA
ATOM     12  C   UNL     1      34.917  24.326   9.636  0.00  0.00    +0.206 A 
ATOM     13  N   UNL     1      35.604  23.367   8.993  0.00  0.00    -0.238 N 
ATOM     14  H   UNL     1      35.696  23.224   7.977  0.00  0.00    +0.234 HD
ATOM     33  C   UNL     1      36.157  22.618  10.010  0.00  0.00    +0.101 A 
ATOM     34  C   UNL     1      36.981  21.478  10.002  0.00  0.00    +0.041 A 
ATOM     35  C   UNL     1      37.386  20.946  11.242  0.00  0.00    +0.034 A 
ATOM     36  C   UNL     1      37.010  21.533  14.950  0.00  0.00    +0.137 C 
ATOM     37  C   UNL     1      38.297  22.030  15.633  0.00  0.00    +0.078 C 
ENDROOT
BRANCH   4   2
ATOM      1  C   UNL     1      41.156  20.381  17.280  0.00  0.00    +0.190 C 
ATOM      2  N   UNL     1      40.588  21.384  16.383  0.00  0.00    +0.233 N 
ATOM      3  H   UNL     1      40.321  22.173  16.951  0.00  0.00    +0.203 HD
ATOM     38  C   UNL     1      41.620  21.869  15.462  0.00  0.00    +0.190 C 
ENDBRANCH   4   2
BRANCH  12  15
ATOM     15  C   UNL     1      34.108  25.433   8.976  0.00  0.00    +0.229 C 
ATOM     32  O   UNL     1      33.395  26.164   9.652  0.00  0.00    -0.343 OA
BRANCH  15  16
ATOM     16  C   UNL     1      34.185  25.633   7.499  0.00  0.00    +0.064 A 
ATOM     17  C   UNL     1      35.280  25.201   6.719  0.00  0.00    +0.071 A 
ATOM     18  C   UNL     1      35.304  25.390   5.332  0.00  0.00    +0.065 A 
ATOM     19  N   UNL     1      34.300  26.025   4.714  0.00  0.00    -0.285 NA
ATOM     20  C   UNL     1      33.248  26.455   5.443  0.00  0.00    +0.100 A 
ATOM     31  C   UNL     1      33.139  26.287   6.828  0.00  0.00    +0.061 A 
BRANCH  18  21
ATOM     21  C   UNL     1      36.431  24.954   4.483  0.00  0.00    +0.030 A 
ATOM     22  C   UNL     1      37.138  23.722   4.613  0.00  0.00    +0.007 A 
ATOM     23  C   UNL     1      36.824  22.732   5.590  0.00  0.00    +0.019 A 
ATOM     24  C   UNL     1      37.549  21.531   5.691  0.00  0.00    +0.010 A 
ATOM     25  C   UNL     1      38.602  21.303   4.786  0.00  0.00    +0.009 A 
ATOM     26  C   UNL     1      38.934  22.257   3.802  0.00  0.00    +0.021 A 
ATOM     27  C   UNL     1      38.208  23.461   3.720  0.00  0.00    +0.010 A 
ATOM     28  C   UNL     1      38.525  24.428   2.750  0.00  0.00    +0.109 A 
ATOM     29  N   UNL     1      37.873  25.594   2.609  0.00  0.00    -0.295 NA
ATOM     30  C   UNL     1      36.856  25.834   3.456  0.00  0.00    +0.099 A 
ENDBRANCH  18  21
ENDBRANCH  15  16
ENDBRANCH  12  15
TORSDOF 4
