REMARK  Name = 3P2
REMARK  4 active torsions:
REMARK  status: ('A' for Active; 'I' for Inactive)
REMARK    1  A    between atoms: C3_3  and  C8_7
REMARK    2  A    between atoms: C14_9  and  C11_15
REMARK    3  A    between atoms: C18_11  and  N29_23
REMARK    4  A    between atoms: N29_23  and  C30_24
REMARK                            x       y       z     vdW  Elec       q    Type
REMARK                         _______ _______ _______ _____ _____    ______ ____
ROOT
ATOM      9  C   UNL     1      15.527  -2.611  -8.560  0.00  0.00    +0.115 A 
ATOM     10  C   UNL     1      15.838  -2.185  -7.183  0.00  0.00    +0.152 A 
ATOM     16  N   UNL     1      16.589  -1.086  -7.224  0.00  0.00    -0.273 N 
ATOM     17  C   UNL     1      17.119  -0.297  -6.281  0.00  0.00    +0.103 A 
ATOM     18  C   UNL     1      17.881   0.795  -6.663  0.00  0.00    +0.118 A 
ATOM     19  N   UNL     1      18.095   1.079  -7.955  0.00  0.00    -0.238 NA
ATOM     20  C   UNL     1      17.573   0.291  -8.901  0.00  0.00    +0.136 A 
ATOM     21  C   UNL     1      16.799  -0.806  -8.533  0.00  0.00    +0.168 A 
ATOM     22  N   UNL     1      16.180  -1.720  -9.326  0.00  0.00    -0.224 NA
ENDROOT
BRANCH   9   8
ATOM      5  C   UNL     1      13.688  -6.085 -10.128  0.00  0.00    +0.004 A 
ATOM      6  C   UNL     1      14.115  -6.075  -8.802  0.00  0.00    +0.000 A 
ATOM      7  C   UNL     1      14.708  -4.935  -8.287  0.00  0.00    +0.002 A 
ATOM      8  C   UNL     1      14.827  -3.801  -9.086  0.00  0.00    +0.021 A 
ATOM     23  C   UNL     1      14.447  -3.825 -10.419  0.00  0.00    +0.002 A 
ATOM     24  C   UNL     1      13.859  -4.975 -10.938  0.00  0.00    +0.000 A 
BRANCH   5   4
ATOM      1  O   UNL     1      12.681  -9.494 -11.100  0.00  0.00    -0.358 OA
ATOM      2  C   UNL     1      13.565  -8.674 -10.485  0.00  0.00    +0.154 A 
ATOM      3  C   UNL     1      14.793  -9.255  -9.850  0.00  0.00    +0.075 C 
ATOM      4  C   UNL     1      13.058  -7.315 -10.660  0.00  0.00    +0.050 A 
ATOM     25  C   UNL     1      11.790  -7.488 -11.413  0.00  0.00    +0.101 A 
ATOM     26  C   UNL     1      10.868  -6.382 -11.838  0.00  0.00    +0.056 C 
ATOM     27  N   UNL     1      11.640  -8.827 -11.653  0.00  0.00    -0.082 NA
ENDBRANCH   5   4
ENDBRANCH   9   8
BRANCH  10  11
ATOM     11  N   UNL     1      15.376  -2.775  -6.042  0.00  0.00    -0.224 NA
BRANCH  11  12
ATOM     12  C   UNL     1      14.106  -2.405  -5.418  0.00  0.00    +0.078 C 
ATOM     13  C   UNL     1      13.778  -3.397  -4.302  0.00  0.00    +0.022 C 
ATOM     14  C   UNL     1      14.161  -1.001  -4.824  0.00  0.00    +0.022 C 
ATOM     15  C   UNL     1      12.973  -2.420  -6.439  0.00  0.00    +0.022 C 
ENDBRANCH  11  12
ENDBRANCH  10  11
TORSDOF 4
