REMARK  Name = 6IBZ
REMARK  7 active torsions:
REMARK  status: ('A' for Active; 'I' for Inactive)
REMARK    1  A    between atoms: CAG_10  and  CAC_11
REMARK    2  A    between atoms: CAA_20  and  NAQ_21
REMARK    3  A    between atoms: NAQ_21  and  CAV_22
REMARK    4  A    between atoms: CAW_27  and  SBB_28
REMARK    5  A    between atoms: SBB_28  and  NBE_31
REMARK    6  A    between atoms: NBE_31  and  CBF_32
REMARK    7  A    between atoms: CBF_32  and  CBG_33
REMARK                            x       y       z     vdW  Elec       q    Type
REMARK                         _______ _______ _______ _____ _____    ______ ____
ROOT
ATOM      3  C   UNL     1      93.144  49.566 266.659  0.00  0.00    +0.000 A 
ATOM      4  C   UNL     1      94.133  48.622 266.454  0.00  0.00    +0.000 A 
ATOM      5  C   UNL     1      93.803  47.402 265.865  0.00  0.00    +0.000 A 
ATOM      6  C   UNL     1      92.486  47.117 265.457  0.00  0.00    -0.130 A 
ATOM      7  C   UNL     1      91.472  48.073 265.651  0.00  0.00    +0.050 A 
ATOM     26  N   UNL     1      94.785  46.502 265.671  0.00  0.00    -0.380 NA
ATOM     27  C   UNL     1      96.109  46.757 266.059  0.00  0.00    +0.250 A 
ATOM     28  C   UNL     1      96.428  47.965 266.660  0.00  0.00    +0.250 A 
ATOM     29  N   UNL     1      95.401  48.888 266.848  0.00  0.00    -0.380 NA
ATOM     30  C   UNL     1      91.832  49.282 266.268  0.00  0.00    -0.130 A 
ENDROOT
BRANCH   3   2
ATOM      1  C   UNL     1      92.752  51.202 268.401  0.00  0.00    -0.130 A 
ATOM      2  C   UNL     1      93.446  50.803 267.266  0.00  0.00    +0.000 A 
ATOM     31  C   UNL     1      94.436  51.659 266.770  0.00  0.00    -0.130 A 
ATOM     32  C   UNL     1      94.680  52.861 267.410  0.00  0.00    -0.130 A 
ATOM     33  C   UNL     1      93.962  53.190 268.493  0.00  0.00    +0.050 A 
ATOM     34  C   UNL     1      94.005  54.271 269.284  0.00  0.00    -0.150 A 
ATOM     35  C   UNL     1      93.108  54.129 270.242  0.00  0.00    +0.000 A 
ATOM     36  N   UNL     1      92.515  52.952 270.057  0.00  0.00    -0.350 N 
ATOM     37  C   UNL     1      91.437  52.391 270.893  0.00  0.00    -0.100 C 
ATOM     38  C   UNL     1      93.026  52.370 268.976  0.00  0.00    +0.200 A 
ENDBRANCH   3   2
BRANCH   7   8
ATOM      8  N   UNL     1      90.153  47.890 265.355  0.00  0.00    -0.350 NA
BRANCH   8   9
ATOM      9  C   UNL     1      89.718  47.203 264.297  0.00  0.00    +0.050 A 
ATOM     10  C   UNL     1      88.499  46.530 264.393  0.00  0.00    +0.060 A 
ATOM     22  C   UNL     1      88.046  45.837 263.289  0.00  0.00    -0.130 A 
ATOM     23  C   UNL     1      88.756  45.800 262.103  0.00  0.00    -0.130 A 
ATOM     24  C   UNL     1      89.952  46.471 262.005  0.00  0.00    -0.130 A 
ATOM     25  C   UNL     1      90.432  47.171 263.103  0.00  0.00    -0.130 A 
BRANCH  10  11
ATOM     11  S   UNL     1      87.462  46.436 265.830  0.00  0.00    +1.360 S 
ATOM     20  O   UNL     1      87.553  47.725 266.620  0.00  0.00    -0.650 OA
ATOM     21  O   UNL     1      86.025  46.318 265.393  0.00  0.00    -0.650 OA
BRANCH  11  12
ATOM     12  N   UNL     1      87.919  45.121 266.773  0.00  0.00    -0.670 NA
BRANCH  12  13
ATOM     13  C   UNL     1      89.347  45.184 267.186  0.00  0.00    +0.100 C 
BRANCH  13  14
ATOM     14  C   UNL     1      89.719  44.236 268.188  0.00  0.00    +0.000 A 
ATOM     15  C   UNL     1      88.791  43.667 269.074  0.00  0.00    +0.250 A 
ATOM     16  N   UNL     1      89.195  42.725 270.052  0.00  0.00    -0.760 NA
ATOM     17  C   UNL     1      90.539  42.332 270.171  0.00  0.00    +0.630 A 
ATOM     18  N   UNL     1      91.467  42.901 269.297  0.00  0.00    -0.760 NA
ATOM     19  C   UNL     1      91.054  43.842 268.320  0.00  0.00    +0.250 A 
ENDBRANCH  13  14
ENDBRANCH  12  13
ENDBRANCH  11  12
ENDBRANCH  10  11
ENDBRANCH   8   9
ENDBRANCH   7   8
TORSDOF 7
