REMARK  Name = 6NZM
REMARK  6 active torsions:
REMARK  status: ('A' for Active; 'I' for Inactive)
REMARK    1  A    between atoms: N4_2  and  C17_23
REMARK    2  A    between atoms: C5_3  and  C6_17
REMARK    3  A    between atoms: C12_8  and  N3_20
REMARK    4  A    between atoms: C10_11  and  N2_19
REMARK    5  A    between atoms: C1_13  and  C2_14
REMARK    6  A    between atoms: C2_14  and  N1_15
REMARK                            x       y       z     vdW  Elec       q    Type
REMARK                         _______ _______ _______ _____ _____    ______ ____
ROOT
ATOM     15  C   UNL     1      -4.306 -22.688 -18.114  0.00  0.00    +0.000 A 
ATOM     16  C   UNL     1      -5.485 -22.008 -17.824  0.00  0.00    -0.130 A 
ATOM     17  C   UNL     1      -6.731 -22.566 -18.022  0.00  0.00    +0.050 A 
ATOM     34  C   UNL     1      -6.844 -23.836 -18.563  0.00  0.00    -0.130 A 
ATOM     35  C   UNL     1      -5.689 -24.533 -18.852  0.00  0.00    -0.130 A 
ATOM     36  C   UNL     1      -4.441 -23.966 -18.643  0.00  0.00    -0.130 A 
ENDROOT
BRANCH  15  14
ATOM      1  C   UNL     1      -0.665 -22.379 -17.514  0.00  0.00    +0.100 C 
ATOM      2  C   UNL     1      -0.290 -21.927 -18.906  0.00  0.00    +0.000 C 
ATOM      3  N   UNL     1      -1.368 -21.008 -19.293  0.00  0.00    -0.250 N 
ATOM      4  C   UNL     1      -1.002 -19.838 -19.932  0.00  0.00    +0.430 A 
ATOM      5  C   UNL     1      -1.897 -18.817 -20.242  0.00  0.00    +0.050 A 
ATOM      6  C   UNL     1      -3.295 -18.513 -20.041  0.00  0.00    -0.150 A 
ATOM      7  C   UNL     1      -3.551 -17.265 -20.633  0.00  0.00    +0.000 A 
ATOM      8  N   UNL     1      -2.339 -16.792 -21.094  0.00  0.00    -0.300 NA
ATOM      9  C   UNL     1      -1.347 -17.716 -20.872  0.00  0.00    +0.550 A 
ATOM     10  N   UNL     1      -0.095 -17.571 -21.267  0.00  0.00    -0.730 NA
ATOM     11  C   UNL     1       0.669 -18.605 -20.884  0.00  0.00    +0.630 A 
ATOM     12  N   UNL     1       0.314 -19.716 -20.291  0.00  0.00    -0.760 NA
ATOM     13  C   UNL     1      -2.721 -21.502 -19.234  0.00  0.00    +0.000 C 
ATOM     14  C   UNL     1      -2.975 -22.003 -17.862  0.00  0.00    +0.150 C 
ATOM     37  N   UNL     1      -1.983 -23.014 -17.554  0.00  0.00    -0.600 NA
BRANCH  37  38
ATOM     38  C   UNL     1      -2.266 -23.650 -16.291  0.00  0.00    +0.100 C 
BRANCH  38  39
ATOM     39  C   UNL     1      -2.264 -25.162 -16.420  0.00  0.00    +0.150 C 
ATOM     40  O   UNL     1      -0.947 -25.637 -16.255  0.00  0.00    -0.650 OA
ENDBRANCH  38  39
ENDBRANCH  37  38
ENDBRANCH  15  14
BRANCH  17  18
ATOM     18  N   UNL     1      -7.854 -21.766 -17.697  0.00  0.00    -0.350 NA
ATOM     19  C   UNL     1      -9.159 -22.216 -17.588  0.00  0.00    +0.650 C 
ATOM     20  O   UNL     1      -9.557 -23.328 -17.939  0.00  0.00    -0.550 OA
ATOM     21  N   UNL     1     -10.007 -21.236 -17.128  0.00  0.00    -0.350 NA
BRANCH  21  22
ATOM     22  C   UNL     1     -11.406 -21.501 -16.959  0.00  0.00    +0.050 A 
ATOM     23  C   UNL     1     -12.016 -21.348 -15.729  0.00  0.00    +0.000 A 
ATOM     24  C   UNL     1     -13.368 -21.580 -15.712  0.00  0.00    -0.130 A 
ATOM     25  C   UNL     1     -14.107 -21.919 -16.852  0.00  0.00    -0.130 A 
ATOM     26  C   UNL     1     -13.529 -22.016 -18.113  0.00  0.00    -0.130 A 
ATOM     32  C   UNL     1     -12.180 -21.777 -18.098  0.00  0.00    +0.300 A 
ATOM     33  F   UNL     1     -11.597 -21.884 -19.283  0.00  0.00    -0.300 F 
BRANCH  23  27
ATOM     27  N   UNL     1     -11.335 -20.952 -14.521  0.00  0.00    -0.400 N 
ATOM     28  C   UNL     1     -10.117 -21.669 -14.290  0.00  0.00    +0.100 C 
ATOM     29  C   UNL     1      -9.922 -21.474 -12.792  0.00  0.00    -0.100 C 
ATOM     30  C   UNL     1     -11.198 -20.853 -12.179  0.00  0.00    -0.100 C 
ATOM     31  C   UNL     1     -12.161 -21.063 -13.306  0.00  0.00    +0.100 C 
ENDBRANCH  23  27
ENDBRANCH  21  22
ENDBRANCH  17  18
TORSDOF 6
