REMARK  Name = 5XDK
REMARK  11 active torsions:
REMARK  status: ('A' for Active; 'I' for Inactive)
REMARK    1  A    between atoms: C_1  and  N_34
REMARK    2  A    between atoms: C_2  and  C_29
REMARK    3  A    between atoms: C_7  and  O_40
REMARK    4  A    between atoms: C_8  and  C_22
REMARK    5  A    between atoms: C_16  and  C_17
REMARK    6  A    between atoms: C_17  and  C_23
REMARK    7  A    between atoms: C_24  and  N_33
REMARK    8  A    between atoms: C_25  and  N_34
REMARK    9  A    between atoms: C_26  and  N_37
REMARK   10  A    between atoms: C_27  and  N_35
REMARK   11  A    between atoms: C_28  and  O_40
REMARK                            x       y       z     vdW  Elec       q    Type
REMARK                         _______ _______ _______ _____ _____    ______ ____
ROOT
ATOM      1  C   UNL     1     -52.113   0.449 -21.944  0.00  0.00    +0.140 A 
ATOM     16  N   UNL     1     -52.219   0.718 -20.640  0.00  0.00    -0.199 NA
ATOM     17  C   UNL     1     -53.111   1.610 -20.203  0.00  0.00    +0.221 A 
ATOM     18  N   UNL     1     -53.234   1.889 -18.920  0.00  0.00    -0.281 N 
ATOM     19  H   UNL     1     -54.081   2.445 -18.576  0.00  0.00    +0.155 HD
ATOM     37  N   UNL     1     -53.917   2.253 -21.051  0.00  0.00    -0.222 NA
ATOM     38  C   UNL     1     -53.846   2.007 -22.413  0.00  0.00    +0.130 A 
ATOM     39  C   UNL     1     -52.925   1.087 -22.875  0.00  0.00    +0.113 A 
ENDROOT
BRANCH  18  20
ATOM     20  C   UNL     1     -52.320   1.487 -18.058  0.00  0.00    +0.076 A 
ATOM     21  C   UNL     1     -52.221   2.251 -16.914  0.00  0.00    +0.143 A 
ATOM     24  C   UNL     1     -51.316   1.938 -15.923  0.00  0.00    +0.070 A 
ATOM     25  C   UNL     1     -50.505   0.830 -16.096  0.00  0.00    +0.033 A 
ATOM     35  C   UNL     1     -50.607   0.051 -17.245  0.00  0.00    +0.025 A 
ATOM     36  C   UNL     1     -51.521   0.375 -18.239  0.00  0.00    +0.029 A 
BRANCH  25  26
ATOM     26  N   UNL     1     -49.625   0.519 -15.140  0.00  0.00    -0.327 N 
ATOM     27  C   UNL     1     -49.654   1.257 -13.861  0.00  0.00    +0.124 C 
ATOM     28  C   UNL     1     -48.252   1.692 -13.442  0.00  0.00    +0.126 C 
ATOM     29  N   UNL     1     -47.284   0.593 -13.618  0.00  0.00    -0.299 N 
ATOM     30  C   UNL     1     -45.992   0.777 -13.314  0.00  0.00    +0.213 C 
ATOM     31  O   UNL     1     -45.129  -0.090 -13.434  0.00  0.00    -0.276 OA
ATOM     32  C   UNL     1     -45.636   2.169 -12.792  0.00  0.00    +0.109 C 
ATOM     33  C   UNL     1     -47.742  -0.719 -14.129  0.00  0.00    +0.126 C 
ATOM     34  C   UNL     1     -48.639  -0.555 -15.354  0.00  0.00    +0.124 C 
ENDBRANCH  25  26
BRANCH  21  22
ATOM     22  O   UNL     1     -53.052   3.311 -16.830  0.00  0.00    -0.493 OA
ATOM     23  C   UNL     1     -52.794   4.038 -15.641  0.00  0.00    +0.277 C 
ENDBRANCH  21  22
ENDBRANCH  18  20
BRANCH  39  40
ATOM     40  C   UNL     1     -52.848   0.843 -24.238  0.00  0.00    +0.422 C 
ATOM     41  F   UNL     1     -53.768   1.415 -24.796  0.00  0.00    -0.166 F 
ATOM     42  F   UNL     1     -51.797   1.296 -24.676  0.00  0.00    -0.166 F 
ATOM     43  F   UNL     1     -52.908  -0.284 -24.455  0.00  0.00    -0.166 F 
ENDBRANCH  39  40
BRANCH   1   2
ATOM      2  N   UNL     1     -51.232  -0.438 -22.385  0.00  0.00    -0.299 N 
ATOM      3  H   UNL     1     -51.275  -0.835 -23.378  0.00  0.00    +0.154 HD
BRANCH   2   4
ATOM      4  C   UNL     1     -50.292  -0.804 -21.520  0.00  0.00    +0.034 A 
ATOM      5  C   UNL     1     -50.251  -2.086 -20.968  0.00  0.00    +0.046 A 
ATOM      6  C   UNL     1     -49.246  -2.410 -20.062  0.00  0.00    +0.035 A 
ATOM     13  C   UNL     1     -48.303  -1.456 -19.718  0.00  0.00    +0.023 A 
ATOM     14  C   UNL     1     -48.346  -0.186 -20.268  0.00  0.00    +0.004 A 
ATOM     15  C   UNL     1     -49.343   0.137 -21.168  0.00  0.00    +0.023 A 
BRANCH   6   7
ATOM      7  N   UNL     1     -49.127  -3.601 -19.478  0.00  0.00    -0.285 N 
ATOM      8  H   UNL     1     -48.444  -3.714 -18.662  0.00  0.00    +0.155 HD
ATOM      9  C   UNL     1     -49.836  -4.659 -19.882  0.00  0.00    +0.217 C 
ATOM     10  O   UNL     1     -50.639  -4.655 -20.808  0.00  0.00    -0.276 OA
BRANCH   9  11
ATOM     11  C   UNL     1     -49.541  -5.930 -19.081  0.00  0.00    +0.096 C 
ATOM     12  C   UNL     1     -50.679  -6.947 -19.190  0.00  0.00    +0.010 C 
ENDBRANCH   9  11
ENDBRANCH   6   7
ENDBRANCH   2   4
ENDBRANCH   1   2
TORSDOF 8
