REMARK  Name = 4D4K
REMARK  5 active torsions:
REMARK  status: ('A' for Active; 'I' for Inactive)
REMARK    1  A    between atoms: C_1  and  O_3
REMARK    2  A    between atoms: N_2  and  C_10
REMARK    3  A    between atoms: O_3  and  C_4
REMARK    4  A    between atoms: O_6  and  C_18
REMARK    5  A    between atoms: C_14  and  C_19
REMARK                            x       y       z     vdW  Elec       q    Type
REMARK                         _______ _______ _______ _____ _____    ______ ____
ROOT
ATOM      8  N   UNL     1     -40.318 -41.099 -11.058  0.00  0.00    -0.142 N 
ATOM      9  C   UNL     1     -41.614 -41.564 -11.252  0.00  0.00    +0.325 A 
ATOM     10  C   UNL     1     -42.248 -40.673 -12.161  0.00  0.00    +0.142 A 
ATOM     11  C   UNL     1     -43.627 -40.965 -12.499  0.00  0.00    +0.230 A 
ATOM     12  N   UNL     1     -44.129 -42.091 -11.843  0.00  0.00    -0.201 NA
ATOM     13  C   UNL     1     -43.418 -42.856 -10.981  0.00  0.00    +0.231 A 
ATOM     16  C   UNL     1     -41.281 -39.651 -12.493  0.00  0.00    +0.066 A 
ATOM     23  N   UNL     1     -42.168 -42.654 -10.655  0.00  0.00    -0.174 NA
ATOM     24  C   UNL     1     -40.142 -39.963 -11.805  0.00  0.00    +0.327 A 
ENDROOT
BRANCH   8   6
ATOM      3  C   UNL     1     -37.362 -42.723  -8.559  0.00  0.00    +0.121 A 
ATOM      4  C   UNL     1     -38.689 -42.815  -8.199  0.00  0.00    +0.052 A 
ATOM      5  C   UNL     1     -39.661 -42.287  -9.021  0.00  0.00    +0.082 A 
ATOM      6  C   UNL     1     -39.307 -41.653 -10.210  0.00  0.00    +0.215 A 
ATOM      7  C   UNL     1     -37.961 -41.563 -10.565  0.00  0.00    +0.082 A 
ATOM     25  C   UNL     1     -36.987 -42.093  -9.746  0.00  0.00    +0.052 A 
BRANCH   3   2
ATOM      1  C   UNL     1     -35.055 -43.131  -8.129  0.00  0.00    +0.277 C 
ATOM      2  O   UNL     1     -36.406 -43.255  -7.739  0.00  0.00    -0.495 OA
ENDBRANCH   3   2
ENDBRANCH   8   6
BRANCH  16  17
ATOM     17  C   UNL     1     -41.395 -38.471 -13.388  0.00  0.00    -0.011 A 
ATOM     18  C   UNL     1     -42.558 -37.700 -13.390  0.00  0.00    +0.009 A 
ATOM     19  C   UNL     1     -42.620 -36.535 -14.138  0.00  0.00    +0.001 A 
ATOM     20  C   UNL     1     -41.539 -36.133 -14.899  0.00  0.00    +0.000 A 
ATOM     21  C   UNL     1     -40.390 -36.896 -14.912  0.00  0.00    +0.001 A 
ATOM     22  C   UNL     1     -40.318 -38.058 -14.161  0.00  0.00    +0.009 A 
ENDBRANCH  16  17
BRANCH  11  14
ATOM     14  O   UNL     1     -44.334 -40.333 -13.282  0.00  0.00    -0.492 OA
ATOM     15  H   UNL     1     -44.639 -40.962 -14.065  0.00  0.00    +0.294 HD
ENDBRANCH  11  14
TORSDOF 4
