REMARK  Name = 3Q4U
REMARK  3 active torsions:
REMARK  status: ('A' for Active; 'I' for Inactive)
REMARK    1  A    between atoms: C_22  and  C_23
REMARK    2  A    between atoms: C_24  and  N_30
REMARK    3  A    between atoms: C_25  and  C_26
REMARK                            x       y       z     vdW  Elec       q    Type
REMARK                         _______ _______ _______ _____ _____    ______ ____
ROOT
ATOM      6  C   UNL     1      22.909 -19.273   5.058  0.00  0.00    +0.044 A 
ATOM      7  C   UNL     1      22.305 -20.451   5.459  0.00  0.00    +0.157 A 
ATOM      8  N   UNL     1      21.926 -21.129   4.263  0.00  0.00    -0.244 N 
ATOM      9  N   UNL     1      22.248 -20.429   3.291  0.00  0.00    -0.298 N 
ATOM     10  H   UNL     1      22.081 -20.678   2.264  0.00  0.00    +0.187 HD
ATOM     11  C   UNL     1      21.302 -22.351   4.326  0.00  0.00    +0.118 C 
ATOM     12  C   UNL     1      21.021 -22.902   5.564  0.00  0.00    -0.001 C 
ATOM     26  C   UNL     1      21.436 -22.228   6.718  0.00  0.00    +0.181 C 
ATOM     27  N   UNL     1      22.027 -20.994   6.669  0.00  0.00    -0.260 NA
ATOM     28  C   UNL     1      22.845 -19.298   3.739  0.00  0.00    +0.114 A 
ENDROOT
BRANCH   6   5
ATOM      1  C   UNL     1      26.217 -18.757   9.075  0.00  0.00    +0.002 A 
ATOM      2  C   UNL     1      25.775 -17.493   8.728  0.00  0.00    +0.028 A 
ATOM      3  C   UNL     1      24.879 -17.290   7.682  0.00  0.00    +0.071 A 
ATOM      4  C   UNL     1      24.401 -18.405   6.955  0.00  0.00    +0.008 A 
ATOM      5  C   UNL     1      23.470 -18.217   5.891  0.00  0.00    -0.002 A 
ATOM     29  C   UNL     1      23.156 -16.904   5.586  0.00  0.00    +0.029 A 
ATOM     30  C   UNL     1      23.650 -15.828   6.350  0.00  0.00    +0.112 A 
ATOM     31  C   UNL     1      24.838 -19.665   7.341  0.00  0.00    +0.010 A 
ATOM     32  N   UNL     1      24.510 -16.044   7.350  0.00  0.00    -0.255 NA
ATOM     33  C   UNL     1      25.750 -19.865   8.377  0.00  0.00    +0.001 A 
ENDBRANCH   6   5
BRANCH  12  13
ATOM     13  C   UNL     1      20.434 -24.183   5.596  0.00  0.00    -0.018 A 
ATOM     14  C   UNL     1      19.736 -24.705   4.496  0.00  0.00    +0.010 A 
ATOM     15  C   UNL     1      19.232 -26.016   4.571  0.00  0.00    +0.024 A 
ATOM     16  C   UNL     1      19.394 -26.793   5.699  0.00  0.00    +0.030 A 
ATOM     24  C   UNL     1      20.086 -26.274   6.777  0.00  0.00    +0.024 A 
ATOM     25  C   UNL     1      20.628 -24.992   6.703  0.00  0.00    +0.010 A 
BRANCH  16  17
ATOM     17  N   UNL     1      18.925 -28.142   5.809  0.00  0.00    -0.328 N 
ATOM     18  C   UNL     1      18.944 -28.837   7.104  0.00  0.00    +0.120 C 
ATOM     19  C   UNL     1      18.240 -30.222   7.093  0.00  0.00    +0.100 C 
ATOM     20  N   UNL     1      18.588 -31.049   5.912  0.00  0.00    -0.313 NA
ATOM     21  H   UNL     1      19.165 -31.888   6.241  0.00  0.00    +0.122 HD
ATOM     22  C   UNL     1      19.370 -30.305   4.899  0.00  0.00    +0.100 C 
ATOM     23  C   UNL     1      18.723 -28.959   4.608  0.00  0.00    +0.120 C 
ENDBRANCH  16  17
ENDBRANCH  12  13
TORSDOF 3
