REMARK  Name = 6I5K
REMARK  4 active torsions:
REMARK  status: ('A' for Active; 'I' for Inactive)
REMARK    1  A    between atoms: C7_5  and  C9_8
REMARK    2  A    between atoms: C14_13  and  C15_14
REMARK    3  A    between atoms: C3_21  and  O_22
REMARK    4  A    between atoms: O_22  and  C1_23
REMARK                            x       y       z     vdW  Elec       q    Type
REMARK                         _______ _______ _______ _____ _____    ______ ____
ROOT
ATOM      9  C   UNL     1      15.703  -2.588  31.543  0.00  0.00    +0.050 A 
ATOM     10  C   UNL     1      15.729  -2.989  32.923  0.00  0.00    +0.350 A 
ATOM     11  C   UNL     1      15.646  -4.337  32.925  0.00  0.00    +0.000 A 
ATOM     12  O   UNL     1      15.620  -4.841  31.649  0.00  0.00    +0.000 OA
ATOM     13  C   UNL     1      15.574  -4.991  34.133  0.00  0.00    -0.130 A 
ATOM     14  C   UNL     1      15.620  -4.261  35.305  0.00  0.00    -0.130 A 
ATOM     15  C   UNL     1      15.718  -2.884  35.208  0.00  0.00    +0.100 A 
ATOM     22  N   UNL     1      15.771  -2.247  34.031  0.00  0.00    -0.450 NA
ATOM     23  C   UNL     1      15.655  -3.736  30.827  0.00  0.00    -0.150 A 
ENDROOT
BRANCH   9   8
ATOM      1  C   UNL     1      15.770   1.383  29.952  0.00  0.00    -0.130 A 
ATOM      2  C   UNL     1      16.063   1.157  31.290  0.00  0.00    +0.185 A 
ATOM      7  C   UNL     1      16.016  -0.122  31.820  0.00  0.00    -0.130 A 
ATOM      8  C   UNL     1      15.741  -1.207  30.987  0.00  0.00    +0.000 A 
ATOM     24  C   UNL     1      15.535  -0.985  29.629  0.00  0.00    -0.130 A 
ATOM     25  C   UNL     1      15.514   0.303  29.126  0.00  0.00    -0.130 A 
BRANCH   2   3
ATOM      3  O   UNL     1      16.538   2.265  31.963  0.00  0.00    -0.365 OA
BRANCH   3   4
ATOM      4  C   UNL     1      16.224   2.468  33.360  0.00  0.00    +0.130 C 
ATOM      5  C   UNL     1      14.756   2.329  33.587  0.00  0.00    -0.150 C 
ATOM      6  C   UNL     1      16.731   3.838  33.637  0.00  0.00    -0.150 C 
ENDBRANCH   3   4
ENDBRANCH   2   3
ENDBRANCH   9   8
BRANCH  15  16
ATOM     16  C   UNL     1      15.778  -2.021  36.401  0.00  0.00    +0.100 A 
ATOM     17  C   UNL     1      15.662  -0.654  36.443  0.00  0.00    -0.050 A 
ATOM     18  N   UNL     1      15.698  -0.303  37.733  0.00  0.00    -0.150 N 
ATOM     19  N   UNL     1      15.816  -1.364  38.586  0.00  0.00    -0.100 NA
ATOM     20  C   UNL     1      15.697   1.042  38.289  0.00  0.00    -0.100 C 
ATOM     21  C   UNL     1      15.866  -2.405  37.764  0.00  0.00    -0.050 A 
ENDBRANCH  15  16
TORSDOF 4
