REMARK  Name = 6R4D
REMARK  2 active torsions:
REMARK  status: ('A' for Active; 'I' for Inactive)
REMARK    1  A    between atoms: C21_7  and  C09_17
REMARK    2  A    between atoms: N03_11  and  C04_12
REMARK                            x       y       z     vdW  Elec       q    Type
REMARK                         _______ _______ _______ _____ _____    ______ ____
ROOT
ATOM      1  C   UNL     1      -9.500  10.445 -15.893  0.00  0.00    +0.600 C 
ATOM      2  O   UNL     1      -8.637   9.882 -15.249  0.00  0.00    -0.550 OA
ATOM      3  C   UNL     1      -9.527  10.560 -17.456  0.00  0.00    +0.200 C 
ATOM      4  C   UNL     1     -10.908  10.906 -17.726  0.00  0.00    -0.100 C 
ATOM      5  C   UNL     1     -11.385  11.606 -16.521  0.00  0.00    +0.350 C 
ATOM      6  O   UNL     1     -12.749  11.350 -16.275  0.00  0.00    -0.650 OA
ATOM      7  C   UNL     1     -11.218  13.018 -16.669  0.00  0.00    +0.000 A 
ATOM      8  C   UNL     1     -12.428  13.906 -16.695  0.00  0.00    -0.130 A 
ATOM      9  C   UNL     1     -12.320  15.410 -16.875  0.00  0.00    -0.130 A 
ATOM     10  C   UNL     1     -10.944  16.046 -17.045  0.00  0.00    +0.000 A 
ATOM     11  C   UNL     1     -10.837  17.538 -17.227  0.00  0.00    -0.150 C 
ATOM     12  C   UNL     1      -9.710  15.167 -17.019  0.00  0.00    -0.130 A 
ATOM     13  C   UNL     1      -9.838  13.673 -16.838  0.00  0.00    +0.000 A 
ATOM     14  C   UNL     1      -8.531  12.803 -16.805  0.00  0.00    +0.100 C 
ATOM     18  N   UNL     1      -8.651  11.612 -17.943  0.00  0.00    -0.750 NA
ATOM     19  N   UNL     1     -10.598  11.051 -15.481  0.00  0.00    -0.250 N 
ENDROOT
BRANCH  19  20
ATOM     20  C   UNL     1     -11.082  11.165 -14.211  0.00  0.00    +0.050 C 
ATOM     21  C   UNL     1     -10.189  11.814 -13.216  0.00  0.00    -0.100 C 
ATOM     22  C   UNL     1     -10.841  10.912 -12.217  0.00  0.00    -0.100 C 
ATOM     23  C   UNL     1     -11.101   9.948 -13.344  0.00  0.00    -0.100 C 
ENDBRANCH  19  20
BRANCH   3  15
ATOM     15  C   UNL     1      -9.070   9.278 -18.130  0.00  0.00    -0.050 C 
ATOM     16  C   UNL     1      -9.924   8.096 -17.700  0.00  0.00    -0.150 C 
ATOM     17  C   UNL     1      -9.116   9.499 -19.634  0.00  0.00    -0.150 C 
ENDBRANCH   3  15
TORSDOF 2
