REMARK  Name = 3ZDI
REMARK  4 active torsions:
REMARK  status: ('A' for Active; 'I' for Inactive)
REMARK    1  A    between atoms: N_1  and  C_2
REMARK    2  A    between atoms: C_3  and  C_21
REMARK    3  A    between atoms: C_7  and  C_8
REMARK    4  A    between atoms: C_15  and  C_16
REMARK                            x       y       z     vdW  Elec       q    Type
REMARK                         _______ _______ _______ _____ _____    ______ ____
ROOT
ATOM      4  C   UNL     1      -9.783  -6.811   7.239  0.00  0.00    +0.059 A 
ATOM      5  C   UNL     1      -9.946  -5.918   8.442  0.00  0.00    +0.039 A 
ATOM      6  C   UNL     1      -9.348  -6.081   9.718  0.00  0.00    +0.016 A 
ATOM      7  C   UNL     1      -9.627  -5.137  10.715  0.00  0.00    +0.100 A 
ATOM      8  C   UNL     1     -10.479  -4.059  10.445  0.00  0.00    +0.136 A 
ATOM      9  N   UNL     1     -11.033  -3.927   9.228  0.00  0.00    -0.224 NA
ATOM     10  N   UNL     1     -10.769  -3.092  11.458  0.00  0.00    -0.342 N 
ATOM     11  H   UNL     1     -11.421  -2.271  11.243  0.00  0.00    +0.144 HD
ATOM     12  H   UNL     1     -10.334  -3.189  12.431  0.00  0.00    +0.144 HD
ATOM     22  C   UNL     1     -10.782  -4.822   8.247  0.00  0.00    +0.114 A 
ATOM     23  S   UNL     1     -11.332  -4.892   6.678  0.00  0.00    -0.056 S 
ATOM     24  C   UNL     1     -10.562  -6.277   6.163  0.00  0.00    +0.112 A 
ENDROOT
BRANCH   6  15
ATOM     15  C   UNL     1      -8.436  -7.213  10.037  0.00  0.00    +0.003 A 
ATOM     16  C   UNL     1      -7.067  -7.068   9.856  0.00  0.00    +0.049 A 
ATOM     17 CL   UNL     1      -6.421  -5.580   9.257  0.00  0.00    -0.083 Cl
ATOM     18  C   UNL     1      -6.214  -8.119  10.157  0.00  0.00    +0.020 A 
ATOM     19  C   UNL     1      -6.731  -9.315  10.633  0.00  0.00    +0.002 A 
ATOM     20  C   UNL     1      -8.098  -9.461  10.814  0.00  0.00    +0.001 A 
ATOM     21  C   UNL     1      -8.952  -8.409  10.515  0.00  0.00    +0.010 A 
ENDBRANCH   6  15
BRANCH   4   1
ATOM      1  N   UNL     1      -8.988  -7.996   7.149  0.00  0.00    -0.356 N 
ATOM      2  H   UNL     1      -8.432  -8.333   7.999  0.00  0.00    +0.142 HD
ATOM      3  H   UNL     1      -8.949  -8.546   6.232  0.00  0.00    +0.142 HD
ENDBRANCH   4   1
BRANCH   7  13
ATOM     13  C   UNL     1      -9.013  -5.283  12.067  0.00  0.00    +0.103 C 
ATOM     14  N   UNL     1      -8.544  -5.393  13.103  0.00  0.00    -0.191 NA
ENDBRANCH   7  13
BRANCH  24  25
ATOM     25  C   UNL     1     -10.667  -6.869   4.799  0.00  0.00    +0.108 C 
ATOM     26  N   UNL     1     -10.746  -7.323   3.756  0.00  0.00    -0.190 NA
ENDBRANCH  24  25
TORSDOF 4
