REMARK  Name = 2jdo_ligand
REMARK  10 active torsions:
REMARK  status: ('A' for Active; 'I' for Inactive)
REMARK    1  A    between atoms: C5_5  and  C6_6
REMARK    2  A    between atoms: C6_6  and  O7_7
REMARK    3  A    between atoms: O7_7  and  C8_8
REMARK    4  A    between atoms: C8_8  and  C9_9
REMARK    5  A    between atoms: C9_9  and  N10_10
REMARK    6  A    between atoms: N10_10  and  C13_11
REMARK    7  A    between atoms: C13_11  and  C14_12
REMARK    8  A    between atoms: C14_12  and  N15_13
REMARK    9  A    between atoms: N15_13  and  S16_14
REMARK   10  A    between atoms: S16_14  and  C19_17
REMARK                            x       y       z     vdW  Elec       q    Type
REMARK                         _______ _______ _______ _____ _____    ______ ____
ROOT
ATOM     14  C   UNL     1      43.713  31.508 113.559  0.00  0.00    +0.172 C 
ENDROOT
BRANCH  14  15
ATOM     15  N   UNL     1      44.796  31.993 112.709  0.00  0.00    -0.242 NA
ATOM     16  H   UNL     1      45.737  31.960 113.047  0.00  0.00    +0.168 HD
BRANCH  15  17
ATOM     17  S   UNL     1      44.499  32.591 111.209  0.00  0.00    +0.071 S 
ATOM     28  O   UNL     1      43.452  31.800 110.629  0.00  0.00    -0.150 OA
ATOM     29  O   UNL     1      45.766  32.655 110.542  0.00  0.00    -0.150 OA
BRANCH  17  18
ATOM     18  C   UNL     1      43.886  34.228 111.443  0.00  0.00    +0.123 A 
ATOM     19  C   UNL     1      44.736  35.326 111.737  0.00  0.00    +0.024 A 
ATOM     20  C   UNL     1      46.116  35.217 111.842  0.00  0.00    +0.042 A 
ATOM     21  C   UNL     1      46.874  36.332 112.123  0.00  0.00    +0.085 A 
ATOM     22  N   UNL     1      46.354  37.547 112.319  0.00  0.00    -0.297 NA
ATOM     23  C   UNL     1      45.027  37.662 112.218  0.00  0.00    +0.107 A 
ATOM     24  C   UNL     1      44.177  36.600 111.933  0.00  0.00    +0.011 A 
ATOM     25  C   UNL     1      42.806  36.770 111.834  0.00  0.00    +0.021 A 
ATOM     26  C   UNL     1      41.984  35.698 111.561  0.00  0.00    +0.011 A 
ATOM     27  C   UNL     1      42.515  34.441 111.369  0.00  0.00    +0.039 A 
ENDBRANCH  17  18
ENDBRANCH  15  17
ENDBRANCH  14  15
BRANCH  14  13
ATOM     13  C   UNL     1      43.589  29.997 113.495  0.00  0.00    +0.150 C 
BRANCH  13  10
ATOM     10  N   UNL     1      42.193  29.618 113.703  0.00  0.00    +0.230 N 
ATOM     11  H   UNL     1      41.638  30.011 112.959  0.00  0.00    +0.202 HD
ATOM     12  H   UNL     1      41.885  29.993 114.587  0.00  0.00    +0.202 HD
BRANCH  10   9
ATOM      9  C   UNL     1      41.999  28.164 113.716  0.00  0.00    +0.158 C 
BRANCH   9   8
ATOM      8  C   UNL     1      41.874  27.643 112.300  0.00  0.00    +0.213 C 
BRANCH   8   7
ATOM      7  O   UNL     1      43.177  27.227 111.859  0.00  0.00    -0.362 OA
BRANCH   7   6
ATOM      6  C   UNL     1      43.146  26.518 110.611  0.00  0.00    +0.227 C 
BRANCH   6   5
ATOM      1 CL   UNL     1      41.595  30.314 106.212  0.00  0.00    -0.077 Cl
ATOM      2  C   UNL     1      42.040  29.226 107.484  0.00  0.00    +0.033 A 
ATOM      3  C   UNL     1      43.216  29.426 108.191  0.00  0.00    +0.006 A 
ATOM      4  C   UNL     1      43.570  28.556 109.201  0.00  0.00    -0.002 A 
ATOM      5  C   UNL     1      42.759  27.469 109.509  0.00  0.00    -0.017 A 
ATOM     30  C   UNL     1      41.580  27.279 108.798  0.00  0.00    -0.002 A 
ATOM     31  C   UNL     1      41.228  28.147 107.788  0.00  0.00    +0.006 A 
ENDBRANCH   6   5
ENDBRANCH   7   6
ENDBRANCH   8   7
ENDBRANCH   9   8
ENDBRANCH  10   9
ENDBRANCH  13  10
ENDBRANCH  14  13
TORSDOF 10
