REMARK  Name = A7Z
REMARK  7 active torsions:
REMARK  status: ('A' for Active; 'I' for Inactive)
REMARK    1  A    between atoms: S_1  and  O1_4
REMARK    2  A    between atoms: O1_4  and  C16_5
REMARK    3  A    between atoms: C13_10  and  C8_11
REMARK    4  A    between atoms: NZ_12  and  C9_13
REMARK    5  A    between atoms: C9_13  and  C10_14
REMARK    6  A    between atoms: C7_18  and  C3_19
REMARK    7  A    between atoms: C1_24  and  OZ_25
REMARK                            x       y       z     vdW  Elec       q    Type
REMARK                         _______ _______ _______ _____ _____    ______ ____
ROOT
ATOM     10  C   UNL     1     -11.451  94.934  14.851  0.00  0.00    +0.080 A 
ATOM     11  N   UNL     1     -10.675  93.939  15.445  0.00  0.00    -0.297 N 
ATOM     15  C   UNL     1     -10.177  93.192  14.431  0.00  0.00    +0.179 A 
ATOM     16  N   UNL     1     -10.583  93.587  13.248  0.00  0.00    -0.224 NA
ATOM     17  C   UNL     1     -11.413  94.674  13.487  0.00  0.00    +0.099 A 
ENDROOT
BRANCH  10   8
ATOM      5  C   UNL     1     -13.210  97.887  17.372  0.00  0.00    +0.174 A 
ATOM      6  C   UNL     1     -11.837  97.704  17.375  0.00  0.00    +0.040 A 
ATOM      7  C   UNL     1     -11.266  96.782  16.515  0.00  0.00    +0.005 A 
ATOM      8  C   UNL     1     -12.056  96.017  15.657  0.00  0.00    +0.018 A 
ATOM      9  C   UNL     1     -13.432  96.238  15.643  0.00  0.00    +0.005 A 
ATOM     26  C   UNL     1     -14.010  97.165  16.495  0.00  0.00    +0.040 A 
BRANCH   5   4
ATOM      4  O   UNL     1     -13.791  98.818  18.274  0.00  0.00    -0.335 OA
BRANCH   4   1
ATOM      1  S   UNL     1     -14.647  98.301  19.535  0.00  0.00    +0.224 S 
ATOM      2  O   UNL     1     -13.895  98.645  20.688  0.00  0.00    -0.028 OA
ATOM      3  O   UNL     1     -15.033  96.959  19.288  0.00  0.00    -0.122 OA
ENDBRANCH   4   1
ENDBRANCH   5   4
ENDBRANCH  10   8
BRANCH  17  18
ATOM     18  C   UNL     1     -12.183  95.251  12.360  0.00  0.00    +0.022 A 
ATOM     19  C   UNL     1     -12.633  96.570  12.398  0.00  0.00    +0.038 A 
ATOM     20  C   UNL     1     -13.436  97.052  11.374  0.00  0.00    +0.139 A 
ATOM     23  C   UNL     1     -13.767  96.252  10.281  0.00  0.00    +0.037 A 
ATOM     24  C   UNL     1     -13.301  94.949  10.237  0.00  0.00    +0.003 A 
ATOM     25  C   UNL     1     -12.519  94.447  11.266  0.00  0.00    +0.002 A 
BRANCH  20  21
ATOM     21  O   UNL     1     -13.943  98.330  11.480  0.00  0.00    -0.471 OA
ATOM     22  C   UNL     1     -14.787  98.853  10.450  0.00  0.00    +0.253 C 
ENDBRANCH  20  21
ENDBRANCH  17  18
BRANCH  11  12
ATOM     12  C   UNL     1     -10.542  93.637  16.878  0.00  0.00    +0.185 C 
BRANCH  12  13
ATOM     13  C   UNL     1      -9.388  94.297  17.499  0.00  0.00    -0.052 C 
ATOM     14  C   UNL     1      -8.476  94.804  18.046  0.00  0.00    -0.012 C 
ENDBRANCH  12  13
ENDBRANCH  11  12
TORSDOF 7
