REMARK  Name = 2g9x_ligand
REMARK  12 active torsions:
REMARK  status: ('A' for Active; 'I' for Inactive)
REMARK    1  A    between atoms: S1_2  and  C22_4
REMARK    2  A    between atoms: S1_2  and  C19_11
REMARK    3  A    between atoms: C22_4  and  C23_5
REMARK    4  A    between atoms: C23_5  and  N6_6
REMARK    5  A    between atoms: N6_6  and  C24_7
REMARK    6  A    between atoms: C24_7  and  C25_8
REMARK    7  A    between atoms: C25_8  and  C26_9
REMARK    8  A    between atoms: C26_9  and  O4_10
REMARK    9  A    between atoms: C16_14  and  N2_17
REMARK   10  A    between atoms: C6_20  and  O6_27
REMARK   11  A    between atoms: O6_27  and  C9_28
REMARK   12  A    between atoms: C9_28  and  C10_29
REMARK                            x       y       z     vdW  Elec       q    Type
REMARK                         _______ _______ _______ _____ _____    ______ ____
ROOT
ATOM      7  N   UNL     1      -7.854 -24.644  25.098  0.00  0.00    -0.251 N 
ATOM      8  H   UNL     1      -8.590 -25.000  25.725  0.00  0.00    +0.215 HD
ATOM      9  C   UNL     1      -8.200 -23.608  24.297  0.00  0.00    +0.177 A 
ATOM     10  N   UNL     1      -9.465 -23.140  24.378  0.00  0.00    -0.282 NA
ATOM     11  C   UNL     1      -9.883 -22.109  23.619  0.00  0.00    +0.090 A 
ATOM     12  N   UNL     1     -11.033 -21.457  23.481  0.00  0.00    -0.290 NA
ATOM     13  C   UNL     1     -10.851 -20.491  22.540  0.00  0.00    +0.249 A 
ATOM     14  N   UNL     1      -9.590 -20.493  22.049  0.00  0.00    -0.245 N 
ATOM     15  H   UNL     1      -9.207 -19.864  21.329  0.00  0.00    +0.235 HD
ATOM     16  C   UNL     1      -8.940 -21.476  22.685  0.00  0.00    +0.154 A 
ATOM     17  C   UNL     1      -7.579 -22.030  22.646  0.00  0.00    +0.197 A 
ATOM     26  N   UNL     1      -7.294 -23.069  23.450  0.00  0.00    -0.239 NA
ENDROOT
BRANCH   7   6
ATOM      3  C   UNL     1      -4.231 -26.682  25.472  0.00  0.00    +0.076 A 
ATOM      4  C   UNL     1      -4.337 -25.633  24.553  0.00  0.00    +0.014 A 
ATOM      5  C   UNL     1      -5.538 -24.928  24.400  0.00  0.00    +0.017 A 
ATOM      6  C   UNL     1      -6.650 -25.268  25.171  0.00  0.00    +0.063 A 
ATOM     27  C   UNL     1      -6.535 -26.314  26.077  0.00  0.00    +0.017 A 
ATOM     28  C   UNL     1      -5.343 -27.014  26.229  0.00  0.00    +0.014 A 
BRANCH   3   2
ATOM      1  O   UNL     1      -2.936 -28.332  26.831  0.00  0.00    -0.171 OA
ATOM      2  S   UNL     1      -2.877 -27.521  25.650  0.00  0.00    -0.003 S 
ATOM     39  O   UNL     1      -2.790 -28.426  24.525  0.00  0.00    -0.171 OA
BRANCH   2  29
ATOM     29  C   UNL     1      -1.568 -26.491  25.752  0.00  0.00    +0.220 C 
BRANCH  29  30
ATOM     30  C   UNL     1      -0.445 -26.977  24.855  0.00  0.00    +0.152 C 
BRANCH  30  31
ATOM     31  N   UNL     1      -0.515 -26.400  23.521  0.00  0.00    +0.228 N 
ATOM     32  H   UNL     1      -0.957 -27.085  22.928  0.00  0.00    +0.201 HD
ATOM     33  H   UNL     1      -1.101 -25.583  23.585  0.00  0.00    +0.201 HD
BRANCH  31  34
ATOM     34  C   UNL     1       0.714 -25.989  22.851  0.00  0.00    +0.131 C 
BRANCH  34  35
ATOM     35  C   UNL     1       0.808 -26.551  21.433  0.00  0.00    +0.078 C 
BRANCH  35  36
ATOM     36  C   UNL     1       1.128 -28.047  21.411  0.00  0.00    +0.161 C 
BRANCH  36  37
ATOM     37  O   UNL     1       0.047 -28.793  21.994  0.00  0.00    -0.395 OA
ATOM     38  H   UNL     1       0.257 -29.719  21.975  0.00  0.00    +0.209 HD
ENDBRANCH  36  37
ENDBRANCH  35  36
ENDBRANCH  34  35
ENDBRANCH  31  34
ENDBRANCH  30  31
ENDBRANCH  29  30
ENDBRANCH   2  29
ENDBRANCH   3   2
ENDBRANCH   7   6
BRANCH  17  18
ATOM     18  O   UNL     1      -6.644 -21.515  21.807  0.00  0.00    -0.293 OA
BRANCH  18  19
ATOM     19  C   UNL     1      -5.301 -21.333  22.235  0.00  0.00    +0.205 C 
BRANCH  19  20
ATOM     20  C   UNL     1      -4.412 -21.992  21.174  0.00  0.00    +0.020 C 
ATOM     21  C   UNL     1      -2.934 -21.666  21.445  0.00  0.00    +0.006 C 
ATOM     22  C   UNL     1      -2.230 -20.916  20.319  0.00  0.00    +0.000 C 
ATOM     23  C   UNL     1      -2.562 -21.529  18.960  0.00  0.00    +0.000 C 
ATOM     24  C   UNL     1      -4.031 -21.270  18.650  0.00  0.00    +0.000 C 
ATOM     25  C   UNL     1      -4.983 -21.741  19.755  0.00  0.00    +0.006 C 
ENDBRANCH  19  20
ENDBRANCH  18  19
ENDBRANCH  17  18
TORSDOF 12
