REMARK  Name = LA8
REMARK  6 active torsions:
REMARK  status: ('A' for Active; 'I' for Inactive)
REMARK    1  A    between atoms: N9_10  and  C1'_13
REMARK    2  A    between atoms: PA_11  and  O3A_22
REMARK    3  A    between atoms: PA_11  and  O5'_27
REMARK    4  A    between atoms: PB_12  and  O3A_22
REMARK    5  A    between atoms: C4'_24  and  C5'_26
REMARK    6  A    between atoms: C5'_26  and  O5'_27
REMARK                            x       y       z     vdW  Elec       q    Type
REMARK                         _______ _______ _______ _____ _____    ______ ____
ROOT
ATOM      8  C   UNL     1     -10.981 -13.075  24.049  0.00  0.00    +0.241 C 
ATOM      9  O   UNL     1      -9.635 -12.767  23.680  0.00  0.00    -0.331 OA
ATOM     10  C   UNL     1      -9.660 -12.075  22.374  0.00  0.00    +0.180 C 
ATOM     21  C   UNL     1     -10.704 -12.848  21.611  0.00  0.00    +0.216 C 
ATOM     22  O   UNL     1     -11.250 -11.923  20.661  0.00  0.00    -0.218 OA
ATOM     23  C   UNL     1     -11.757 -13.050  22.719  0.00  0.00    +0.234 C 
ATOM     24  O   UNL     1     -12.561 -11.846  22.731  0.00  0.00    -0.216 OA
ENDROOT
BRANCH   8   7
ATOM      1  N   UNL     1     -11.081 -18.250  23.234  0.00  0.00    -0.204 NA
ATOM      2  C   UNL     1     -11.155 -17.989  24.548  0.00  0.00    +0.192 A 
ATOM      3  N   UNL     1     -11.207 -18.962  25.454  0.00  0.00    -0.105 NA
ATOM      4  C   UNL     1     -11.147 -16.682  24.996  0.00  0.00    +0.152 A 
ATOM      5  N   UNL     1     -11.155 -16.145  26.213  0.00  0.00    -0.219 NA
ATOM      6  C   UNL     1     -11.118 -14.766  26.046  0.00  0.00    +0.182 A 
ATOM      7  N   UNL     1     -11.045 -14.465  24.728  0.00  0.00    -0.269 N 
ATOM     25  C   UNL     1     -11.042 -15.648  24.070  0.00  0.00    +0.169 A 
ATOM     26  N   UNL     1     -10.940 -15.948  22.778  0.00  0.00    -0.205 NA
ATOM     27  C   UNL     1     -10.981 -17.229  22.389  0.00  0.00    +0.202 A 
ENDBRANCH   8   7
BRANCH  10  11
ATOM     11  C   UNL     1      -8.272 -12.205  21.781  0.00  0.00    +0.181 C 
BRANCH  11  12
ATOM     12  O   UNL     1      -7.345 -11.282  22.473  0.00  0.00    -0.311 OA
BRANCH  12  13
ATOM     13  P   UNL     1      -5.704 -11.372  22.137  0.00  0.00    +0.223 P 
ATOM     14  O   UNL     1      -5.188 -12.583  22.798  0.00  0.00    -0.437 OA
ATOM     20  O   UNL     1      -5.616 -11.454  20.423  0.00  0.00    -0.517 OA
BRANCH  13  15
ATOM     15  O   UNL     1      -5.110 -10.113  22.778  0.00  0.00    -0.226 OA
BRANCH  15  16
ATOM     16  P   UNL     1      -5.096  -8.774  21.992  0.00  0.00    +0.537 P 
ATOM     17  O   UNL     1      -5.449  -7.562  22.937  0.00  0.00    -0.114 OA
ATOM     18  O   UNL     1      -3.467  -8.532  21.844  0.00  0.00    -0.114 OA
ATOM     19  O   UNL     1      -5.819  -8.707  20.659  0.00  0.00    -0.222 OA
ENDBRANCH  15  16
ENDBRANCH  13  15
ENDBRANCH  12  13
ENDBRANCH  11  12
ENDBRANCH  10  11
TORSDOF 6
