REMARK  Name = 5JZN
REMARK  11 active torsions:
REMARK  status: ('A' for Active; 'I' for Inactive)
REMARK    1  A    between atoms: N_7  and  C_8
REMARK    2  A    between atoms: C_11  and  N_16
REMARK    3  A    between atoms: C_13  and  O_14
REMARK    4  A    between atoms: O_14  and  C_15
REMARK    5  A    between atoms: C_19  and  N_22
REMARK    6  A    between atoms: N_25  and  C_28
REMARK    7  A    between atoms: N_29  and  C_30
REMARK    8  A    between atoms: C_31  and  S_36
REMARK    9  A    between atoms: S_36  and  C_37
REMARK   10  A    between atoms: C_37  and  C_38
REMARK   11  A    between atoms: C_37  and  C_39
REMARK                            x       y       z     vdW  Elec       q    Type
REMARK                         _______ _______ _______ _____ _____    ______ ____
ROOT
ATOM      1  C   UNL     1      25.055 134.046 -31.303  0.00  0.00    +0.099 C 
ATOM      2 CL   UNL     1      23.277 133.930 -31.522  0.00  0.00    -0.078 Cl
ATOM      3  C   UNL     1      25.706 135.267 -31.229  0.00  0.00    +0.109 C 
ATOM      4  N   UNL     1      27.036 135.302 -31.073  0.00  0.00    -0.331 N 
ATOM      5  H   UNL     1      27.526 136.252 -31.018  0.00  0.00    +0.168 HD
ATOM      6  C   UNL     1      27.782 134.173 -30.983  0.00  0.00    +0.208 C 
ATOM      7  N   UNL     1      29.132 134.278 -30.830  0.00  0.00    -0.211 NA
ATOM     29  N   UNL     1      27.189 132.962 -31.061  0.00  0.00    -0.309 N 
ATOM     30  H   UNL     1      27.799 132.086 -30.997  0.00  0.00    +0.170 HD
ATOM     31  C   UNL     1      25.865 132.815 -31.216  0.00  0.00    +0.154 C 
ATOM     32  N   UNL     1      25.256 131.603 -31.282  0.00  0.00    -0.227 NA
ENDROOT
BRANCH   7   8
ATOM      8  C   UNL     1      30.011 133.234 -30.754  0.00  0.00    +0.109 A 
ATOM      9  C   UNL     1      31.360 133.384 -31.351  0.00  0.00    +0.147 A 
ATOM     12  C   UNL     1      32.280 132.339 -31.271  0.00  0.00    +0.070 A 
ATOM     13  C   UNL     1      31.940 131.144 -30.643  0.00  0.00    +0.033 A 
ATOM     27  C   UNL     1      30.678 131.014 -30.068  0.00  0.00    +0.025 A 
ATOM     28  C   UNL     1      29.733 132.032 -30.114  0.00  0.00    +0.033 A 
BRANCH  13  14
ATOM     14  N   UNL     1      32.860 130.071 -30.528  0.00  0.00    -0.330 N 
ATOM     15  C   UNL     1      34.059 130.266 -31.355  0.00  0.00    +0.106 C 
ATOM     16  C   UNL     1      35.086 129.220 -30.937  0.00  0.00    +0.037 C 
ATOM     17  C   UNL     1      34.562 127.791 -31.086  0.00  0.00    +0.060 C 
ATOM     25  C   UNL     1      33.176 127.646 -30.461  0.00  0.00    +0.037 C 
ATOM     26  C   UNL     1      32.243 128.778 -30.878  0.00  0.00    +0.106 C 
BRANCH  17  18
ATOM     18  N   UNL     1      35.526 126.909 -30.408  0.00  0.00    -0.297 NA
ATOM     19  C   UNL     1      35.025 125.531 -30.254  0.00  0.00    +0.100 C 
ATOM     20  C   UNL     1      36.030 124.784 -29.376  0.00  0.00    +0.099 C 
ATOM     21  N   UNL     1      37.365 124.778 -30.008  0.00  0.00    -0.303 NA
ATOM     22  C   UNL     1      38.331 124.156 -29.091  0.00  0.00    +0.105 C 
ATOM     23  C   UNL     1      37.824 126.144 -30.325  0.00  0.00    +0.099 C 
ATOM     24  C   UNL     1      36.787 126.880 -31.168  0.00  0.00    +0.100 C 
ENDBRANCH  17  18
ENDBRANCH  13  14
BRANCH   9  10
ATOM     10  O   UNL     1      31.680 134.562 -31.974  0.00  0.00    -0.493 OA
ATOM     11  C   UNL     1      32.258 134.533 -33.277  0.00  0.00    +0.277 C 
ENDBRANCH   9  10
ENDBRANCH   7   8
BRANCH  32  33
ATOM     33  C   UNL     1      25.845 130.374 -31.190  0.00  0.00    +0.091 A 
ATOM     34  C   UNL     1      27.135 130.116 -31.666  0.00  0.00    +0.029 A 
ATOM     35  C   UNL     1      27.713 128.850 -31.560  0.00  0.00    +0.002 A 
ATOM     36  C   UNL     1      27.015 127.801 -30.977  0.00  0.00    +0.002 A 
ATOM     37  C   UNL     1      25.726 127.997 -30.488  0.00  0.00    +0.029 A 
ATOM     38  C   UNL     1      25.105 129.241 -30.555  0.00  0.00    +0.114 A 
BRANCH  38  39
ATOM     39  S   UNL     1      23.621 129.406 -29.979  0.00  0.00    +0.001 S 
ATOM     40  O   UNL     1      22.958 130.506 -30.624  0.00  0.00    -0.169 OA
ATOM     41  O   UNL     1      22.894 128.192 -30.254  0.00  0.00    -0.169 OA
BRANCH  39  42
ATOM     42  C   UNL     1      23.597 129.717 -28.326  0.00  0.00    +0.130 C 
ATOM     43  C   UNL     1      24.129 128.527 -27.528  0.00  0.00    +0.032 C 
ATOM     44  C   UNL     1      24.358 130.988 -27.958  0.00  0.00    +0.032 C 
ENDBRANCH  39  42
ENDBRANCH  38  39
ENDBRANCH  32  33
TORSDOF 7
