REMARK  Name = 3h3c_ligand
REMARK  9 active torsions:
REMARK  status: ('A' for Active; 'I' for Inactive)
REMARK    1  A    between atoms: C4_1  and  N7_22
REMARK    2  A    between atoms: C15_6  and  C12_9
REMARK    3  A    between atoms: N8_12  and  C25_13
REMARK    4  A    between atoms: C24_17  and  N26_18
REMARK    5  A    between atoms: N26_18  and  C30_19
REMARK    6  A    between atoms: N26_18  and  C29_20
REMARK    7  A    between atoms: C1_26  and  S18_27
REMARK    8  A    between atoms: S18_27  and  N17_30
REMARK    9  A    between atoms: N17_30  and  C23_31
REMARK                            x       y       z     vdW  Elec       q    Type
REMARK                         _______ _______ _______ _____ _____    ______ ____
ROOT
ATOM     13  N   UNL     1      15.611  -9.833   1.028  0.00  0.00    -0.228 N 
ATOM     14  H   UNL     1      15.285  -9.653   0.068  0.00  0.00    +0.230 HD
ATOM     15  C   UNL     1      14.698  -9.571   2.019  0.00  0.00    +0.229 A 
ATOM     16  N   UNL     1      14.934  -9.860   3.299  0.00  0.00    -0.207 NA
ATOM     17  C   UNL     1      14.026  -9.552   4.219  0.00  0.00    +0.151 A 
ATOM     18  N   UNL     1      14.292  -9.818   5.554  0.00  0.00    -0.276 N 
ATOM     19  H   UNL     1      13.585  -9.633   6.280  0.00  0.00    +0.199 HD
ATOM     29  C   UNL     1      12.805  -8.984   3.825  0.00  0.00    +0.099 A 
ATOM     34  C   UNL     1      12.579  -8.715   2.497  0.00  0.00    +0.148 A 
ATOM     35  N   UNL     1      13.563  -9.020   1.643  0.00  0.00    -0.227 NA
ENDROOT
BRANCH  13   1
ATOM      1  C   UNL     1      16.911 -10.306   1.138  0.00  0.00    +0.075 A 
ATOM      2  C   UNL     1      17.560 -10.695  -0.050  0.00  0.00    +0.022 A 
ATOM      3  C   UNL     1      18.874 -11.150   0.034  0.00  0.00    +0.018 A 
ATOM      4  C   UNL     1      19.557 -11.197   1.257  0.00  0.00    +0.098 A 
ATOM     11  C   UNL     1      18.895 -10.786   2.429  0.00  0.00    +0.018 A 
ATOM     12  C   UNL     1      17.589 -10.344   2.374  0.00  0.00    +0.022 A 
BRANCH   4   5
ATOM      5  S   UNL     1      21.271 -11.765   1.398  0.00  0.00    +0.064 S 
ATOM      9  O   UNL     1      21.929 -11.469   0.176  0.00  0.00    -0.152 OA
ATOM     10  O   UNL     1      21.263 -13.055   2.040  0.00  0.00    -0.152 OA
BRANCH   5   6
ATOM      6  N   UNL     1      21.856 -10.682   2.520  0.00  0.00    -0.252 NA
ATOM      7  H   UNL     1      22.114 -11.042   3.416  0.00  0.00    +0.167 HD
ATOM      8  C   UNL     1      22.024  -9.228   2.296  0.00  0.00    +0.147 C 
ENDBRANCH   5   6
ENDBRANCH   4   5
ENDBRANCH  13   1
BRANCH  18  20
ATOM     20  C   UNL     1      15.594 -10.365   5.903  0.00  0.00    +0.154 C 
ATOM     21  C   UNL     1      15.971  -9.987   7.376  0.00  0.00    +0.091 C 
ATOM     26  C   UNL     1      16.397 -11.313   8.017  0.00  0.00    +0.057 C 
ATOM     27  C   UNL     1      15.766 -12.454   7.182  0.00  0.00    +0.008 C 
ATOM     28  C   UNL     1      15.563 -11.905   5.756  0.00  0.00    +0.036 C 
BRANCH  21  22
ATOM     22  N   UNL     1      17.125  -9.063   7.420  0.00  0.00    +0.235 N 
ATOM     23  H   UNL     1      17.912  -9.487   6.954  0.00  0.00    +0.203 HD
ATOM     24  C   UNL     1      16.765  -7.788   6.790  0.00  0.00    +0.190 C 
ATOM     25  C   UNL     1      17.481  -8.691   8.803  0.00  0.00    +0.190 C 
ENDBRANCH  21  22
ENDBRANCH  18  20
BRANCH  29  30
ATOM     30  C   UNL     1      11.748  -8.646   4.847  0.00  0.00    +0.363 C 
ATOM     31  F   UNL     1      11.318  -9.818   5.478  0.00  0.00    -0.240 F 
ATOM     32  F   UNL     1      10.725  -7.974   4.209  0.00  0.00    -0.240 F 
ATOM     33  F   UNL     1      12.201  -7.726   5.762  0.00  0.00    -0.240 F 
ENDBRANCH  29  30
TORSDOF 6
