REMARK  Name = 2J51
REMARK  6 active torsions:
REMARK  status: ('A' for Active; 'I' for Inactive)
REMARK    1  A    between atoms: C_8  and  N_9
REMARK    2  A    between atoms: N_9  and  C_10
REMARK    3  A    between atoms: C_10  and  N_12
REMARK    4  A    between atoms: N_18  and  C_19
REMARK    5  A    between atoms: C_24  and  S_25
REMARK    6  A    between atoms: S_25  and  N_28
REMARK                            x       y       z     vdW  Elec       q    Type
REMARK                         _______ _______ _______ _____ _____    ______ ____
ROOT
ATOM      7  N   UNL     1     -30.930  46.761  -5.171  0.00  0.00    -0.177 N 
ATOM      8  C   UNL     1     -31.140  46.636  -3.846  0.00  0.00    +0.219 A 
ATOM      9  N   UNL     1     -30.587  47.649  -3.156  0.00  0.00    -0.180 NA
ATOM     10  C   UNL     1     -30.055  48.427  -4.133  0.00  0.00    +0.241 A 
ATOM     11  N   UNL     1     -29.385  49.571  -3.779  0.00  0.00    -0.282 N 
ATOM     12  H   UNL     1     -29.412  49.816  -2.738  0.00  0.00    +0.155 HD
ATOM     25  N   UNL     1     -31.776  45.637  -3.183  0.00  0.00    -0.327 N 
ATOM     26  H   UNL     1     -31.866  45.675  -2.118  0.00  0.00    +0.145 HD
ATOM     27  H   UNL     1     -32.187  44.812  -3.726  0.00  0.00    +0.145 HD
ATOM     28  N   UNL     1     -30.236  47.959  -5.390  0.00  0.00    -0.126 NA
ENDROOT
BRANCH  11  13
ATOM     13  C   UNL     1     -28.683  50.448  -4.574  0.00  0.00    +0.034 A 
ATOM     14  C   UNL     1     -27.992  51.499  -3.941  0.00  0.00    +0.025 A 
ATOM     15  C   UNL     1     -27.241  52.425  -4.675  0.00  0.00    +0.030 A 
ATOM     16  C   UNL     1     -27.173  52.334  -6.072  0.00  0.00    +0.105 A 
ATOM     23  C   UNL     1     -27.859  51.285  -6.702  0.00  0.00    +0.030 A 
ATOM     24  C   UNL     1     -28.597  50.355  -5.969  0.00  0.00    +0.025 A 
BRANCH  16  17
ATOM     17  S   UNL     1     -26.309  53.367  -6.976  0.00  0.00    +0.056 S 
ATOM     21  O   UNL     1     -25.599  54.292  -6.130  0.00  0.00    -0.153 OA
ATOM     22  O   UNL     1     -25.328  52.592  -7.697  0.00  0.00    -0.153 OA
BRANCH  17  18
ATOM     18  N   UNL     1     -27.152  54.187  -8.058  0.00  0.00    -0.203 NA
ATOM     19  H   UNL     1     -27.621  53.505  -8.736  0.00  0.00    +0.144 HD
ATOM     20  H   UNL     1     -27.901  54.768  -7.562  0.00  0.00    +0.144 HD
ENDBRANCH  17  18
ENDBRANCH  16  17
ENDBRANCH  11  13
BRANCH   7   6
ATOM      6  C   UNL     1     -31.294  45.935  -6.250  0.00  0.00    +0.174 C 
ATOM     29  S   UNL     1     -32.274  44.697  -6.059  0.00  0.00    -0.014 S 
BRANCH   6   4
ATOM      4  N   UNL     1     -30.632  46.342  -7.376  0.00  0.00    -0.289 N 
ATOM      5  H   UNL     1     -30.097  47.267  -7.327  0.00  0.00    +0.154 HD
BRANCH   4   3
ATOM      1  F   UNL     1     -28.503  44.706  -7.982  0.00  0.00    -0.203 F 
ATOM      2  C   UNL     1     -29.561  44.745  -8.780  0.00  0.00    +0.147 A 
ATOM      3  C   UNL     1     -30.602  45.658  -8.557  0.00  0.00    +0.104 A 
ATOM     30  C   UNL     1     -31.722  45.591  -9.404  0.00  0.00    +0.147 A 
ATOM     31  F   UNL     1     -32.785  46.407  -9.256  0.00  0.00    -0.203 F 
ATOM     32  C   UNL     1     -31.752  44.689 -10.473  0.00  0.00    +0.040 A 
ATOM     33  C   UNL     1     -30.695  43.817 -10.692  0.00  0.00    +0.006 A 
ATOM     34  C   UNL     1     -29.598  43.844  -9.839  0.00  0.00    +0.040 A 
ENDBRANCH   4   3
ENDBRANCH   6   4
ENDBRANCH   7   6
TORSDOF 6
