REMARK  Name = 4bcp_ligand
REMARK  6 active torsions:
REMARK  status: ('A' for Active; 'I' for Inactive)
REMARK    1  A    between atoms: C01_1  and  N02_2
REMARK    2  A    between atoms: C05_5  and  C06_6
REMARK    3  A    between atoms: C07_7  and  C08_8
REMARK    4  A    between atoms: N11_11  and  C12_12
REMARK    5  A    between atoms: C16_16  and  N17_17
REMARK    6  A    between atoms: C27_27  and  C28_28
REMARK                            x       y       z     vdW  Elec       q    Type
REMARK                         _______ _______ _______ _____ _____    ______ ____
ROOT
ATOM      7  C   UNL     1       7.951  21.588  22.704  0.00  0.00    +0.069 A 
ATOM      8  C   UNL     1       9.364  21.503  22.703  0.00  0.00    +0.120 A 
ATOM     11  C   UNL     1      10.079  22.238  23.634  0.00  0.00    +0.132 A 
ATOM     12  N   UNL     1       9.405  23.031  24.527  0.00  0.00    -0.253 NA
ATOM     13  C   UNL     1       8.041  23.108  24.500  0.00  0.00    +0.203 A 
ATOM     14  N   UNL     1       7.345  23.965  25.480  0.00  0.00    -0.243 N 
ATOM     15  H   UNL     1       7.784  24.115  26.400  0.00  0.00    +0.220 HD
ATOM     31  N   UNL     1       7.336  22.399  23.612  0.00  0.00    -0.258 NA
ENDROOT
BRANCH   7   6
ATOM      1  C   UNL     1       3.697  21.209  18.626  0.00  0.00    +0.175 C 
ATOM      2  N   UNL     1       4.431  20.039  19.013  0.00  0.00    -0.280 N 
ATOM      3  H   UNL     1       4.224  19.127  18.581  0.00  0.00    +0.195 HD
ATOM      4  C   UNL     1       5.457  20.155  20.010  0.00  0.00    +0.193 A 
ATOM      5  S   UNL     1       5.937  21.616  20.815  0.00  0.00    +0.021 S 
ATOM      6  C   UNL     1       7.155  20.895  21.790  0.00  0.00    +0.069 A 
ATOM     32  C   UNL     1       7.131  19.527  21.437  0.00  0.00    +0.011 A 
ATOM     33  C   UNL     1       8.065  18.477  22.072  0.00  0.00    +0.107 C 
ATOM     34  N   UNL     1       6.227  19.169  20.499  0.00  0.00    -0.286 NA
ENDBRANCH   7   6
BRANCH  14  16
ATOM     16  C   UNL     1       6.105  24.590  25.217  0.00  0.00    +0.055 A 
ATOM     17  C   UNL     1       5.219  24.074  24.279  0.00  0.00    +0.022 A 
ATOM     18  C   UNL     1       3.972  24.724  24.037  0.00  0.00    +0.031 A 
ATOM     28  C   UNL     1       3.642  25.895  24.759  0.00  0.00    -0.013 A 
ATOM     29  C   UNL     1       4.540  26.418  25.712  0.00  0.00    -0.027 A 
ATOM     30  C   UNL     1       5.761  25.777  25.946  0.00  0.00    -0.008 A 
BRANCH  18  19
ATOM     19  N   UNL     1       3.020  24.179  23.043  0.00  0.00    -0.306 N 
ATOM     20  C   UNL     1       3.514  24.453  21.722  0.00  0.00    +0.180 C 
ATOM     21  C   UNL     1       2.445  24.615  20.674  0.00  0.00    +0.153 C 
ATOM     22  N   UNL     1       1.374  23.666  20.750  0.00  0.00    +0.228 N 
ATOM     23  H   UNL     1       1.767  22.757  20.939  0.00  0.00    +0.201 HD
ATOM     24  H   UNL     1       0.900  23.649  19.861  0.00  0.00    +0.201 HD
ATOM     25  C   UNL     1       0.411  23.965  21.772  0.00  0.00    +0.131 C 
ATOM     26  C   UNL     1       0.751  23.291  23.068  0.00  0.00    +0.074 C 
ATOM     27  C   UNL     1       2.211  22.990  23.147  0.00  0.00    +0.135 C 
ENDBRANCH  18  19
ENDBRANCH  14  16
BRANCH   8   9
ATOM      9  C   UNL     1      10.088  20.643  21.729  0.00  0.00    +0.089 C 
ATOM     10  N   UNL     1      10.641  19.985  20.988  0.00  0.00    -0.343 NA
ENDBRANCH   8   9
TORSDOF 4
