REMARK  Name = 9YZ
REMARK  2 active torsions:
REMARK  status: ('A' for Active; 'I' for Inactive)
REMARK    1  A    between atoms: C1_1  and  C_17
REMARK    2  A    between atoms: C5_4  and  O1_11
REMARK                            x       y       z     vdW  Elec       q    Type
REMARK                         _______ _______ _______ _____ _____    ______ ____
ROOT
ATOM      3  C   UNL     1      10.230  -3.419  -2.827  0.00  0.00    +0.229 C 
ATOM      4  O   UNL     1       9.919  -2.327  -2.354  0.00  0.00    -0.275 OA
ATOM      5  N   UNL     1       9.540  -3.969  -3.890  0.00  0.00    -0.256 N 
ATOM      6  C   UNL     1       8.226  -3.501  -4.256  0.00  0.00    +0.068 A 
ATOM      7  C   UNL     1       7.281  -3.120  -3.298  0.00  0.00    +0.016 A 
ATOM      8  C   UNL     1       5.992  -2.811  -3.765  0.00  0.00    +0.001 A 
ATOM      9  C   UNL     1       5.677  -2.780  -5.139  0.00  0.00    +0.001 A 
ATOM     10  C   UNL     1       6.667  -3.122  -6.067  0.00  0.00    +0.016 A 
ATOM     11  C   UNL     1       7.922  -3.478  -5.644  0.00  0.00    +0.071 A 
ATOM     12  N   UNL     1       8.994  -3.802  -6.523  0.00  0.00    -0.222 N 
ATOM     13  C   UNL     1      10.085  -4.696  -6.144  0.00  0.00    +0.123 C 
ATOM     14  C   UNL     1       9.095  -3.229  -7.734  0.00  0.00    +0.409 C 
ATOM     15  O   UNL     1       8.336  -2.367  -8.160  0.00  0.00    -0.226 OA
ATOM     18  C   UNL     1       9.964  -5.122  -4.707  0.00  0.00    +0.120 C 
ENDROOT
BRANCH   3   1
ATOM      1  C   UNL     1      11.412  -4.221  -2.199  0.00  0.00    +0.086 C 
ATOM      2  C   UNL     1      11.090  -5.622  -1.581  0.00  0.00    +0.010 C 
ENDBRANCH   3   1
BRANCH  14  16
ATOM     16  O   UNL     1      10.204  -3.760  -8.502  0.00  0.00    -0.430 OA
ATOM     17  C   UNL     1      10.382  -3.521  -9.925  0.00  0.00    +0.257 C 
ENDBRANCH  14  16
TORSDOF 2
