REMARK  Name = PZX
REMARK  4 active torsions:
REMARK  status: ('A' for Active; 'I' for Inactive)
REMARK    1  A    between atoms: C9_6  and  C10_7
REMARK    2  A    between atoms: C10_7  and  O13_9
REMARK    3  A    between atoms: O13_9  and  C5_10
REMARK    4  A    between atoms: C5_10  and  C11_11
REMARK                            x       y       z     vdW  Elec       q    Type
REMARK                         _______ _______ _______ _____ _____    ______ ____
ROOT
ATOM      5  C   UNL     1      29.148 -10.416   0.211  0.00  0.00    +0.361 C 
ATOM     14  O   UNL     1      29.510 -11.163  -0.696  0.00  0.00    -0.243 OA
ENDROOT
BRANCH   5   4
ATOM      1  C   UNL     1      25.055  -8.145   1.925  0.00  0.00    +0.054 C 
ATOM      2  C   UNL     1      26.020  -8.919   1.012  0.00  0.00    +0.083 A 
ATOM      3  C   UNL     1      27.263  -9.234   1.356  0.00  0.00    +0.044 A 
ATOM      4  C   UNL     1      27.729  -9.862   0.285  0.00  0.00    +0.179 A 
ATOM     15  N   UNL     1      26.796  -9.890  -0.680  0.00  0.00    -0.142 NA
ATOM     16  N   UNL     1      25.764  -9.364  -0.225  0.00  0.00    -0.152 NA
ENDBRANCH   5   4
BRANCH   5   6
ATOM      6  O   UNL     1      30.014  -9.896   1.120  0.00  0.00    -0.439 OA
BRANCH   6   7
ATOM      7  C   UNL     1      31.307 -10.453   1.421  0.00  0.00    +0.237 C 
BRANCH   7   8
ATOM      8  C   UNL     1      31.756 -10.333   2.732  0.00  0.00    +0.040 A 
ATOM      9  C   UNL     1      30.864 -10.464   3.808  0.00  0.00    +0.003 A 
ATOM     10  C   UNL     1      31.357 -10.311   5.115  0.00  0.00    +0.021 A 
ATOM     11  C   UNL     1      32.738 -10.084   5.288  0.00  0.00    +0.099 A 
ATOM     12  N   UNL     1      33.549  -9.987   4.233  0.00  0.00    -0.242 NA
ATOM     13  C   UNL     1      33.117 -10.073   2.980  0.00  0.00    +0.098 A 
ENDBRANCH   7   8
ENDBRANCH   6   7
ENDBRANCH   5   6
TORSDOF 4
