REMARK  Name = 5NKI
REMARK  14 active torsions:
REMARK  status: ('A' for Active; 'I' for Inactive)
REMARK    1  A    between atoms: N_6  and  C_7
REMARK    2  A    between atoms: C_10  and  S_11
REMARK    3  A    between atoms: S_11  and  C_14
REMARK    4  A    between atoms: C_16  and  N_17
REMARK    5  A    between atoms: C_22  and  C_23
REMARK    6  A    between atoms: N_25  and  C_26
REMARK    7  A    between atoms: C_32  and  C_33
REMARK    8  A    between atoms: N_39  and  C_40
REMARK    9  A    between atoms: C_43  and  S_44
REMARK   10  A    between atoms: S_44  and  C_47
REMARK   11  A    between atoms: C_49  and  N_50
REMARK   12  A    between atoms: C_55  and  C_56
REMARK   13  A    between atoms: N_58  and  C_59
REMARK   14  A    between atoms: C_65  and  C_66
REMARK                            x       y       z     vdW  Elec       q    Type
REMARK                         _______ _______ _______ _____ _____    ______ ____
ROOT
ATOM      8  N   UNL     1     -99.426 -13.514  43.469  0.00  0.00    -0.294 N 
ATOM      9  H   UNL     1     -99.576 -13.070  42.507  0.00  0.00    +0.154 HD
ATOM     10  C   UNL     1    -100.503 -14.025  44.095  0.00  0.00    +0.163 A 
ATOM     11  N   UNL     1    -101.743 -14.046  43.554  0.00  0.00    -0.232 NA
ATOM     12  C   UNL     1    -102.689 -14.603  44.352  0.00  0.00    +0.133 A 
ATOM     13  C   UNL     1    -102.229 -15.066  45.529  0.00  0.00    +0.095 A 
ATOM     26  S   UNL     1    -100.611 -14.759  45.615  0.00  0.00    -0.048 S 
ENDROOT
BRANCH   8   7
ATOM      3  C   UNL     1     -95.769 -13.462  43.522  0.00  0.00    +0.033 A 
ATOM      4  C   UNL     1     -95.500 -13.489  44.887  0.00  0.00    +0.050 A 
ATOM      5  C   UNL     1     -96.552 -13.522  45.789  0.00  0.00    +0.091 A 
ATOM      6  C   UNL     1     -97.861 -13.525  45.332  0.00  0.00    +0.050 A 
ATOM      7  C   UNL     1     -98.159 -13.521  43.971  0.00  0.00    +0.036 A 
ATOM     31  C   UNL     1     -97.091 -13.469  43.080  0.00  0.00    +0.046 A 
BRANCH   3   2
ATOM      1  C   UNL     1     -93.362 -13.598  43.150  0.00  0.00    +0.133 C 
ATOM      2  N   UNL     1     -94.743 -13.420  42.649  0.00  0.00    -0.325 N 
ATOM     32  C   UNL     1     -94.975 -13.185  41.211  0.00  0.00    +0.133 C 
ATOM     33  C   UNL     1     -93.817 -12.444  40.544  0.00  0.00    +0.178 C 
ATOM     34  O   UNL     1     -92.560 -13.029  40.936  0.00  0.00    -0.377 OA
ATOM     35  C   UNL     1     -92.368 -12.777  42.340  0.00  0.00    +0.178 C 
ENDBRANCH   3   2
BRANCH   5  27
ATOM     27  S   UNL     1     -96.286 -13.562  47.509  0.00  0.00    -0.006 S 
ATOM     28  C   UNL     1     -96.884 -15.112  48.146  0.00  0.00    +0.200 C 
ATOM     29  O   UNL     1     -97.075 -12.418  48.149  0.00  0.00    -0.170 OA
ATOM     30  O   UNL     1     -94.795 -13.431  47.814  0.00  0.00    -0.170 OA
ENDBRANCH   5  27
ENDBRANCH   8   7
BRANCH  13  14
ATOM     14  C   UNL     1    -102.917 -15.674  46.524  0.00  0.00    +0.256 C 
ATOM     15  N   UNL     1    -104.187 -16.063  46.287  0.00  0.00    -0.280 N 
ATOM     16  H   UNL     1    -104.643 -15.884  45.336  0.00  0.00    +0.155 HD
ATOM     25  O   UNL     1    -102.359 -15.884  47.598  0.00  0.00    -0.269 OA
BRANCH  15  17
ATOM     17  C   UNL     1    -104.879 -16.689  47.282  0.00  0.00    +0.055 A 
ATOM     18  C   UNL     1    -105.087 -18.069  47.207  0.00  0.00    -0.028 A 
ATOM     19  C   UNL     1    -104.595 -18.817  46.141  0.00  0.00    +0.046 C 
ATOM     20  C   UNL     1    -105.807 -18.719  48.211  0.00  0.00    +0.005 A 
ATOM     21  C   UNL     1    -106.318 -18.000  49.285  0.00  0.00    +0.002 A 
ATOM     22  C   UNL     1    -106.110 -16.626  49.354  0.00  0.00    +0.022 A 
ATOM     23  C   UNL     1    -105.393 -15.959  48.360  0.00  0.00    +0.062 A 
ATOM     24 CL   UNL     1    -105.175 -14.248  48.520  0.00  0.00    -0.082 Cl
ENDBRANCH  15  17
ENDBRANCH  13  14
TORSDOF 5
