REMARK  Name = 2vwv_ligand
REMARK  10 active torsions:
REMARK  status: ('A' for Active; 'I' for Inactive)
REMARK    1  A    between atoms: C1_1  and  O2_2
REMARK    2  A    between atoms: O2_2  and  C3_3
REMARK    3  A    between atoms: C6_6  and  N7_7
REMARK    4  A    between atoms: N13_13  and  C14_14
REMARK    5  A    between atoms: C16_16  and  O17_17
REMARK    6  A    between atoms: O17_17  and  C18_18
REMARK    7  A    between atoms: C19_19  and  O20_20
REMARK    8  A    between atoms: O20_20  and  C21_21
REMARK    9  A    between atoms: C22_22  and  O23_23
REMARK   10  A    between atoms: O23_23  and  C24_24
REMARK                            x       y       z     vdW  Elec       q    Type
REMARK                         _______ _______ _______ _____ _____    ______ ____
ROOT
ATOM      8  N   UNL     1       9.595   4.272  11.910  0.00  0.00    -0.244 N 
ATOM      9  H   UNL     1       9.207   3.329  12.056  0.00  0.00    +0.218 HD
ATOM     10  C   UNL     1      10.957   4.425  12.050  0.00  0.00    +0.206 A 
ATOM     11  N   UNL     1      11.571   5.591  11.777  0.00  0.00    -0.210 NA
ATOM     12  C   UNL     1      12.907   5.632  11.942  0.00  0.00    +0.206 A 
ATOM     13  N   UNL     1      13.633   6.792  11.692  0.00  0.00    -0.249 N 
ATOM     14  H   UNL     1      14.634   6.803  11.933  0.00  0.00    +0.218 HD
ATOM     27  N   UNL     1      13.587   4.548  12.358  0.00  0.00    -0.239 NA
ATOM     28  C   UNL     1      12.959   3.399  12.613  0.00  0.00    +0.187 A 
ATOM     29  N   UNL     1      11.658   3.330  12.455  0.00  0.00    -0.239 NA
ENDROOT
BRANCH   8   7
ATOM      3  C   UNL     1       6.765   7.203  10.929  0.00  0.00    +0.094 A 
ATOM      4  C   UNL     1       7.988   7.575  11.451  0.00  0.00    +0.060 A 
ATOM      5 CL   UNL     1       8.269   9.251  11.637  0.00  0.00    -0.081 Cl
ATOM      6  C   UNL     1       8.968   6.656  11.784  0.00  0.00    +0.020 A 
ATOM      7  C   UNL     1       8.695   5.297  11.585  0.00  0.00    +0.058 A 
ATOM     30  C   UNL     1       7.476   4.900  11.070  0.00  0.00    +0.007 A 
ATOM     31  C   UNL     1       6.514   5.846  10.738  0.00  0.00    +0.011 A 
BRANCH   3   2
ATOM      1  C   UNL     1       4.620   7.538  10.229  0.00  0.00    +0.230 C 
ATOM      2  O   UNL     1       5.829   8.192  10.629  0.00  0.00    -0.327 OA
ENDBRANCH   3   2
ENDBRANCH   8   7
BRANCH  13  15
ATOM     15  C   UNL     1      13.071   7.950  11.128  0.00  0.00    +0.041 A 
ATOM     16  C   UNL     1      13.745   9.144  11.397  0.00  0.00    +0.007 A 
ATOM     17  C   UNL     1      13.313  10.351  10.895  0.00  0.00    +0.103 A 
ATOM     20  C   UNL     1      12.181  10.351  10.089  0.00  0.00    +0.136 A 
ATOM     23  C   UNL     1      11.488   9.163   9.778  0.00  0.00    +0.103 A 
ATOM     26  C   UNL     1      11.933   7.935  10.294  0.00  0.00    +0.007 A 
BRANCH  17  18
ATOM     18  O   UNL     1      13.920  11.575  11.129  0.00  0.00    -0.331 OA
ATOM     19  C   UNL     1      15.010  11.531  12.076  0.00  0.00    +0.228 C 
ENDBRANCH  17  18
BRANCH  20  21
ATOM     21  O   UNL     1      11.801  11.574   9.599  0.00  0.00    -0.337 OA
ATOM     22  C   UNL     1      10.757  12.056  10.462  0.00  0.00    +0.221 C 
ENDBRANCH  20  21
BRANCH  23  24
ATOM     24  O   UNL     1      10.391   9.303   8.975  0.00  0.00    -0.331 OA
ATOM     25  C   UNL     1       9.909   8.108   8.326  0.00  0.00    +0.228 C 
ENDBRANCH  23  24
ENDBRANCH  13  15
TORSDOF 6
