REMARK  Name = 6EDL
REMARK  4 active torsions:
REMARK  status: ('A' for Active; 'I' for Inactive)
REMARK    1  A    between atoms: C5_1  and  N4_25
REMARK    2  A    between atoms: C21_8  and  C2_16
REMARK    3  A    between atoms: C11_13  and  C12_14
REMARK    4  A    between atoms: C2_16  and  N4_25
REMARK                            x       y       z     vdW  Elec       q    Type
REMARK                         _______ _______ _______ _____ _____    ______ ____
ROOT
ATOM      1  C   UNL     1      20.305  -9.121  -6.488  0.00  0.00    +0.200 A 
ATOM     13  N   UNL     1      21.027  -9.882  -7.274  0.00  0.00    -0.350 NA
ATOM     14  N   UNL     1      22.332  -9.522  -7.607  0.00  0.00    -0.100 N 
ATOM     15  C   UNL     1      23.285 -10.118  -8.387  0.00  0.00    +0.100 A 
ATOM     22  C   UNL     1      24.394  -9.296  -8.347  0.00  0.00    +0.000 A 
ATOM     23  N   UNL     1      24.116  -8.252  -7.572  0.00  0.00    -0.350 NA
ATOM     24  C   UNL     1      22.874  -8.365  -7.111  0.00  0.00    +0.000 A 
ATOM     25  C   UNL     1      22.098  -7.549  -6.266  0.00  0.00    -0.100 A 
ATOM     26  C   UNL     1      20.828  -7.926  -5.960  0.00  0.00    -0.100 A 
ENDROOT
BRANCH  15  16
ATOM     16  C   UNL     1      23.147 -11.384  -9.127  0.00  0.00    +0.100 A 
ATOM     17  N   UNL     1      24.087 -11.969  -9.929  0.00  0.00    -0.400 NA
ATOM     18  N   UNL     1      23.540 -13.155 -10.428  0.00  0.00    -0.100 NA
ATOM     19  C   UNL     1      22.330 -13.296  -9.952  0.00  0.00    +0.100 A 
ATOM     20  C   UNL     1      21.399 -14.445 -10.247  0.00  0.00    -0.150 C 
ATOM     21  C   UNL     1      22.041 -12.207  -9.131  0.00  0.00    -0.100 A 
ENDBRANCH  15  16
BRANCH   1   2
ATOM      2  N   UNL     1      19.003  -9.511  -6.177  0.00  0.00    -0.450 NA
BRANCH   2   3
ATOM      3  C   UNL     1      18.526 -10.846  -6.564  0.00  0.00    +0.050 C 
ATOM      4  C   UNL     1      17.290 -11.211  -5.738  0.00  0.00    -0.150 C 
BRANCH   3   5
ATOM      5  C   UNL     1      18.170 -10.872  -8.030  0.00  0.00    +0.000 A 
ATOM      6  C   UNL     1      18.141 -12.079  -8.709  0.00  0.00    +0.300 A 
ATOM      7  F   UNL     1      18.433 -13.226  -8.054  0.00  0.00    -0.300 F 
ATOM      8  C   UNL     1      17.814 -12.115 -10.054  0.00  0.00    -0.130 A 
ATOM      9  C   UNL     1      17.518 -10.939 -10.718  0.00  0.00    +0.300 A 
ATOM     10  F   UNL     1      17.199 -10.966 -12.031  0.00  0.00    -0.300 F 
ATOM     11  C   UNL     1      17.547  -9.732 -10.040  0.00  0.00    -0.130 A 
ATOM     12  C   UNL     1      17.874  -9.700  -8.698  0.00  0.00    -0.130 A 
ENDBRANCH   3   5
ENDBRANCH   2   3
ENDBRANCH   1   2
TORSDOF 4
