REMARK  Name = 3GU
REMARK  4 active torsions:
REMARK  status: ('A' for Active; 'I' for Inactive)
REMARK    1  A    between atoms: C1_1  and  N6_8
REMARK    2  A    between atoms: C6_7  and  N6_8
REMARK    3  A    between atoms: N9_11  and  C1'_12
REMARK    4  A    between atoms: C4'_21  and  C5'_23
REMARK                            x       y       z     vdW  Elec       q    Type
REMARK                         _______ _______ _______ _____ _____    ______ ____
ROOT
ATOM      7  C   UNL     1     -25.398   5.006  -9.492  0.00  0.00    +0.170 A 
ATOM      8  N   UNL     1     -26.515   5.479 -10.105  0.00  0.00    -0.206 NA
ATOM      9  C   UNL     1     -26.866   5.109 -11.349  0.00  0.00    +0.202 A 
ATOM     10  N   UNL     1     -26.106   4.249 -12.041  0.00  0.00    -0.205 NA
ATOM     11  C   UNL     1     -24.970   3.748 -11.495  0.00  0.00    +0.169 A 
ATOM     12  N   UNL     1     -24.054   2.906 -11.984  0.00  0.00    -0.269 N 
ATOM     13  C   UNL     1     -23.111   2.707 -11.044  0.00  0.00    +0.182 A 
ATOM     14  N   UNL     1     -23.405   3.455  -9.957  0.00  0.00    -0.219 NA
ATOM     24  C   UNL     1     -24.578   4.112 -10.212  0.00  0.00    +0.150 A 
ENDROOT
BRANCH  12  15
ATOM     15  C1* UNL     1     -24.150   2.259 -13.332  0.00  0.00    +0.241 C 
ATOM     16  O4* UNL     1     -23.616   0.937 -13.208  0.00  0.00    -0.331 OA
ATOM     17  C4* UNL     1     -22.459   0.807 -14.062  0.00  0.00    +0.183 C 
ATOM     20  C3* UNL     1     -22.051   2.225 -14.427  0.00  0.00    +0.216 C 
ATOM     21  O3* UNL     1     -21.358   2.319 -15.689  0.00  0.00    -0.218 OA
ATOM     22  C2* UNL     1     -23.372   2.946 -14.444  0.00  0.00    +0.234 C 
ATOM     23  O2* UNL     1     -24.049   2.670 -15.678  0.00  0.00    -0.216 OA
BRANCH  17  18
ATOM     18  C5* UNL     1     -21.366   0.064 -13.328  0.00  0.00    +0.214 C 
ATOM     19  O5* UNL     1     -20.648   0.975 -12.483  0.00  0.00    -0.218 OA
ENDBRANCH  17  18
ENDBRANCH  12  15
BRANCH   7   6
ATOM      6  N   UNL     1     -25.162   5.458  -8.213  0.00  0.00    -0.221 NA
BRANCH   6   1
ATOM      1  C   UNL     1     -24.027   5.063  -7.369  0.00  0.00    +0.094 C 
ATOM      2  C   UNL     1     -24.201   5.703  -5.995  0.00  0.00    +0.022 C 
ATOM      3  C   UNL     1     -23.640   4.717  -4.973  0.00  0.00    +0.002 C 
ATOM      4  C   UNL     1     -23.927   3.346  -5.569  0.00  0.00    +0.002 C 
ATOM      5  C   UNL     1     -24.191   3.573  -7.052  0.00  0.00    +0.022 C 
ENDBRANCH   6   1
ENDBRANCH   7   6
TORSDOF 4
