REMARK  Name = 3CXW
REMARK  3 active torsions:
REMARK  status: ('A' for Active; 'I' for Inactive)
REMARK    1  A    between atoms: N_3  and  C_4
REMARK    2  A    between atoms: N_12  and  C_13
REMARK    3  A    between atoms: C_23  and  C_24
REMARK                            x       y       z     vdW  Elec       q    Type
REMARK                         _______ _______ _______ _____ _____    ______ ____
ROOT
ATOM      1  C   UNL     1      34.067  49.124  15.458  0.00  0.00    +0.043 C 
ATOM      2  C   UNL     1      33.145  50.311  15.090  0.00  0.00    +0.057 C 
ATOM      3  C   UNL     1      32.291  50.000  13.835  0.00  0.00    +0.147 C 
ATOM      6  C   UNL     1      31.227  48.943  14.194  0.00  0.00    +0.009 A 
ATOM      7  C   UNL     1      30.495  48.031  13.425  0.00  0.00    +0.007 A 
ATOM      8  C   UNL     1      30.462  47.788  12.061  0.00  0.00    +0.012 A 
ATOM      9  C   UNL     1      29.621  46.825  11.540  0.00  0.00    +0.022 A 
ATOM     10  C   UNL     1      28.812  46.098  12.402  0.00  0.00    +0.061 A 
ATOM     11 CL   UNL     1      27.773  44.888  11.769  0.00  0.00    -0.082 Cl
ATOM     12  C   UNL     1      28.815  46.343  13.760  0.00  0.00    +0.083 A 
ATOM     13 CL   UNL     1      27.800  45.364  14.761  0.00  0.00    -0.080 Cl
ATOM     14  C   UNL     1      29.653  47.324  14.292  0.00  0.00    +0.070 A 
ATOM     15  N   UNL     1      29.873  47.788  15.540  0.00  0.00    -0.338 N 
ATOM     16  C   UNL     1      29.219  47.290  16.774  0.00  0.00    +0.149 C 
ATOM     17  C   UNL     1      30.811  48.737  15.532  0.00  0.00    +0.110 A 
ATOM     18  C   UNL     1      31.308  49.556  16.549  0.00  0.00    +0.261 C 
ATOM     19  O   UNL     1      30.652  49.726  17.566  0.00  0.00    -0.269 OA
ATOM     20  N   UNL     1      32.312  50.459  16.299  0.00  0.00    -0.303 N 
ATOM     21  H   UNL     1      32.490  51.267  16.978  0.00  0.00    +0.150 HD
ATOM     22  C   UNL     1      34.014  51.531  14.946  0.00  0.00    +0.043 C 
ATOM     23  C   UNL     1      35.032  51.664  16.127  0.00  0.00    +0.086 C 
ATOM     24  N   UNL     1      35.907  50.456  16.374  0.00  0.00    -0.305 NA
ATOM     25  C   UNL     1      36.805  50.964  17.430  0.00  0.00    +0.105 C 
ATOM     26  C   UNL     1      34.925  49.446  16.729  0.00  0.00    +0.086 C 
ENDROOT
BRANCH   3   4
ATOM      4  C   UNL     1      31.647  51.179  13.274  0.00  0.00    +0.073 C 
ATOM      5  N   UNL     1      31.063  52.056  12.871  0.00  0.00    -0.196 NA
ENDBRANCH   3   4
TORSDOF 1
