REMARK  Name = 4XH6
REMARK  6 active torsions:
REMARK  status: ('A' for Active; 'I' for Inactive)
REMARK    1  A    between atoms: C_1  and  O_16
REMARK    2  A    between atoms: C_2  and  O_17
REMARK    3  A    between atoms: C_6  and  O_18
REMARK    4  A    between atoms: C_7  and  O_16
REMARK    5  A    between atoms: C_10  and  C_11
REMARK    6  A    between atoms: C_14  and  O_21
REMARK                            x       y       z     vdW  Elec       q    Type
REMARK                         _______ _______ _______ _____ _____    ______ ____
ROOT
ATOM      1  C   UNL     1      16.943 -35.371   1.925  0.00  0.00    +0.204 A 
ATOM      4  C   UNL     1      16.861 -34.921   0.613  0.00  0.00    +0.166 A 
ATOM      7  C   UNL     1      17.663 -35.511  -0.371  0.00  0.00    +0.096 A 
ATOM      8  C   UNL     1      18.539 -36.558  -0.038  0.00  0.00    +0.146 A 
ATOM      9  O   UNL     1      19.311 -37.147  -0.999  0.00  0.00    -0.454 OA
ATOM     10  C   UNL     1      20.136 -38.188  -0.664  0.00  0.00    +0.139 C 
ATOM     19  C   UNL     1      20.243 -38.676   0.624  0.00  0.00    +0.098 C 
ATOM     20  C   UNL     1      19.508 -38.063   1.600  0.00  0.00    +0.197 C 
ATOM     21  O   UNL     1      19.640 -38.514   2.732  0.00  0.00    -0.287 OA
ATOM     22  C   UNL     1      18.645 -37.014   1.278  0.00  0.00    +0.109 A 
ATOM     23  C   UNL     1      17.833 -36.415   2.239  0.00  0.00    +0.177 A 
ENDROOT
BRANCH  10  11
ATOM     11  C   UNL     1      20.746 -38.826  -1.718  0.00  0.00    +0.018 A 
ATOM     12  C   UNL     1      20.291 -38.517  -3.022  0.00  0.00    +0.015 A 
ATOM     13  C   UNL     1      20.841 -39.156  -4.131  0.00  0.00    +0.046 A 
ATOM     14  C   UNL     1      21.830 -40.109  -3.881  0.00  0.00    +0.117 A 
ATOM     17  C   UNL     1      22.280 -40.453  -2.595  0.00  0.00    +0.046 A 
ATOM     18  C   UNL     1      21.722 -39.821  -1.488  0.00  0.00    +0.015 A 
BRANCH  14  15
ATOM     15  O   UNL     1      22.374 -40.744  -4.953  0.00  0.00    -0.507 OA
ATOM     16  H   UNL     1      23.409 -40.568  -4.977  0.00  0.00    +0.292 HD
ENDBRANCH  14  15
ENDBRANCH  10  11
BRANCH   1   2
ATOM      2  O   UNL     1      16.145 -34.785   2.885  0.00  0.00    -0.488 OA
ATOM      3  C   UNL     1      15.765 -35.691   3.969  0.00  0.00    +0.277 C 
ENDBRANCH   1   2
BRANCH   4   5
ATOM      5  O   UNL     1      15.986 -33.901   0.359  0.00  0.00    -0.503 OA
ATOM      6  H   UNL     1      15.013 -34.202   0.615  0.00  0.00    +0.292 HD
ENDBRANCH   4   5
BRANCH  23  24
ATOM     24  O   UNL     1      17.927 -36.882   3.510  0.00  0.00    -0.503 OA
ATOM     25  H   UNL     1      18.223 -36.103   4.149  0.00  0.00    +0.292 HD
ENDBRANCH  23  24
TORSDOF 5
