REMARK  Name = 5WFJ
REMARK  7 active torsions:
REMARK  status: ('A' for Active; 'I' for Inactive)
REMARK    1  A    between atoms: C_5  and  C_10
REMARK    2  A    between atoms: C_10  and  O_12
REMARK    3  A    between atoms: N_13  and  C_14
REMARK    4  A    between atoms: C_14  and  C_15
REMARK    5  A    between atoms: C_19  and  N_21
REMARK    6  A    between atoms: C_22  and  C_23
REMARK    7  A    between atoms: C_23  and  C_25
REMARK                            x       y       z     vdW  Elec       q    Type
REMARK                         _______ _______ _______ _____ _____    ______ ____
ROOT
ATOM      1  C   UNL     1      -0.875 -15.546  -3.524  0.00  0.00    +0.089 C 
ATOM      2  C   UNL     1      -0.794 -16.928  -3.593  0.00  0.00    +0.031 C 
ATOM      3  C   UNL     1      -2.062 -17.440  -3.333  0.00  0.00    +0.022 C 
ATOM      4  C   UNL     1      -2.919 -16.384  -3.114  0.00  0.00    +0.111 C 
ATOM      5  C   UNL     1       0.030 -14.449  -3.720  0.00  0.00    +0.098 C 
ATOM      6  N   UNL     1       1.328 -14.639  -4.010  0.00  0.00    -0.276 NA
ATOM     20  C   UNL     1      -0.499 -13.147  -3.583  0.00  0.00    +0.080 C 
ATOM     26  C   UNL     1      -1.872 -13.026  -3.250  0.00  0.00    +0.117 C 
ATOM     27  N   UNL     1      -2.729 -13.979  -3.073  0.00  0.00    -0.300 NA
ATOM     28  H   UNL     1      -3.757 -13.806  -2.831  0.00  0.00    +0.187 HD
ATOM     29  N   UNL     1      -2.190 -15.238  -3.226  0.00  0.00    -0.260 NA
ENDROOT
BRANCH  20  21
ATOM     21  C   UNL     1       0.325 -11.931  -3.834  0.00  0.00    +0.216 C 
ATOM     24  N   UNL     1      -0.192 -10.751  -3.515  0.00  0.00    -0.267 NA
ATOM     25  H   UNL     1       0.372  -9.857  -3.682  0.00  0.00    +0.190 HD
BRANCH  21  22
ATOM     22  O   UNL     1       1.448 -12.008  -4.353  0.00  0.00    -0.492 OA
ATOM     23  H   UNL     1       2.072 -12.601  -3.752  0.00  0.00    +0.294 HD
ENDBRANCH  21  22
ENDBRANCH  20  21
BRANCH   6   7
ATOM      7  C   UNL     1       2.147 -15.825  -4.219  0.00  0.00    +0.177 C 
BRANCH   7   8
ATOM      8  C   UNL     1       2.070 -16.326  -5.637  0.00  0.00    -0.024 A 
ATOM      9  C   UNL     1       1.916 -17.682  -5.896  0.00  0.00    +0.028 A 
ATOM     10  C   UNL     1       1.802 -18.155  -7.203  0.00  0.00    +0.034 A 
ATOM     17  C   UNL     1       1.843 -17.255  -8.263  0.00  0.00    +0.023 A 
ATOM     18  C   UNL     1       2.011 -15.904  -8.012  0.00  0.00    +0.002 A 
ATOM     19  C   UNL     1       2.124 -15.445  -6.709  0.00  0.00    +0.005 A 
BRANCH  10  11
ATOM     11  N   UNL     1       1.672 -19.540  -7.480  0.00  0.00    -0.285 N 
ATOM     12  H   UNL     1       2.115 -19.875  -8.395  0.00  0.00    +0.155 HD
ATOM     13  C   UNL     1       1.064 -20.490  -6.742  0.00  0.00    +0.217 C 
ATOM     14  O   UNL     1       0.532 -20.256  -5.649  0.00  0.00    -0.276 OA
BRANCH  13  15
ATOM     15  C   UNL     1       1.054 -21.830  -7.365  0.00  0.00    +0.093 C 
ATOM     16  C   UNL     1       0.185 -21.877  -8.598  0.00  0.00    +0.013 C 
ENDBRANCH  13  15
ENDBRANCH  10  11
ENDBRANCH   7   8
ENDBRANCH   6   7
TORSDOF 6
