REMARK  Name = 8O4
REMARK  4 active torsions:
REMARK  status: ('A' for Active; 'I' for Inactive)
REMARK    1  A    between atoms: C8_5  and  C20_10
REMARK    2  A    between atoms: C17_9  and  C21_11
REMARK    3  A    between atoms: C20_10  and  S28_28
REMARK    4  A    between atoms: C21_11  and  N23_23
REMARK                            x       y       z     vdW  Elec       q    Type
REMARK                         _______ _______ _______ _____ _____    ______ ____
ROOT
ATOM      1  C   UNL     1      17.088  11.303  21.711  0.00  0.00    +0.096 A 
ATOM      2  C   UNL     1      16.114  10.333  21.817  0.00  0.00    +0.018 A 
ATOM      3  C   UNL     1      14.979  10.262  22.746  0.00  0.00    +0.119 C 
ATOM      4  N   UNL     1      14.756   8.939  23.345  0.00  0.00    -0.303 N 
ATOM      9  C   UNL     1      14.065   8.100  22.415  0.00  0.00    +0.048 A 
ATOM     10  C   UNL     1      12.822   7.666  22.846  0.00  0.00    +0.014 A 
ATOM     11  C   UNL     1      12.012   6.860  22.074  0.00  0.00    -0.001 A 
ATOM     12  C   UNL     1      12.444   6.463  20.831  0.00  0.00    +0.001 A 
ATOM     13  C   UNL     1      13.688   6.877  20.398  0.00  0.00    -0.001 A 
ATOM     19  C   UNL     1      14.519   7.690  21.160  0.00  0.00    +0.015 A 
ATOM     20  C   UNL     1      15.820   8.120  20.580  0.00  0.00    +0.020 C 
ATOM     21  C   UNL     1      16.461   7.362  19.665  0.00  0.00    +0.079 C 
ATOM     22  N   UNL     1      17.655   7.720  19.042  0.00  0.00    -0.291 N 
ATOM     23  C   UNL     1      18.301   8.937  19.245  0.00  0.00    +0.279 C 
ATOM     24  C   UNL     1      17.620   9.712  20.235  0.00  0.00    +0.137 A 
ATOM     25  O   UNL     1      19.345   9.294  18.699  0.00  0.00    -0.265 OA
ATOM     26  C   UNL     1      18.205   6.784  18.082  0.00  0.00    +0.134 C 
ATOM     27  C   UNL     1      16.460   9.338  20.873  0.00  0.00    +0.023 A 
ATOM     28  N   UNL     1      17.978  10.933  20.735  0.00  0.00    -0.239 NA
ENDROOT
BRANCH   4   5
ATOM      5  C   UNL     1      15.918   8.275  23.960  0.00  0.00    +0.091 C 
BRANCH   5   6
ATOM      6  C   UNL     1      15.558   7.070  24.753  0.00  0.00    +0.020 C 
ATOM      7  C   UNL     1      15.278   7.216  26.217  0.00  0.00    +0.002 C 
ATOM      8  C   UNL     1      16.558   6.586  25.749  0.00  0.00    +0.002 C 
ENDBRANCH   5   6
ENDBRANCH   4   5
BRANCH  12  14
ATOM     14  C   UNL     1      11.610   5.563  19.973  0.00  0.00    +0.177 C 
BRANCH  14  15
ATOM     15  S   UNL     1      10.607   6.509  18.849  0.00  0.00    -0.004 S 
ATOM     16  O   UNL     1       9.489   6.974  19.645  0.00  0.00    -0.173 OA
ATOM     17  O   UNL     1      11.485   7.399  18.113  0.00  0.00    -0.173 OA
ATOM     18  C   UNL     1      10.018   5.280  17.716  0.00  0.00    +0.176 C 
ENDBRANCH  14  15
ENDBRANCH  12  14
TORSDOF 4
