REMARK  Name = LLT
REMARK  2 active torsions:
REMARK  status: ('A' for Active; 'I' for Inactive)
REMARK    1  A    between atoms: N1_9  and  C1'_10
REMARK    2  A    between atoms: C4'_12  and  C5'_13
REMARK                            x       y       z     vdW  Elec       q    Type
REMARK                         _______ _______ _______ _____ _____    ______ ____
ROOT
ATOM      1  O4    T A   1      62.721  33.040  17.468  0.00  0.00    -0.265 OA
ATOM      2  C4    T A   1      64.018  33.245  17.818  0.00  0.00    +0.280 C 
ATOM      3  C5    T A   1      64.422  34.504  18.209  0.00  0.00    +0.053 C 
ATOM      4  C6    T A   1      65.747  34.696  18.574  0.00  0.00    +0.082 C 
ATOM      5  N1    T A   1      66.615  33.673  18.518  0.00  0.00    -0.256 N 
ATOM     14  C2    T A   1      66.194  32.463  18.123  0.00  0.00    +0.354 C 
ATOM     15  O2    T A   1      67.061  31.422  18.085  0.00  0.00    -0.244 OA
ATOM     16  C5M   T A   1      63.451  35.646  18.251  0.00  0.00    +0.038 C 
ATOM     17  N3    T A   1      64.906  32.230  17.790  0.00  0.00    -0.153 NA
ENDROOT
BRANCH   5   6
ATOM      6  C1*   T A   1      67.995  33.920  18.912  0.00  0.00    +0.211 C 
ATOM      7  C2*   T A   1      68.230  33.530  20.374  0.00  0.00    +0.089 C 
ATOM      8  C3*   T A   1      69.353  34.464  20.816  0.00  0.00    +0.186 C 
ATOM      9  O3*   T A   1      70.629  33.857  20.568  0.00  0.00    -0.220 OA
ATOM     10  C4*   T A   1      69.251  35.673  19.901  0.00  0.00    +0.180 C 
ATOM     13  O4*   T A   1      68.307  35.327  18.883  0.00  0.00    -0.333 OA
BRANCH  10  11
ATOM     11  C5*   T A   1      68.779  36.917  20.640  0.00  0.00    +0.214 C 
ATOM     12  O5*   T A   1      69.221  38.106  19.941  0.00  0.00    -0.218 OA
ENDBRANCH  10  11
ENDBRANCH   5   6
TORSDOF 2
