REMARK  Name = 89D
REMARK  3 active torsions:
REMARK  status: ('A' for Active; 'I' for Inactive)
REMARK    1  A    between atoms: C8_5  and  N26_26
REMARK    2  A    between atoms: C24_13  and  S34_34
REMARK    3  A    between atoms: N26_26  and  S34_34
REMARK                            x       y       z     vdW  Elec       q    Type
REMARK                         _______ _______ _______ _____ _____    ______ ____
ROOT
ATOM      1  C   UNL     1      13.491  13.683  24.262  0.00  0.00    +0.029 A 
ATOM      2  C   UNL     1      13.271  12.507  24.940  0.00  0.00    +0.142 A 
ATOM      3  F   UNL     1      13.262  12.514  26.281  0.00  0.00    -0.204 F 
ATOM      4  C   UNL     1      13.087  11.329  24.257  0.00  0.00    +0.062 A 
ATOM      5  C   UNL     1      13.110  11.355  22.881  0.00  0.00    +0.176 A 
ATOM      6  F   UNL     1      12.910  10.206  22.226  0.00  0.00    -0.201 F 
ATOM      7  C   UNL     1      13.289  12.538  22.184  0.00  0.00    +0.169 A 
ATOM      8  O   UNL     1      13.280  12.488  20.790  0.00  0.00    -0.452 OA
ATOM      9  C   UNL     1      12.048  12.263  20.142  0.00  0.00    +0.145 A 
ATOM     10  C   UNL     1      10.836  12.218  20.813  0.00  0.00    +0.039 A 
ATOM     11  C   UNL     1       9.660  12.013  20.125  0.00  0.00    +0.021 A 
ATOM     12  C   UNL     1       9.664  11.846  18.759  0.00  0.00    +0.091 A 
ATOM     19  C   UNL     1      10.865  11.895  18.080  0.00  0.00    +0.021 A 
ATOM     20  C   UNL     1      12.045  12.113  18.765  0.00  0.00    +0.040 A 
ATOM     21  C   UNL     1      13.268  12.187  17.976  0.00  0.00    +0.054 C 
ATOM     22  C   UNL     1      14.038  13.381  17.783  0.00  0.00    +0.145 C 
ATOM     23  O   UNL     1      13.516  14.506  18.397  0.00  0.00    -0.475 OA
ATOM     24  C   UNL     1      14.482  15.144  19.221  0.00  0.00    +0.205 C 
ATOM     25  C   UNL     1      13.753  16.174  20.057  0.00  0.00    +0.048 C 
ATOM     26  C   UNL     1      12.896  15.546  21.139  0.00  0.00    +0.009 C 
ATOM     27  C   UNL     1      13.782  15.069  22.268  0.00  0.00    +0.030 C 
ATOM     28  C   UNL     1      15.148  13.390  17.033  0.00  0.00    +0.098 C 
ATOM     29  C   UNL     1      15.602  12.127  16.407  0.00  0.00    +0.264 C 
ATOM     30  N   UNL     1      14.803  11.019  16.617  0.00  0.00    -0.292 N 
ATOM     31  C   UNL     1      15.191   9.773  16.005  0.00  0.00    +0.134 C 
ATOM     32  O   UNL     1      16.628  12.136  15.747  0.00  0.00    -0.267 OA
ATOM     33  C   UNL     1      13.672  11.064  17.385  0.00  0.00    +0.082 C 
ATOM     34  C   UNL     1      13.492  13.725  22.878  0.00  0.00    +0.017 A 
ENDROOT
BRANCH  12  13
ATOM     13  N   UNL     1       8.373  11.621  18.159  0.00  0.00    -0.101 NA
BRANCH  13  14
ATOM     14  S   UNL     1       8.081  11.705  16.467  0.00  0.00    +0.073 S 
ATOM     15  O   UNL     1       6.646  11.682  16.262  0.00  0.00    -0.153 OA
ATOM     18  O   UNL     1       8.883  12.738  15.841  0.00  0.00    -0.153 OA
BRANCH  14  16
ATOM     16  C   UNL     1       8.685  10.127  15.923  0.00  0.00    +0.174 C 
ATOM     17  C   UNL     1       8.139   8.996  16.762  0.00  0.00    +0.029 C 
ENDBRANCH  14  16
ENDBRANCH  13  14
ENDBRANCH  12  13
TORSDOF 3
