REMARK  Name = 2BUJ
REMARK  5 active torsions:
REMARK  status: ('A' for Active; 'I' for Inactive)
REMARK    1  A    between atoms: C_4  and  N_34
REMARK    2  A    between atoms: C_5  and  O_32
REMARK    3  A    between atoms: C_6  and  C_7
REMARK    4  A    between atoms: O_32  and  C_33
REMARK    5  A    between atoms: N_34  and  C_35
REMARK                            x       y       z     vdW  Elec       q    Type
REMARK                         _______ _______ _______ _____ _____    ______ ____
ROOT
ATOM      1  O   UNL     1     -16.056 -20.003  -5.778  0.00  0.00    -0.328 OA
ATOM      2  C   UNL     1     -15.174 -20.990  -5.319  0.00  0.00    +0.174 C 
ATOM      3  N   UNL     1     -15.114 -22.151  -6.220  0.00  0.00    -0.307 N 
ATOM      4  C   UNL     1     -14.071 -22.988  -6.546  0.00  0.00    +0.053 A 
ATOM      5  C   UNL     1     -12.725 -22.990  -6.187  0.00  0.00    +0.026 A 
ATOM      6  C   UNL     1     -11.930 -23.991  -6.733  0.00  0.00    +0.002 A 
ATOM      7  C   UNL     1     -12.412 -24.971  -7.594  0.00  0.00    +0.001 A 
ATOM      8  C   UNL     1     -13.741 -25.004  -7.965  0.00  0.00    +0.010 A 
ATOM      9  C   UNL     1     -14.542 -23.999  -7.431  0.00  0.00    +0.008 A 
ATOM     10  C   UNL     1     -15.939 -23.770  -7.624  0.00  0.00    +0.015 A 
ATOM     11  C   UNL     1     -16.903 -24.418  -8.372  0.00  0.00    -0.008 A 
ATOM     12  C   UNL     1     -16.824 -25.631  -9.268  0.00  0.00    +0.141 C 
ATOM     13  N   UNL     1     -18.185 -25.833  -9.754  0.00  0.00    -0.307 N 
ATOM     14  H   UNL     1     -18.498 -26.610 -10.419  0.00  0.00    +0.149 HD
ATOM     15  C   UNL     1     -18.987 -24.881  -9.229  0.00  0.00    +0.245 C 
ATOM     16  O   UNL     1     -20.171 -24.797  -9.467  0.00  0.00    -0.270 OA
ATOM     17  C   UNL     1     -18.223 -23.973  -8.360  0.00  0.00    +0.052 A 
ATOM     18  C   UNL     1     -18.561 -22.838  -7.580  0.00  0.00    +0.022 A 
ATOM     19  C   UNL     1     -19.791 -22.106  -7.315  0.00  0.00    +0.009 A 
ATOM     20  C   UNL     1     -21.098 -22.272  -7.775  0.00  0.00    +0.010 A 
ATOM     21  C   UNL     1     -22.037 -21.345  -7.314  0.00  0.00    +0.001 A 
ATOM     22  C   UNL     1     -21.709 -20.303  -6.446  0.00  0.00    +0.002 A 
ATOM     23  C   UNL     1     -20.414 -20.120  -5.974  0.00  0.00    +0.026 A 
ATOM     24  C   UNL     1     -19.448 -21.036  -6.431  0.00  0.00    +0.052 A 
ATOM     25  N   UNL     1     -18.088 -21.139  -6.145  0.00  0.00    -0.312 N 
ATOM     26  C   UNL     1     -17.568 -22.175  -6.830  0.00  0.00    +0.077 A 
ATOM     27  C   UNL     1     -16.250 -22.638  -6.855  0.00  0.00    +0.077 A 
ATOM     28  C   UNL     1     -13.828 -20.274  -5.289  0.00  0.00    +0.069 C 
ATOM     29  C   UNL     1     -15.472 -21.427  -3.881  0.00  0.00    +0.187 C 
ATOM     32  C   UNL     1     -16.158 -20.283  -3.120  0.00  0.00    +0.091 C 
ATOM     36  C   UNL     1     -17.557 -20.200  -3.773  0.00  0.00    +0.076 C 
ATOM     37  C   UNL     1     -17.377 -20.151  -5.306  0.00  0.00    +0.224 C 
ENDROOT
BRANCH  32  33
ATOM     33  N   UNL     1     -16.215 -20.482  -1.640  0.00  0.00    -0.314 NA
ATOM     34  H   UNL     1     -17.194 -20.166  -1.344  0.00  0.00    +0.122 HD
ATOM     35  C   UNL     1     -15.991 -21.789  -0.960  0.00  0.00    +0.101 C 
ENDBRANCH  32  33
BRANCH  29  30
ATOM     30  O   UNL     1     -16.405 -22.509  -3.948  0.00  0.00    -0.374 OA
ATOM     31  C   UNL     1     -15.692 -23.721  -3.641  0.00  0.00    +0.194 C 
ENDBRANCH  29  30
TORSDOF 2
