REMARK  Name = 4fob_ligand
REMARK  10 active torsions:
REMARK  status: ('A' for Active; 'I' for Inactive)
REMARK    1  A    between atoms: C15_2  and  C21_3
REMARK    2  A    between atoms: C21_3  and  N5_4
REMARK    3  A    between atoms: N5_4  and  S1_5
REMARK    4  A    between atoms: S1_5  and  C5_8
REMARK    5  A    between atoms: C6_13  and  C4_14
REMARK    6  A    between atoms: C11_21  and  C12_22
REMARK    7  A    between atoms: C12_22  and  N4_23
REMARK    8  A    between atoms: N2_32  and  C8_33
REMARK    9  A    between atoms: C20_38  and  C27_39
REMARK   10  A    between atoms: C27_39  and  O4_40
REMARK                            x       y       z     vdW  Elec       q    Type
REMARK                         _______ _______ _______ _____ _____    ______ ____
ROOT
ATOM     12  C   UNL     1      22.842  12.044   9.006  0.00  0.00    +0.244 C 
ATOM     13  N   UNL     1      22.155  11.241   8.185  0.00  0.00    -0.184 N 
ATOM     14  H   UNL     1      21.212  11.486   7.961  0.00  0.00    +0.240 HD
ATOM     15  C   UNL     1      22.668  10.121   7.646  0.00  0.00    +0.242 A 
ATOM     16  N   UNL     1      22.016   9.258   6.867  0.00  0.00    -0.214 N 
ATOM     26  C   UNL     1      22.823   8.258   6.542  0.00  0.00    +0.071 A 
ATOM     27  C   UNL     1      22.641   7.111   5.766  0.00  0.00    +0.001 A 
ATOM     28  C   UNL     1      23.701   6.233   5.609  0.00  0.00    -0.026 A 
ATOM     29  C   UNL     1      24.924   6.482   6.220  0.00  0.00    -0.018 A 
ATOM     38  C   UNL     1      25.098   7.634   7.000  0.00  0.00    -0.021 A 
ATOM     39  C   UNL     1      24.036   8.520   7.159  0.00  0.00    +0.002 A 
ATOM     40  N   UNL     1      23.910   9.670   7.825  0.00  0.00    -0.316 NA
ATOM     41  O   UNL     1      24.013  11.875   9.363  0.00  0.00    -0.369 OA
ENDROOT
BRANCH  12  11
ATOM      7  C   UNL     1      20.035  14.541   9.714  0.00  0.00    +0.114 A 
ATOM      8  C   UNL     1      20.588  15.248  10.771  0.00  0.00    +0.036 A 
ATOM      9  C   UNL     1      21.856  14.931  11.234  0.00  0.00    +0.009 A 
ATOM     10  C   UNL     1      22.573  13.901  10.659  0.00  0.00    +0.026 A 
ATOM     11  C   UNL     1      22.028  13.189   9.595  0.00  0.00    +0.060 A 
ATOM     42  C   UNL     1      20.747  13.497   9.120  0.00  0.00    +0.054 A 
BRANCH   7   6
ATOM      6  S   UNL     1      18.445  14.976   9.137  0.00  0.00    +0.071 S 
ATOM     43  O   UNL     1      18.386  14.852   7.649  0.00  0.00    -0.150 OA
ATOM     44  O   UNL     1      18.120  16.371   9.586  0.00  0.00    -0.150 OA
BRANCH   6   4
ATOM      4  N   UNL     1      17.377  13.964   9.863  0.00  0.00    -0.235 NA
ATOM      5  H   UNL     1      16.736  14.259  10.572  0.00  0.00    +0.170 HD
BRANCH   4   3
ATOM      3  C   UNL     1      17.453  12.597   9.375  0.00  0.00    +0.186 C 
BRANCH   3   2
ATOM      1  C   UNL     1      16.744  10.966  11.097  0.00  0.00    -0.058 C 
ATOM      2  C   UNL     1      16.419  11.760  10.069  0.00  0.00    -0.002 C 
ENDBRANCH   3   2
ENDBRANCH   4   3
ENDBRANCH   6   4
ENDBRANCH   7   6
ENDBRANCH  12  11
BRANCH  16  17
ATOM     17  C   UNL     1      20.628   9.305   6.395  0.00  0.00    +0.130 C 
ATOM     18  C   UNL     1      20.367  10.506   5.526  0.00  0.00    +0.035 C 
ATOM     19  C   UNL     1      19.037  10.287   4.807  0.00  0.00    +0.009 C 
ATOM     20  C   UNL     1      17.876   9.960   5.753  0.00  0.00    +0.015 C 
ATOM     24  C   UNL     1      18.236   8.957   6.865  0.00  0.00    +0.009 C 
ATOM     25  C   UNL     1      19.590   9.239   7.522  0.00  0.00    +0.035 C 
BRANCH  20  21
ATOM     21  C   UNL     1      17.340  11.252   6.386  0.00  0.00    +0.159 C 
BRANCH  21  22
ATOM     22  O   UNL     1      17.043  12.225   5.367  0.00  0.00    -0.395 OA
ATOM     23  H   UNL     1      16.713  13.017   5.774  0.00  0.00    +0.209 HD
ENDBRANCH  21  22
ENDBRANCH  20  21
ENDBRANCH  16  17
BRANCH  29  30
ATOM     30  C   UNL     1      26.096   5.500   6.013  0.00  0.00    +0.187 C 
BRANCH  30  31
ATOM     31  N   UNL     1      25.737   4.105   6.321  0.00  0.00    +0.246 N 
ATOM     32  H   UNL     1      24.922   3.824   5.798  0.00  0.00    +0.205 HD
ATOM     33  C   UNL     1      25.456   3.984   7.769  0.00  0.00    +0.132 C 
ATOM     34  C   UNL     1      25.307   2.517   8.231  0.00  0.00    +0.051 C 
ATOM     35  C   UNL     1      26.543   1.699   7.864  0.00  0.00    +0.010 C 
ATOM     36  C   UNL     1      26.800   1.820   6.356  0.00  0.00    +0.051 C 
ATOM     37  C   UNL     1      26.910   3.292   5.912  0.00  0.00    +0.132 C 
ENDBRANCH  30  31
ENDBRANCH  29  30
TORSDOF 10
