REMARK  Name = 3zya_ligand
REMARK  4 active torsions:
REMARK  status: ('A' for Active; 'I' for Inactive)
REMARK    1  A    between atoms: NAA_1  and  CAR_20
REMARK    2  A    between atoms: OAB_2  and  CAQ_18
REMARK    3  A    between atoms: NAP_17  and  CAS_21
REMARK    4  A    between atoms: NAP_17  and  CAV_24
REMARK                            x       y       z     vdW  Elec       q    Type
REMARK                         _______ _______ _______ _____ _____    ______ ____
ROOT
ATOM      8  C   UNL     1      13.975 -14.576 -30.705  0.00  0.00    +0.042 A 
ATOM      9  C   UNL     1      14.282 -15.921 -30.894  0.00  0.00    -0.008 A 
ATOM     10  C   UNL     1      13.312 -16.849 -31.272  0.00  0.00    -0.021 A 
ATOM     11  C   UNL     1      11.995 -16.405 -31.453  0.00  0.00    -0.015 A 
ATOM     12  C   UNL     1      11.072 -17.522 -31.900  0.00  0.00    +0.199 C 
ATOM     13  C   UNL     1       9.835 -17.088 -32.655  0.00  0.00    -0.004 A 
ATOM     14  C   UNL     1       9.553 -17.839 -33.813  0.00  0.00    -0.009 A 
ATOM     15  C   UNL     1       8.405 -17.529 -34.563  0.00  0.00    -0.021 A 
ATOM     16  C   UNL     1       7.571 -16.490 -34.162  0.00  0.00    -0.021 A 
ATOM     17  C   UNL     1       7.853 -15.738 -33.019  0.00  0.00    -0.013 A 
ATOM     18  C   UNL     1       9.000 -16.066 -32.286  0.00  0.00    -0.035 A 
ATOM     19  C   UNL     1       9.168 -15.176 -31.115  0.00  0.00    +0.074 C 
ATOM     20  C   UNL     1      10.366 -14.339 -31.402  0.00  0.00    +0.071 C 
ATOM     23  C   UNL     1      11.672 -15.063 -31.273  0.00  0.00    -0.045 A 
ATOM     24  C   UNL     1      12.660 -14.136 -30.892  0.00  0.00    -0.000 A 
ENDROOT
BRANCH   8   6
ATOM      6  N   UNL     1      14.991 -13.614 -30.318  0.00  0.00    -0.285 N 
ATOM      7  H   UNL     1      14.697 -12.666 -30.044  0.00  0.00    +0.203 HD
BRANCH   6   5
ATOM      4  C   UNL     1      17.144 -13.585 -29.164  0.00  0.00    +0.059 A 
ATOM      5  C   UNL     1      16.413 -13.939 -30.303  0.00  0.00    +0.076 A 
ATOM     25  C   UNL     1      17.076 -14.571 -31.359  0.00  0.00    -0.003 A 
ATOM     26  C   UNL     1      18.437 -14.840 -31.245  0.00  0.00    -0.039 A 
ATOM     27  C   UNL     1      19.132 -14.481 -30.104  0.00  0.00    -0.039 A 
ATOM     28  C   UNL     1      18.507 -13.850 -29.047  0.00  0.00    -0.007 A 
BRANCH   4   1
ATOM      1  N   UNL     1      16.453 -12.939 -28.113  0.00  0.00    -0.341 N 
ATOM      2  H   UNL     1      15.445 -12.744 -28.202  0.00  0.00    +0.169 HD
ATOM      3  H   UNL     1      16.957 -12.663 -27.258  0.00  0.00    +0.169 HD
ENDBRANCH   4   1
ENDBRANCH   6   5
ENDBRANCH   8   6
BRANCH  12  21
ATOM     21  O   UNL     1      11.466 -18.815 -32.019  0.00  0.00    -0.371 OA
ATOM     22  H   UNL     1      12.249 -18.955 -31.499  0.00  0.00    +0.215 HD
ENDBRANCH  12  21
TORSDOF 4
