REMARK  Name = 4JS8
REMARK  7 active torsions:
REMARK  status: ('A' for Active; 'I' for Inactive)
REMARK    1  A    between atoms: C_1  and  C_25
REMARK    2  A    between atoms: C_6  and  O_28
REMARK    3  A    between atoms: C_6  and  C_29
REMARK    4  A    between atoms: C_15  and  O_28
REMARK    5  A    between atoms: C_16  and  N_17
REMARK    6  A    between atoms: C_20  and  O_21
REMARK    7  A    between atoms: O_21  and  C_22
REMARK                            x       y       z     vdW  Elec       q    Type
REMARK                         _______ _______ _______ _____ _____    ______ ____
ROOT
ATOM      2  C   UNL     1      -0.037  20.845  10.352  0.00  0.00    +0.104 A 
ATOM      3  C   UNL     1      -0.981  20.745  11.454  0.00  0.00    +0.069 A 
ATOM      4  C   UNL     1      -1.665  19.716  12.211  0.00  0.00    +0.132 A 
ATOM     13  C   UNL     1      -2.558  20.080  13.261  0.00  0.00    +0.046 A 
ATOM     14  C   UNL     1      -2.781  21.427  13.599  0.00  0.00    +0.006 A 
ATOM     15  C   UNL     1      -2.137  22.417  12.874  0.00  0.00    +0.028 A 
ATOM     16  C   UNL     1      -1.230  22.066  11.796  0.00  0.00    +0.070 A 
ATOM     17  N   UNL     1      -0.505  22.893  11.002  0.00  0.00    -0.276 N 
ATOM     18  H   UNL     1      -0.483  23.961  11.063  0.00  0.00    +0.189 HD
ATOM     19  N   UNL     1       0.197  22.123  10.105  0.00  0.00    -0.173 NA
ENDROOT
BRANCH   2   1
ATOM      1  C   UNL     1       0.558  19.791   9.633  0.00  0.00    +0.003 A 
ATOM     20  C   UNL     1       0.885  18.532  10.201  0.00  0.00    +0.013 A 
ATOM     21  C   UNL     1       1.516  17.545   9.435  0.00  0.00    +0.046 A 
ATOM     22  C   UNL     1       1.878  17.801   8.109  0.00  0.00    +0.121 A 
ATOM     23  C   UNL     1       1.634  19.076   7.562  0.00  0.00    +0.046 A 
ATOM     32  C   UNL     1       0.971  20.052   8.332  0.00  0.00    +0.013 A 
BRANCH  22  24
ATOM     24  O   UNL     1       2.554  16.785   7.392  0.00  0.00    -0.489 OA
BRANCH  24  25
ATOM     25  C   UNL     1       2.061  16.375   6.127  0.00  0.00    +0.176 C 
ATOM     26  C   UNL     1       2.997  15.396   5.557  0.00  0.00    +0.060 C 
ATOM     27  C   UNL     1       2.879  14.008   6.168  0.00  0.00    +0.087 C 
ATOM     28  N   UNL     1       1.513  13.523   6.379  0.00  0.00    -0.305 NA
ATOM     29  C   UNL     1       1.378  12.122   6.917  0.00  0.00    +0.105 C 
ATOM     30  C   UNL     1       0.536  14.543   6.843  0.00  0.00    +0.087 C 
ATOM     31  C   UNL     1       0.670  15.868   6.167  0.00  0.00    +0.060 C 
ENDBRANCH  24  25
ENDBRANCH  22  24
ENDBRANCH   2   1
BRANCH   4   5
ATOM      5  O   UNL     1      -1.452  18.361  11.920  0.00  0.00    -0.491 OA
BRANCH   5   6
ATOM      6  C   UNL     1      -1.950  17.260  12.732  0.00  0.00    +0.232 C 
BRANCH   6   7
ATOM      7  C   UNL     1      -1.536  15.810  12.362  0.00  0.00    +0.027 C 
ATOM      8  C   UNL     1      -0.273  15.444  13.131  0.00  0.00    +0.007 C 
ATOM      9  C   UNL     1       0.220  14.064  12.785  0.00  0.00    +0.000 C 
ATOM     10  C   UNL     1       0.374  13.844  11.305  0.00  0.00    +0.000 C 
ATOM     11  C   UNL     1      -0.784  14.351  10.440  0.00  0.00    +0.000 C 
ATOM     12  C   UNL     1      -1.383  15.664  10.869  0.00  0.00    +0.007 C 
ENDBRANCH   6   7
ENDBRANCH   5   6
ENDBRANCH   4   5
TORSDOF 6
