REMARK  Name = 4agc_ligand
REMARK  6 active torsions:
REMARK  status: ('A' for Active; 'I' for Inactive)
REMARK    1  A    between atoms: C80_2  and  C23_5
REMARK    2  A    between atoms: N82_3  and  C88_4
REMARK    3  A    between atoms: C18_9  and  S24_11
REMARK    4  A    between atoms: S24_11  and  C07_12
REMARK    5  A    between atoms: C13_19  and  C16_21
REMARK    6  A    between atoms: C17_22  and  C02_23
REMARK                            x       y       z     vdW  Elec       q    Type
REMARK                         _______ _______ _______ _____ _____    ______ ____
ROOT
ATOM      6  C   UNL     1     -22.959  -0.270 -11.905  0.00  0.00    +0.032 A 
ATOM      7  C   UNL     1     -23.512   1.033 -12.184  0.00  0.00    +0.021 A 
ATOM      8  C   UNL     1     -22.684   2.004 -12.808  0.00  0.00    +0.021 A 
ATOM      9  C   UNL     1     -21.364   1.741 -13.156  0.00  0.00    +0.027 A 
ATOM     10  C   UNL     1     -20.895   3.007 -13.759  0.00  0.00    +0.126 A 
ATOM     19  N   UNL     1     -21.872   3.847 -13.731  0.00  0.00    -0.217 N 
ATOM     20  H   UNL     1     -21.825   4.812 -14.089  0.00  0.00    +0.293 HD
ATOM     21  C   UNL     1     -20.775   0.457 -12.895  0.00  0.00    +0.007 A 
ATOM     22  N   UNL     1     -22.918   3.313 -13.193  0.00  0.00    -0.253 NA
ATOM     23  C   UNL     1     -21.591  -0.542 -12.267  0.00  0.00    +0.011 A 
ENDROOT
BRANCH  10  11
ATOM     11  C   UNL     1     -19.565   3.359 -14.326  0.00  0.00    +0.048 C 
ATOM     12  C   UNL     1     -18.334   2.766 -13.999  0.00  0.00    +0.011 C 
BRANCH  12  13
ATOM     13  C   UNL     1     -17.005   3.150 -14.572  0.00  0.00    +0.032 A 
ATOM     14  C   UNL     1     -16.698   4.518 -14.905  0.00  0.00    +0.034 A 
ATOM     15  C   UNL     1     -15.411   4.817 -15.437  0.00  0.00    +0.024 A 
ATOM     16  C   UNL     1     -14.473   3.760 -15.624  0.00  0.00    +0.027 A 
ATOM     17  C   UNL     1     -14.863   2.437 -15.268  0.00  0.00    +0.084 A 
ATOM     18  N   UNL     1     -16.098   2.140 -14.754  0.00  0.00    -0.303 NA
ENDBRANCH  12  13
ENDBRANCH  10  11
BRANCH   6   5
ATOM      5  S   UNL     1     -23.902  -1.516 -11.133  0.00  0.00    -0.038 S 
BRANCH   5   4
ATOM      3  C   UNL     1     -26.661  -1.921 -11.407  0.00  0.00    +0.064 A 
ATOM      4  C   UNL     1     -25.398  -1.648 -12.044  0.00  0.00    +0.051 A 
ATOM     24  C   UNL     1     -25.362  -1.478 -13.474  0.00  0.00    +0.017 A 
ATOM     25  C   UNL     1     -26.539  -1.573 -14.263  0.00  0.00    +0.001 A 
ATOM     26  C   UNL     1     -27.785  -1.845 -13.635  0.00  0.00    -0.005 A 
ATOM     27  C   UNL     1     -27.843  -2.016 -12.228  0.00  0.00    +0.018 A 
BRANCH   3   2
ATOM      1  O   UNL     1     -26.050  -1.540  -9.129  0.00  0.00    -0.388 OA
ATOM      2  C   UNL     1     -26.813  -2.112  -9.925  0.00  0.00    +0.201 C 
ATOM     28  N   UNL     1     -27.794  -2.903  -9.473  0.00  0.00    -0.290 N 
ATOM     29  H   UNL     1     -28.384  -3.344 -10.149  0.00  0.00    +0.184 HD
ATOM     30  C   UNL     1     -28.062  -3.167  -8.066  0.00  0.00    +0.164 C 
ENDBRANCH   3   2
ENDBRANCH   5   4
ENDBRANCH   6   5
TORSDOF 5
