REMARK  Name = 8DQ
REMARK  2 active torsions:
REMARK  status: ('A' for Active; 'I' for Inactive)
REMARK    1  A    between atoms: C4_8  and  C9_9
REMARK    2  A    between atoms: C2_16  and  N_18
REMARK                            x       y       z     vdW  Elec       q    Type
REMARK                         _______ _______ _______ _____ _____    ______ ____
ROOT
ATOM      1  O   UNL     1      22.183  49.013  -0.232  0.00  0.00    -0.286 OA
ATOM      2  C   UNL     1      23.167  49.702  -0.525  0.00  0.00    +0.203 C 
ATOM      3  C   UNL     1      24.484  49.479   0.104  0.00  0.00    +0.074 A 
ATOM      4  C   UNL     1      24.671  48.504   1.085  0.00  0.00    +0.006 A 
ATOM      5  C   UNL     1      25.923  48.312   1.650  0.00  0.00    +0.000 A 
ATOM      6  C   UNL     1      27.004  49.078   1.245  0.00  0.00    +0.003 A 
ATOM      7  C   UNL     1      26.853  50.053   0.263  0.00  0.00    +0.035 A 
ATOM     14  C   UNL     1      25.581  50.249  -0.290  0.00  0.00    +0.150 A 
ATOM     15  O   UNL     1      25.456  51.223  -1.257  0.00  0.00    -0.440 OA
ATOM     16  C   UNL     1      24.224  51.434  -1.854  0.00  0.00    +0.202 C 
ATOM     23  C   UNL     1      23.089  50.737  -1.525  0.00  0.00    +0.096 C 
ENDROOT
BRANCH   7   8
ATOM      8  C   UNL     1      28.051  50.816  -0.193  0.00  0.00    +0.003 A 
ATOM      9  C   UNL     1      28.919  51.400   0.727  0.00  0.00    +0.000 A 
ATOM     10  C   UNL     1      30.032  52.106   0.300  0.00  0.00    +0.000 A 
ATOM     11  C   UNL     1      30.295  52.242  -1.043  0.00  0.00    +0.000 A 
ATOM     12  C   UNL     1      29.450  51.669  -1.967  0.00  0.00    +0.000 A 
ATOM     13  C   UNL     1      28.337  50.959  -1.549  0.00  0.00    +0.000 A 
ENDBRANCH   7   8
BRANCH  16  17
ATOM     17  N   UNL     1      24.373  52.409  -2.862  0.00  0.00    -0.276 N 
ATOM     18  C   UNL     1      25.617  53.181  -2.898  0.00  0.00    +0.112 C 
ATOM     19  C   UNL     1      26.192  53.090  -4.287  0.00  0.00    +0.110 C 
ATOM     20  N   UNL     1      25.165  53.361  -5.309  0.00  0.00    -0.214 NA
ATOM     21  C   UNL     1      24.029  52.431  -5.233  0.00  0.00    +0.110 C 
ATOM     22  C   UNL     1      23.337  52.499  -3.894  0.00  0.00    +0.112 C 
ENDBRANCH  16  17
TORSDOF 2
