REMARK  Name = 1NMY
REMARK  7 active torsions:
REMARK  status: ('A' for Active; 'I' for Inactive)
REMARK    1  A    between atoms: N_1  and  C_12
REMARK    2  A    between atoms: C_3  and  O_4
REMARK    3  A    between atoms: C_6  and  O_7
REMARK    4  A    between atoms: C_8  and  C_9
REMARK    5  A    between atoms: C_15  and  C_17
REMARK    6  A    between atoms: O_16  and  C_17
REMARK    7  A    between atoms: O_16  and  P_18
REMARK                            x       y       z     vdW  Elec       q    Type
REMARK                         _______ _______ _______ _____ _____    ______ ____
ROOT
ATOM      2  C   UNL     1      13.854  77.248  25.349  0.00  0.00    +0.415 C 
ATOM      3  C   UNL     1      12.996  76.803  26.538  0.00  0.00    +0.148 C 
ATOM      4  C   UNL     1      13.866  75.749  27.198  0.00  0.00    +0.206 C 
ATOM      5  C   UNL     1      14.623  75.161  25.984  0.00  0.00    +0.185 C 
ATOM     12  F   UNL     1      14.797  76.247  28.109  0.00  0.00    -0.242 F 
ATOM     13  O   UNL     1      14.722  76.210  24.991  0.00  0.00    -0.311 OA
ENDROOT
BRANCH   2   1
ATOM      1  N   UNL     1      13.198  77.806  24.184  0.00  0.00    -0.120 N 
ATOM     14  C   UNL     1      13.582  79.101  23.744  0.00  0.00    +0.484 A 
ATOM     15  N   UNL     1      13.227  79.395  22.478  0.00  0.00    -0.115 NA
ATOM     16  C   UNL     1      12.540  78.518  21.632  0.00  0.00    +0.230 A 
ATOM     17  C   UNL     1      12.183  77.186  22.157  0.00  0.00    +0.075 A 
ATOM     18  C   UNL     1      11.452  76.256  21.209  0.00  0.00    +0.055 C 
ATOM     23  C   UNL     1      12.539  76.891  23.409  0.00  0.00    +0.325 A 
BRANCH  16  19
ATOM     19  O   UNL     1      12.246  78.898  20.396  0.00  0.00    -0.492 OA
ATOM     20  H   UNL     1      11.639  79.754  20.428  0.00  0.00    +0.294 HD
ENDBRANCH  16  19
BRANCH  14  21
ATOM     21  O   UNL     1      14.193  79.891  24.472  0.00  0.00    -0.444 OA
ATOM     22  H   UNL     1      13.617  80.098  25.326  0.00  0.00    +0.300 HD
ENDBRANCH  14  21
ENDBRANCH   2   1
BRANCH   5   6
ATOM      6  C   UNL     1      14.246  73.735  25.459  0.00  0.00    +0.198 C 
BRANCH   6   7
ATOM      7  O   UNL     1      14.482  72.836  26.563  0.00  0.00    -0.365 OA
BRANCH   7   8
ATOM      8  P   UNL     1      14.247  71.264  26.090  0.00  0.00    -0.015 P 
ATOM      9  O   UNL     1      12.747  71.017  26.181  0.00  0.00    -0.577 OA
ATOM     10  O   UNL     1      15.192  70.514  26.890  0.00  0.00    -0.638 OA
ATOM     11  O   UNL     1      14.581  71.223  24.589  0.00  0.00    -0.577 OA
ENDBRANCH   7   8
ENDBRANCH   6   7
ENDBRANCH   5   6
TORSDOF 6
