REMARK  Name = 2ym3_ligand
REMARK  7 active torsions:
REMARK  status: ('A' for Active; 'I' for Inactive)
REMARK    1  A    between atoms: CAC_1  and  CAB_2
REMARK    2  A    between atoms: CAB_2  and  O03_21
REMARK    3  A    between atoms: CAQ_3  and  CAR_4
REMARK    4  A    between atoms: CAQ_3  and  O03_21
REMARK    5  A    between atoms: CAS_12  and  NAV_13
REMARK    6  A    between atoms: CAW_18  and  CAI_19
REMARK    7  A    between atoms: CAI_19  and  NAA_20
REMARK                            x       y       z     vdW  Elec       q    Type
REMARK                         _______ _______ _______ _____ _____    ______ ____
ROOT
ATOM      6  C   UNL     1      17.849  -0.243   9.305  0.00  0.00    +0.096 A 
ATOM      7  C   UNL     1      16.844  -0.885  10.084  0.00  0.00    +0.086 A 
ATOM     19  C   UNL     1      15.578  -0.283  10.191  0.00  0.00    +0.063 A 
ATOM     20  C   UNL     1      14.357  -0.600  10.851  0.00  0.00    +0.098 A 
ATOM     21  N   UNL     1      13.457   0.371  10.589  0.00  0.00    -0.207 NA
ATOM     22  N   UNL     1      14.050   1.310   9.784  0.00  0.00    -0.203 N 
ATOM     23  H   UNL     1      13.608   2.158   9.429  0.00  0.00    +0.249 HD
ATOM     24  C   UNL     1      15.345   0.910   9.538  0.00  0.00    +0.149 A 
ATOM     25  N   UNL     1      16.336   1.518   8.787  0.00  0.00    -0.293 NA
ATOM     26  C   UNL     1      17.554   0.958   8.671  0.00  0.00    +0.086 A 
ENDROOT
BRANCH   7   8
ATOM      8  N   UNL     1      17.106  -2.161  10.774  0.00  0.00    -0.289 N 
ATOM      9  C   UNL     1      16.095  -3.136  10.673  0.00  0.00    +0.167 C 
ATOM     10  C   UNL     1      16.588  -4.508  10.981  0.00  0.00    +0.185 C 
ATOM     11  O   UNL     1      17.262  -4.572  12.207  0.00  0.00    -0.367 OA
ATOM     12  C   UNL     1      18.261  -3.595  12.359  0.00  0.00    +0.186 C 
ATOM     18  C   UNL     1      17.796  -2.221  11.998  0.00  0.00    +0.175 C 
BRANCH  12  13
ATOM     13  C   UNL     1      19.501  -3.967  11.557  0.00  0.00    +0.161 C 
BRANCH  13  14
ATOM     14  N   UNL     1      20.194  -5.149  11.939  0.00  0.00    +0.220 N 
ATOM     15  H   UNL     1      19.567  -5.950  11.859  0.00  0.00    +0.200 HD
ATOM     16  H   UNL     1      20.511  -5.059  12.904  0.00  0.00    +0.200 HD
ATOM     17  H   UNL     1      20.999  -5.283  11.327  0.00  0.00    +0.200 HD
ENDBRANCH  13  14
ENDBRANCH  12  13
ENDBRANCH   7   8
BRANCH   6   4
ATOM      4  C   UNL     1      19.233  -0.834   9.138  0.00  0.00    +0.253 C 
ATOM      5  O   UNL     1      19.376  -2.039   9.004  0.00  0.00    -0.368 OA
BRANCH   4   3
ATOM      3  O   UNL     1      20.348  -0.003   9.107  0.00  0.00    -0.281 OA
BRANCH   3   2
ATOM      1  C   UNL     1      22.225   0.542   7.612  0.00  0.00    +0.039 C 
ATOM      2  C   UNL     1      21.486  -0.441   8.478  0.00  0.00    +0.194 C 
ENDBRANCH   3   2
ENDBRANCH   4   3
ENDBRANCH   6   4
TORSDOF 6
