REMARK  Name = 4umq_ligand
REMARK  12 active torsions:
REMARK  status: ('A' for Active; 'I' for Inactive)
REMARK    1  A    between atoms: C1_1  and  O2_2
REMARK    2  A    between atoms: O2_2  and  C3_3
REMARK    3  A    between atoms: C5_5  and  O6_6
REMARK    4  A    between atoms: C8_8  and  N9_9
REMARK    5  A    between atoms: N9_9  and  C10_10
REMARK    6  A    between atoms: C13_13  and  C14_14
REMARK    7  A    between atoms: N16_16  and  C17_17
REMARK    8  A    between atoms: C23_23  and  O24_24
REMARK    9  A    between atoms: O24_24  and  C25_25
REMARK   10  A    between atoms: C25_25  and  C26_26
REMARK   11  A    between atoms: C26_26  and  C27_27
REMARK   12  A    between atoms: C27_27  and  N28_28
REMARK                            x       y       z     vdW  Elec       q    Type
REMARK                         _______ _______ _______ _____ _____    ______ ____
ROOT
ATOM      8  C   UNL     1      29.454  17.098  16.250  0.00  0.00    +0.054 A 
ATOM      9  C   UNL     1      28.386  16.217  16.123  0.00  0.00    +0.040 A 
ATOM     10  C   UNL     1      28.510  15.050  15.388  0.00  0.00    +0.103 A 
ATOM     19  C   UNL     1      29.727  14.742  14.756  0.00  0.00    +0.072 A 
ATOM     30  C   UNL     1      30.796  15.630  14.886  0.00  0.00    +0.002 A 
ATOM     31  C   UNL     1      30.660  16.793  15.623  0.00  0.00    +0.001 A 
ENDROOT
BRANCH  19  20
ATOM     20  C   UNL     1      29.936  13.494  13.941  0.00  0.00    +0.218 C 
ATOM     21  N   UNL     1      28.858  12.665  13.851  0.00  0.00    -0.237 N 
ATOM     22  H   UNL     1      28.106  12.899  14.467  0.00  0.00    +0.225 HD
ATOM     29  O   UNL     1      31.020  13.262  13.402  0.00  0.00    -0.385 OA
BRANCH  21  23
ATOM     23  C   UNL     1      28.615  11.529  13.038  0.00  0.00    +0.065 A 
ATOM     24  C   UNL     1      29.500  11.029  12.089  0.00  0.00    +0.009 A 
ATOM     25  C   UNL     1      29.160   9.912  11.348  0.00  0.00    -0.018 A 
ATOM     26  C   UNL     1      27.946   9.290  11.547  0.00  0.00    -0.029 A 
ATOM     27  C   UNL     1      27.067   9.777  12.482  0.00  0.00    -0.018 A 
ATOM     28  C   UNL     1      27.394  10.890  13.227  0.00  0.00    +0.009 A 
ENDBRANCH  21  23
ENDBRANCH  19  20
BRANCH   8   6
ATOM      6  N   UNL     1      29.254  18.270  17.015  0.00  0.00    -0.279 N 
ATOM      7  H   UNL     1      28.260  18.474  17.191  0.00  0.00    +0.209 HD
BRANCH   6   5
ATOM      3  C   UNL     1      32.281  19.914  18.462  0.00  0.00    +0.072 A 
ATOM      4  C   UNL     1      31.460  18.946  17.896  0.00  0.00    +0.013 A 
ATOM      5  C   UNL     1      30.129  19.225  17.592  0.00  0.00    +0.041 A 
ATOM     32  C   UNL     1      29.635  20.499  17.866  0.00  0.00    +0.013 A 
ATOM     33  C   UNL     1      30.453  21.470  18.432  0.00  0.00    +0.069 A 
ATOM     36  C   UNL     1      31.777  21.178  18.730  0.00  0.00    +0.019 A 
BRANCH   3   2
ATOM      1  C   UNL     1      34.416  20.429  19.413  0.00  0.00    +0.232 C 
ATOM      2  O   UNL     1      33.569  19.521  18.717  0.00  0.00    -0.327 OA
ENDBRANCH   3   2
BRANCH  33  34
ATOM     34  O   UNL     1      29.946  22.711  18.692  0.00  0.00    -0.339 OA
ATOM     35  H   UNL     1      30.015  22.892  19.622  0.00  0.00    +0.248 HD
ENDBRANCH  33  34
ENDBRANCH   6   5
ENDBRANCH   8   6
BRANCH  10  11
ATOM     11  O   UNL     1      27.508  14.128  15.213  0.00  0.00    -0.316 OA
BRANCH  11  12
ATOM     12  C   UNL     1      26.149  14.516  15.483  0.00  0.00    +0.200 C 
BRANCH  12  13
ATOM     13  C   UNL     1      25.810  14.153  16.920  0.00  0.00    +0.084 C 
BRANCH  13  14
ATOM     14  C   UNL     1      25.109  15.267  17.685  0.00  0.00    +0.130 C 
BRANCH  14  15
ATOM     15  N   UNL     1      23.967  15.826  16.919  0.00  0.00    +0.219 N 
ATOM     16  H   UNL     1      24.301  16.203  16.046  0.00  0.00    +0.199 HD
ATOM     17  H   UNL     1      23.296  15.097  16.736  0.00  0.00    +0.199 HD
ATOM     18  H   UNL     1      23.529  16.558  17.455  0.00  0.00    +0.199 HD
ENDBRANCH  14  15
ENDBRANCH  13  14
ENDBRANCH  12  13
ENDBRANCH  11  12
ENDBRANCH  10  11
TORSDOF 11
