REMARK  Name = 6N7D
REMARK  4 active torsions:
REMARK  status: ('A' for Active; 'I' for Inactive)
REMARK    1  A    between atoms: C6_4  and  C7_6
REMARK    2  A    between atoms: C11_5  and  C10_9
REMARK    3  A    between atoms: C8_7  and  N2_13
REMARK    4  A    between atoms: C1_22  and  O_23
REMARK                            x       y       z     vdW  Elec       q    Type
REMARK                         _______ _______ _______ _____ _____    ______ ____
ROOT
ATOM     11  C   UNL     1     -23.257   1.867  -1.056  0.00  0.00    +0.150 A 
ATOM     12  N   UNL     1     -22.545   0.739  -0.903  0.00  0.00    -0.400 NA
ATOM     13  N   UNL     1     -23.400  -0.222  -0.476  0.00  0.00    -0.100 NA
ATOM     14  C   UNL     1     -24.648   0.231  -0.339  0.00  0.00    +0.000 A 
ATOM     15  C   UNL     1     -24.601   1.609  -0.718  0.00  0.00    +0.000 A 
ENDROOT
BRANCH  11  10
ATOM      1  C   UNL     1     -20.861   4.767  -1.403  0.00  0.00    +0.050 A 
ATOM      2  C   UNL     1     -19.750   5.553  -1.004  0.00  0.00    -0.050 A 
ATOM      3  N   UNL     1     -19.542   6.551  -1.842  0.00  0.00    -0.100 NA
ATOM      4  N   UNL     1     -20.501   6.443  -2.806  0.00  0.00    -0.500 NA
ATOM      5  C   UNL     1     -21.324   5.386  -2.580  0.00  0.00    +0.200 A 
ATOM      6  C   UNL     1     -22.441   4.876  -3.234  0.00  0.00    -0.130 A 
ATOM      7  C   UNL     1     -23.083   3.746  -2.752  0.00  0.00    +0.185 A 
ATOM     10  C   UNL     1     -22.637   3.110  -1.576  0.00  0.00    +0.000 A 
ATOM     28  C   UNL     1     -21.530   3.640  -0.910  0.00  0.00    -0.130 A 
BRANCH   7   8
ATOM      8  O   UNL     1     -24.140   3.150  -3.388  0.00  0.00    -0.365 OA
ATOM      9  C   UNL     1     -24.502   3.629  -4.687  0.00  0.00    +0.030 C 
ENDBRANCH   7   8
ENDBRANCH  11  10
BRANCH  15  16
ATOM     16  N   UNL     1     -25.662   2.548  -0.809  0.00  0.00    -0.350 NA
ATOM     17  C   UNL     1     -26.917   2.367  -0.281  0.00  0.00    +0.600 C 
ATOM     18  O   UNL     1     -27.251   1.374   0.360  0.00  0.00    -0.550 OA
BRANCH  17  19
ATOM     19  C   UNL     1     -27.879   3.460  -0.531  0.00  0.00    +0.000 A 
ATOM     20  C   UNL     1     -27.620   4.676  -1.165  0.00  0.00    +0.100 A 
ATOM     21  N   UNL     1     -28.827   5.332  -1.232  0.00  0.00    -0.150 N 
ATOM     22  C   UNL     1     -28.944   6.545  -1.870  0.00  0.00    +0.000 C 
ATOM     23  C   UNL     1     -27.830   7.067  -2.430  0.00  0.00    -0.100 C 
ATOM     24  C   UNL     1     -26.614   6.343  -2.334  0.00  0.00    +0.000 C 
ATOM     25  N   UNL     1     -29.836   4.611  -0.671  0.00  0.00    -0.350 NA
ATOM     26  N   UNL     1     -26.482   5.179  -1.711  0.00  0.00    -0.150 NA
ATOM     27  C   UNL     1     -29.256   3.492  -0.254  0.00  0.00    +0.000 A 
ENDBRANCH  17  19
ENDBRANCH  15  16
TORSDOF 4
