REMARK  Name = 4m13_ligand
REMARK  7 active torsions:
REMARK  status: ('A' for Active; 'I' for Inactive)
REMARK    1  A    between atoms: N1_1  and  C6_13
REMARK    2  A    between atoms: C1_3  and  C5_10
REMARK    3  A    between atoms: C2_4  and  N3_6
REMARK    4  A    between atoms: C14_21  and  O3_23
REMARK    5  A    between atoms: O3_23  and  C16_24
REMARK    6  A    between atoms: C16_24  and  C17_25
REMARK    7  A    between atoms: C17_25  and  C18_26
REMARK                            x       y       z     vdW  Elec       q    Type
REMARK                         _______ _______ _______ _____ _____    ______ ____
ROOT
ATOM      1  N   UNL     1      -4.828   8.280  13.177  0.00  0.00    -0.172 N 
ATOM     16  C   UNL     1      -3.629   7.830  13.745  0.00  0.00    +0.158 A 
ATOM     17  C   UNL     1      -4.010   6.814  14.628  0.00  0.00    +0.097 A 
ATOM     25  C   UNL     1      -5.440   6.714  14.530  0.00  0.00    +0.135 A 
ATOM     31  N   UNL     1      -5.916   7.625  13.625  0.00  0.00    -0.185 NA
ENDROOT
BRANCH   1   2
ATOM      2  C   UNL     1      -4.934   9.378  12.257  0.00  0.00    +0.114 A 
ATOM      3  C   UNL     1      -5.672  10.539  12.627  0.00  0.00    +0.012 A 
ATOM      4  C   UNL     1      -6.315  10.667  13.884  0.00  0.00    +0.024 A 
ATOM      5  C   UNL     1      -7.007  11.814  14.166  0.00  0.00    +0.091 A 
ATOM     10  C   UNL     1      -7.074  12.893  13.232  0.00  0.00    +0.029 A 
ATOM     11  C   UNL     1      -6.456  12.768  12.026  0.00  0.00    +0.001 A 
ATOM     12  C   UNL     1      -5.744  11.583  11.690  0.00  0.00    -0.028 A 
ATOM     13  C   UNL     1      -5.107  11.455  10.433  0.00  0.00    -0.014 A 
ATOM     14  C   UNL     1      -4.400  10.327  10.118  0.00  0.00    -0.015 A 
ATOM     15  C   UNL     1      -4.310   9.263  11.040  0.00  0.00    +0.025 A 
BRANCH   5   6
ATOM      6  O   UNL     1      -7.678  12.067  15.321  0.00  0.00    -0.319 OA
BRANCH   6   7
ATOM      7  C   UNL     1      -7.697  11.038  16.296  0.00  0.00    +0.193 C 
BRANCH   7   8
ATOM      8  C   UNL     1      -8.391  11.647  17.518  0.00  0.00    +0.030 C 
ATOM      9  C   UNL     1      -7.553  12.766  18.114  0.00  0.00    +0.006 C 
ENDBRANCH   7   8
ENDBRANCH   6   7
ENDBRANCH   5   6
ENDBRANCH   1   2
BRANCH  17  18
ATOM     18  N   UNL     1      -3.240   6.004  15.449  0.00  0.00    -0.235 N 
ATOM     19  H   UNL     1      -3.695   5.308  16.004  0.00  0.00    +0.214 HD
ATOM     20  C   UNL     1      -1.843   6.129  15.527  0.00  0.00    +0.276 C 
ATOM     21  O   UNL     1      -1.196   6.964  14.883  0.00  0.00    -0.394 OA
ATOM     22  N   UNL     1      -1.211   5.247  16.397  0.00  0.00    -0.283 N 
ATOM     23  H   UNL     1      -1.750   4.583  16.915  0.00  0.00    +0.181 HD
ATOM     24  H   UNL     1      -0.217   5.277  16.505  0.00  0.00    +0.181 HD
ENDBRANCH  17  18
BRANCH  25  26
ATOM     26  C   UNL     1      -6.296   5.788  15.274  0.00  0.00    +0.205 C 
ATOM     27  O   UNL     1      -5.834   5.053  16.155  0.00  0.00    -0.390 OA
ATOM     28  N   UNL     1      -7.637   5.764  14.973  0.00  0.00    -0.301 N 
ATOM     29  H   UNL     1      -8.001   6.368  14.264  0.00  0.00    +0.180 HD
ATOM     30  H   UNL     1      -8.248   5.143  15.463  0.00  0.00    +0.180 HD
ENDBRANCH  25  26
TORSDOF 6
