REMARK  Name = 5W84
REMARK  5 active torsions:
REMARK  status: ('A' for Active; 'I' for Inactive)
REMARK    1  A    between atoms: C_1  and  C_12
REMARK    2  A    between atoms: C_6  and  N_20
REMARK    3  A    between atoms: C_12  and  N_19
REMARK    4  A    between atoms: C_13  and  C_21
REMARK    5  A    between atoms: C_18  and  N_19
REMARK                            x       y       z     vdW  Elec       q    Type
REMARK                         _______ _______ _______ _____ _____    ______ ____
ROOT
ATOM      9  C   UNL     1       7.192  41.929   8.444  0.00  0.00    +0.044 A 
ATOM     10  C   UNL     1       8.573  42.182   8.391  0.00  0.00    +0.067 A 
ATOM     11  C   UNL     1       9.148  42.547   7.165  0.00  0.00    +0.125 A 
ATOM     12  N   UNL     1      10.493  42.843   7.039  0.00  0.00    -0.299 N 
ATOM     13  H   UNL     1      10.801  43.120   6.052  0.00  0.00    +0.154 HD
ATOM     25  N   UNL     1       8.447  42.658   6.035  0.00  0.00    -0.239 NA
ATOM     26  C   UNL     1       7.135  42.418   6.093  0.00  0.00    +0.127 A 
ATOM     27  C   UNL     1       6.449  42.059   7.249  0.00  0.00    +0.075 A 
ENDROOT
BRANCH  12  14
ATOM     14  C   UNL     1      11.524  42.839   8.002  0.00  0.00    +0.033 A 
ATOM     15  C   UNL     1      12.724  42.180   7.716  0.00  0.00    +0.025 A 
ATOM     16  C   UNL     1      13.771  42.177   8.629  0.00  0.00    +0.025 A 
ATOM     17  C   UNL     1      13.605  42.842   9.837  0.00  0.00    +0.037 A 
ATOM     18  N   UNL     1      14.496  42.988  10.896  0.00  0.00    -0.285 N 
ATOM     19  H   UNL     1      15.483  42.576  10.913  0.00  0.00    +0.155 HD
ATOM     20  C   UNL     1      13.951  43.725  11.915  0.00  0.00    +0.222 C 
ATOM     21  O   UNL     1      14.516  44.014  12.970  0.00  0.00    -0.275 OA
ATOM     22  C   UNL     1      12.553  44.111  11.501  0.00  0.00    +0.133 C 
ATOM     23  C   UNL     1      12.415  43.500  10.139  0.00  0.00    -0.016 A 
ATOM     24  C   UNL     1      11.367  43.502   9.224  0.00  0.00    +0.029 A 
ENDBRANCH  12  14
BRANCH  27  28
ATOM     28  C   UNL     1       4.971  41.842   7.211  0.00  0.00    +0.245 C 
ATOM     29  O   UNL     1       4.258  42.314   8.111  0.00  0.00    -0.270 OA
ATOM     30  N   UNL     1       4.466  41.144   6.195  0.00  0.00    -0.325 N 
ATOM     31  H   UNL     1       3.412  40.970   6.137  0.00  0.00    +0.145 HD
ATOM     32  H   UNL     1       5.114  40.757   5.437  0.00  0.00    +0.145 HD
ENDBRANCH  27  28
BRANCH   9   7
ATOM      7  N   UNL     1       6.566  41.559   9.644  0.00  0.00    -0.339 N 
ATOM      8  H   UNL     1       5.511  41.377   9.651  0.00  0.00    +0.146 HD
BRANCH   7   6
ATOM      6  C   UNL     1       7.322  41.417  10.881  0.00  0.00    +0.137 C 
BRANCH   6   1
ATOM      1  C   UNL     1       7.701  42.730  11.520  0.00  0.00    -0.030 A 
ATOM      2  C   UNL     1       8.790  42.792  12.379  0.00  0.00    +0.005 A 
ATOM      3  C   UNL     1       9.151  43.988  12.980  0.00  0.00    +0.000 A 
ATOM      4  C   UNL     1       8.427  45.137  12.727  0.00  0.00    +0.000 A 
ATOM      5  C   UNL     1       7.342  45.088  11.872  0.00  0.00    +0.000 A 
ATOM     33  C   UNL     1       6.981  43.892  11.273  0.00  0.00    +0.005 A 
ENDBRANCH   6   1
ENDBRANCH   7   6
ENDBRANCH   9   7
TORSDOF 5
