REMARK  Name = 4YHF
REMARK  10 active torsions:
REMARK  status: ('A' for Active; 'I' for Inactive)
REMARK    1  A    between atoms: C_1  and  C_19
REMARK    2  A    between atoms: C_2  and  C_3
REMARK    3  A    between atoms: C_2  and  C_20
REMARK    4  A    between atoms: C_2  and  C_21
REMARK    5  A    between atoms: C_4  and  C_19
REMARK    6  A    between atoms: C_7  and  O_31
REMARK    7  A    between atoms: N_14  and  C_15
REMARK    8  A    between atoms: C_18  and  C_19
REMARK    9  A    between atoms: C_28  and  C_29
REMARK   10  A    between atoms: C_30  and  O_31
REMARK                            x       y       z     vdW  Elec       q    Type
REMARK                         _______ _______ _______ _____ _____    ______ ____
ROOT
ATOM     10  N   UNL     1      -8.374 -15.981  -5.928  0.00  0.00    -0.241 N 
ATOM     11  N   UNL     1      -9.440 -16.410  -5.136  0.00  0.00    -0.168 NA
ATOM     12  C   UNL     1      -9.032 -17.391  -4.276  0.00  0.00    +0.105 A 
ATOM     26  C   UNL     1      -7.591 -17.641  -4.577  0.00  0.00    +0.086 A 
ATOM     27  C   UNL     1      -6.519 -18.475  -4.134  0.00  0.00    +0.131 A 
ATOM     28  N   UNL     1      -6.640 -19.396  -3.135  0.00  0.00    -0.342 N 
ATOM     29  H   UNL     1      -7.503 -19.642  -2.746  0.00  0.00    +0.144 HD
ATOM     30  H   UNL     1      -5.867 -19.884  -2.728  0.00  0.00    +0.144 HD
ATOM     31  N   UNL     1      -5.256 -18.403  -4.702  0.00  0.00    -0.220 NA
ATOM     32  C   UNL     1      -5.054 -17.522  -5.699  0.00  0.00    +0.225 A 
ATOM     33  N   UNL     1      -5.979 -16.669  -6.223  0.00  0.00    -0.216 NA
ATOM     34  C   UNL     1      -7.220 -16.766  -5.635  0.00  0.00    +0.164 A 
ENDROOT
BRANCH  10   9
ATOM      3  C   UNL     1      -8.349 -14.872 -10.728  0.00  0.00    +0.233 C 
ATOM      4  O   UNL     1      -7.494 -15.788 -10.868  0.00  0.00    -0.274 OA
ATOM      5  N   UNL     1      -8.979 -14.796  -9.503  0.00  0.00    -0.298 N 
ATOM      6  C   UNL     1     -10.028 -13.801  -9.179  0.00  0.00    +0.108 C 
ATOM      7  C   UNL     1      -9.755 -13.072  -7.885  0.00  0.00    +0.021 C 
ATOM      8  C   UNL     1      -9.742 -14.102  -6.797  0.00  0.00    +0.030 C 
ATOM      9  C   UNL     1      -8.503 -15.002  -7.021  0.00  0.00    +0.127 C 
ATOM     35  C   UNL     1      -8.717 -15.717  -8.373  0.00  0.00    +0.134 C 
BRANCH   3   2
ATOM      1  C   UNL     1      -9.875 -14.739 -12.465  0.00  0.00    +0.025 C 
ATOM      2  C   UNL     1      -8.567 -14.085 -12.033  0.00  0.00    +0.181 C 
BRANCH   2  36
ATOM     36  C   UNL     1      -7.470 -13.871 -12.930  0.00  0.00    +0.076 C 
ATOM     37  N   UNL     1      -6.529 -13.683 -13.622  0.00  0.00    -0.196 NA
ENDBRANCH   2  36
ENDBRANCH   3   2
ENDBRANCH  10   9
BRANCH  12  13
ATOM     13  C   UNL     1      -9.962 -18.026  -3.248  0.00  0.00    +0.003 A 
ATOM     14  C   UNL     1     -11.194 -18.602  -3.648  0.00  0.00    +0.014 A 
ATOM     15  C   UNL     1     -12.130 -19.203  -2.772  0.00  0.00    +0.047 A 
ATOM     16  C   UNL     1     -11.898 -19.265  -1.386  0.00  0.00    +0.128 A 
ATOM     24  C   UNL     1     -10.697 -18.701  -0.972  0.00  0.00    +0.047 A 
ATOM     25  C   UNL     1      -9.786 -18.111  -1.852  0.00  0.00    +0.014 A 
BRANCH  16  17
ATOM     17  O   UNL     1     -12.745 -19.830  -0.429  0.00  0.00    -0.456 OA
BRANCH  17  18
ATOM     18  C   UNL     1     -13.431 -21.027  -0.722  0.00  0.00    +0.128 A 
ATOM     19  C   UNL     1     -14.820 -21.173  -0.527  0.00  0.00    +0.046 A 
ATOM     20  C   UNL     1     -15.437 -22.386  -0.831  0.00  0.00    +0.004 A 
ATOM     21  C   UNL     1     -14.743 -23.484  -1.329  0.00  0.00    +0.000 A 
ATOM     22  C   UNL     1     -13.368 -23.343  -1.523  0.00  0.00    +0.004 A 
ATOM     23  C   UNL     1     -12.726 -22.135  -1.223  0.00  0.00    +0.046 A 
ENDBRANCH  17  18
ENDBRANCH  16  17
ENDBRANCH  12  13
TORSDOF 6
