REMARK  Name = 4bbe_ligand
REMARK  5 active torsions:
REMARK  status: ('A' for Active; 'I' for Inactive)
REMARK    1  A    between atoms: C22_2  and  C19_6
REMARK    2  A    between atoms: N24_3  and  C25_4
REMARK    3  A    between atoms: C16_8  and  C12_9
REMARK    4  A    between atoms: N7_15  and  C1_16
REMARK    5  A    between atoms: C4_19  and  N8_23
REMARK                            x       y       z     vdW  Elec       q    Type
REMARK                         _______ _______ _______ _____ _____    ______ ____
ROOT
ATOM     11  C   UNL     1       5.742  -9.845  -1.216  0.00  0.00    +0.044 A 
ATOM     12  N   UNL     1       5.497 -10.761  -0.262  0.00  0.00    -0.254 NA
ATOM     13  C   UNL     1       6.427 -11.088   0.656  0.00  0.00    +0.203 A 
ATOM     14  N   UNL     1       6.189 -12.003   1.608  0.00  0.00    -0.249 N 
ATOM     15  H   UNL     1       6.987 -12.282   2.179  0.00  0.00    +0.215 HD
ATOM     28  N   UNL     1       7.634 -10.491   0.627  0.00  0.00    -0.257 NA
ATOM     29  C   UNL     1       7.929  -9.579  -0.288  0.00  0.00    +0.098 A 
ATOM     30  C   UNL     1       6.987  -9.222  -1.247  0.00  0.00    +0.043 A 
ENDROOT
BRANCH  11   9
ATOM      6  C   UNL     1       2.705  -8.916  -3.966  0.00  0.00    +0.073 A 
ATOM      7  C   UNL     1       2.474  -9.820  -2.930  0.00  0.00    +0.017 A 
ATOM      8  C   UNL     1       3.487 -10.124  -2.023  0.00  0.00    +0.002 A 
ATOM      9  C   UNL     1       4.745  -9.530  -2.142  0.00  0.00    -0.011 A 
ATOM     10  C   UNL     1       4.978  -8.621  -3.177  0.00  0.00    +0.002 A 
ATOM     31  C   UNL     1       3.964  -8.318  -4.085  0.00  0.00    +0.017 A 
BRANCH   6   4
ATOM      1  O   UNL     1       2.602  -6.973  -6.052  0.00  0.00    -0.384 OA
ATOM      2  C   UNL     1       1.677  -7.736  -5.775  0.00  0.00    +0.203 C 
ATOM      3  C   UNL     1       0.369  -7.677  -6.564  0.00  0.00    +0.174 C 
ATOM      4  N   UNL     1       1.693  -8.660  -4.808  0.00  0.00    -0.230 N 
ATOM      5  H   UNL     1       0.852  -9.226  -4.700  0.00  0.00    +0.229 HD
ENDBRANCH   6   4
ENDBRANCH  11   9
BRANCH  14  16
ATOM     16  C   UNL     1       5.014 -12.592   1.891  0.00  0.00    +0.053 A 
ATOM     17  C   UNL     1       3.791 -12.161   1.367  0.00  0.00    +0.002 A 
ATOM     18  C   UNL     1       2.606 -12.817   1.701  0.00  0.00    -0.004 A 
ATOM     19  C   UNL     1       2.623 -13.913   2.570  0.00  0.00    +0.029 A 
ATOM     26  C   UNL     1       3.844 -14.339   3.097  0.00  0.00    -0.004 A 
ATOM     27  C   UNL     1       5.025 -13.682   2.760  0.00  0.00    +0.002 A 
BRANCH  19  20
ATOM     20  N   UNL     1       1.428 -14.583   2.925  0.00  0.00    -0.310 N 
ATOM     21  C   UNL     1       0.219 -14.492   2.054  0.00  0.00    +0.155 C 
ATOM     22  C   UNL     1      -0.621 -15.779   2.103  0.00  0.00    +0.183 C 
ATOM     23  O   UNL     1      -0.768 -16.252   3.461  0.00  0.00    -0.376 OA
ATOM     24  C   UNL     1       0.505 -16.631   4.028  0.00  0.00    +0.183 C 
ATOM     25  C   UNL     1       1.372 -15.376   4.189  0.00  0.00    +0.155 C 
ENDBRANCH  19  20
ENDBRANCH  14  16
TORSDOF 4
