REMARK  Name = 8N5
REMARK  0 active torsions:
REMARK  status: ('A' for Active; 'I' for Inactive)
REMARK                            x       y       z     vdW  Elec       q    Type
REMARK                         _______ _______ _______ _____ _____    ______ ____
ROOT
ATOM      1  C   UNL     1      92.493  86.671  -5.284  0.00  0.00    -0.010 A 
ATOM      2  C   UNL     1      91.564  86.841  -4.243  0.00  0.00    +0.013 A 
ATOM      3  C   UNL     1      91.979  86.690  -2.921  0.00  0.00    +0.001 A 
ATOM      4  C   UNL     1      93.300  86.406  -2.627  0.00  0.00    +0.000 A 
ATOM      5  C   UNL     1      94.217  86.258  -3.640  0.00  0.00    -0.000 A 
ATOM      6  C   UNL     1      90.192  87.141  -4.594  0.00  0.00    +0.097 C 
ATOM      7  N   UNL     1      89.203  87.167  -3.676  0.00  0.00    -0.159 NA
ATOM      8  N   UNL     1      88.025  87.557  -4.296  0.00  0.00    -0.078 NA
ATOM      9  C   UNL     1      88.236  87.794  -5.617  0.00  0.00    +0.278 C 
ATOM     10  O   UNL     1      87.346  88.168  -6.393  0.00  0.00    -0.270 OA
ATOM     11  C   UNL     1      89.655  87.526  -5.806  0.00  0.00    +0.169 C 
ATOM     12  S   UNL     1      90.679  87.670  -7.210  0.00  0.00    -0.121 S 
ATOM     13  C   UNL     1      93.817  86.383  -4.959  0.00  0.00    -0.003 A 
ATOM     14  C   UNL     1      92.139  86.706  -6.745  0.00  0.00    +0.085 C 
ENDROOT
TORSDOF 0
