REMARK  Name = 3o0g_ligand
REMARK  5 active torsions:
REMARK  status: ('A' for Active; 'I' for Inactive)
REMARK    1  A    between atoms: NAA_2  and  CAH_8
REMARK    2  A    between atoms: CAE_5  and  CAF_6
REMARK    3  A    between atoms: CAF_6  and  CAG_7
REMARK    4  A    between atoms: CAN_14  and  NAX_24
REMARK    5  A    between atoms: NAS_19  and  CAT_20
REMARK                            x       y       z     vdW  Elec       q    Type
REMARK                         _______ _______ _______ _____ _____    ______ ____
ROOT
ATOM      6  N   UNL     1      -5.351  62.597  58.204  0.00  0.00    -0.163 N 
ATOM      7  H   UNL     1      -5.238  62.819  57.215  0.00  0.00    +0.288 HD
ATOM      8  C   UNL     1      -5.848  61.380  58.474  0.00  0.00    +0.354 A 
ATOM      9  S   UNL     1      -5.860  60.572  59.982  0.00  0.00    +0.243 S 
ATOM     10  C   UNL     1      -6.639  59.200  59.377  0.00  0.00    +0.343 A 
ATOM     11  C   UNL     1      -6.867  59.411  58.011  0.00  0.00    +0.330 A 
ATOM     26  N   UNL     1      -6.429  60.602  57.539  0.00  0.00    -0.099 NA
ENDROOT
BRANCH   6   5
ATOM      1 CL   UNL     1      -3.584  67.012  61.653  0.00  0.00    -0.059 Cl
ATOM      2  C   UNL     1      -4.128  65.685  60.683  0.00  0.00    +0.052 A 
ATOM      3  C   UNL     1      -4.818  64.603  61.252  0.00  0.00    +0.031 A 
ATOM      4  C   UNL     1      -5.244  63.541  60.443  0.00  0.00    +0.065 A 
ATOM      5  C   UNL     1      -4.983  63.561  59.064  0.00  0.00    +0.132 A 
ATOM     27  C   UNL     1      -4.294  64.647  58.518  0.00  0.00    +0.065 A 
ATOM     28  C   UNL     1      -3.862  65.704  59.317  0.00  0.00    +0.031 A 
ENDBRANCH   6   5
BRANCH  11  12
ATOM     12  N   UNL     1      -7.478  58.510  57.240  0.00  0.00    -0.246 N 
ATOM     13  H   UNL     1      -7.625  58.702  56.249  0.00  0.00    +0.226 HD
ATOM     14  H   UNL     1      -7.798  57.629  57.641  0.00  0.00    +0.226 HD
ENDBRANCH  11  12
BRANCH  10  15
ATOM     15  C   UNL     1      -7.043  57.958  60.184  0.00  0.00    +0.318 C 
ATOM     16  O   UNL     1      -7.521  56.981  59.618  0.00  0.00    -0.276 OA
BRANCH  15  17
ATOM     17  C   UNL     1      -6.876  57.933  61.700  0.00  0.00    +0.075 A 
ATOM     18  C   UNL     1      -6.623  56.717  62.319  0.00  0.00    +0.067 A 
ATOM     19  C   UNL     1      -6.464  56.647  63.698  0.00  0.00    +0.090 A 
ATOM     23  C   UNL     1      -6.566  57.800  64.476  0.00  0.00    +0.049 A 
ATOM     24  C   UNL     1      -6.832  59.024  63.858  0.00  0.00    +0.016 A 
ATOM     25  C   UNL     1      -6.987  59.086  62.471  0.00  0.00    +0.035 A 
BRANCH  19  20
ATOM     20  N   UNL     1      -6.224  55.463  64.235  0.00  0.00    -0.215 N 
ATOM     21  O   UNL     1      -6.277  54.309  63.402  0.00  0.00    -0.488 OA
ATOM     22  O   UNL     1      -5.938  55.325  65.630  0.00  0.00    -0.488 OA
ENDBRANCH  19  20
ENDBRANCH  15  17
ENDBRANCH  10  15
TORSDOF 5
