REMARK  Name = 4acc_ligand
REMARK  10 active torsions:
REMARK  status: ('A' for Active; 'I' for Inactive)
REMARK    1  A    between atoms: C1_1  and  N2_2
REMARK    2  A    between atoms: N2_2  and  C3_3
REMARK    3  A    between atoms: N2_2  and  C4_4
REMARK    4  A    between atoms: C4_4  and  C5_5
REMARK    5  A    between atoms: C5_5  and  N6_6
REMARK    6  A    between atoms: N6_6  and  S7_7
REMARK    7  A    between atoms: S7_7  and  C10_10
REMARK    8  A    between atoms: C13_13  and  C16_16
REMARK    9  A    between atoms: C20_20  and  C22_22
REMARK   10  A    between atoms: N24_24  and  C25_25
REMARK                            x       y       z     vdW  Elec       q    Type
REMARK                         _______ _______ _______ _____ _____    ______ ____
ROOT
ATOM     13  C   UNL     1      18.873  18.856   8.033  0.00  0.00    +0.074 A 
ATOM     14  N   UNL     1      19.860  18.090   8.532  0.00  0.00    -0.260 NA
ATOM     15  C   UNL     1      20.998  18.046   7.820  0.00  0.00    +0.176 A 
ATOM     26  C   UNL     1      21.155  18.707   6.613  0.00  0.00    +0.162 A 
ATOM     27  N   UNL     1      22.332  18.579   5.879  0.00  0.00    -0.311 N 
ATOM     28  H   UNL     1      22.433  19.069   4.979  0.00  0.00    +0.182 HD
ATOM     29  H   UNL     1      23.101  17.994   6.237  0.00  0.00    +0.182 HD
ATOM     30  N   UNL     1      20.171  19.478   6.117  0.00  0.00    -0.253 NA
ATOM     31  C   UNL     1      19.053  19.545   6.851  0.00  0.00    +0.130 A 
ENDROOT
BRANCH  13  12
ATOM      9  C   UNL     1      15.217  18.803  10.189  0.00  0.00    +0.109 A 
ATOM     10  C   UNL     1      16.408  18.500  10.826  0.00  0.00    +0.030 A 
ATOM     11  C   UNL     1      17.588  18.530  10.107  0.00  0.00    +0.013 A 
ATOM     12  C   UNL     1      17.613  18.876   8.767  0.00  0.00    -0.000 A 
ATOM     32  C   UNL     1      16.406  19.192   8.153  0.00  0.00    +0.013 A 
ATOM     33  C   UNL     1      15.212  19.154   8.847  0.00  0.00    +0.030 A 
BRANCH   9   8
ATOM      8  S   UNL     1      13.681  18.744  11.143  0.00  0.00    +0.069 S 
ATOM     34  O   UNL     1      12.632  19.072  10.203  0.00  0.00    -0.150 OA
ATOM     35  O   UNL     1      13.690  17.500  11.893  0.00  0.00    -0.150 OA
BRANCH   8   6
ATOM      6  N   UNL     1      13.971  19.969  12.299  0.00  0.00    -0.242 NA
ATOM      7  H   UNL     1      14.251  19.735  13.230  0.00  0.00    +0.167 HD
BRANCH   6   5
ATOM      5  C   UNL     1      13.800  21.376  11.897  0.00  0.00    +0.172 C 
BRANCH   5   4
ATOM      4  C   UNL     1      13.770  22.194  13.183  0.00  0.00    +0.151 C 
BRANCH   4   2
ATOM      1  C   UNL     1      11.209  21.883  13.328  0.00  0.00    +0.190 C 
ATOM      2  N   UNL     1      12.529  21.989  14.013  0.00  0.00    +0.232 N 
ATOM      3  H   UNL     1      12.446  22.895  14.447  0.00  0.00    +0.203 HD
ATOM     36  C   UNL     1      12.672  21.103  15.201  0.00  0.00    +0.190 C 
ENDBRANCH   4   2
ENDBRANCH   5   4
ENDBRANCH   6   5
ENDBRANCH   8   6
ENDBRANCH   9   8
ENDBRANCH  13  12
BRANCH  15  16
ATOM     16  C   UNL     1      22.066  17.178   8.369  0.00  0.00    +0.254 C 
ATOM     17  N   UNL     1      21.659  16.480   9.490  0.00  0.00    -0.225 N 
ATOM     18  H   UNL     1      20.691  16.547   9.731  0.00  0.00    +0.228 HD
ATOM     25  O   UNL     1      23.156  17.092   7.824  0.00  0.00    -0.370 OA
BRANCH  17  19
ATOM     19  C   UNL     1      22.459  15.688  10.325  0.00  0.00    +0.094 A 
ATOM     20  C   UNL     1      23.824  15.520  10.154  0.00  0.00    +0.102 A 
ATOM     21  N   UNL     1      24.575  14.775  10.971  0.00  0.00    -0.313 NA
ATOM     22  C   UNL     1      23.959  14.188  12.009  0.00  0.00    +0.064 A 
ATOM     23  C   UNL     1      22.602  14.298  12.261  0.00  0.00    +0.019 A 
ATOM     24  C   UNL     1      21.845  15.064  11.391  0.00  0.00    +0.041 A 
ENDBRANCH  17  19
ENDBRANCH  15  16
TORSDOF 8
