REMARK  Name = 3u6i_ligand
REMARK  12 active torsions:
REMARK  status: ('A' for Active; 'I' for Inactive)
REMARK    1  A    between atoms: CAA_1  and  OBM_39
REMARK    2  A    between atoms: CAG_7  and  OAK_11
REMARK    3  A    between atoms: OAK_11  and  CAL_12
REMARK    4  A    between atoms: CAP_16  and  NAR_18
REMARK    5  A    between atoms: CAT_20  and  CAU_21
REMARK    6  A    between atoms: NAW_23  and  CBI_35
REMARK    7  A    between atoms: CAX_24  and  CBH_34
REMARK    8  A    between atoms: NAY_25  and  CBA_27
REMARK    9  A    between atoms: CBI_35  and  CBJ_36
REMARK   10  A    between atoms: CBJ_36  and  CBK_37
REMARK   11  A    between atoms: CBJ_36  and  OBL_38
REMARK   12  A    between atoms: OBM_39  and  CBN_40
REMARK                            x       y       z     vdW  Elec       q    Type
REMARK                         _______ _______ _______ _____ _____    ______ ____
ROOT
ATOM     14  N   UNL     1      23.277  -2.807  15.480  0.00  0.00    -0.249 N 
ATOM     15  H   UNL     1      23.670  -3.481  14.854  0.00  0.00    +0.220 HD
ATOM     16  C   UNL     1      23.326  -1.534  15.059  0.00  0.00    +0.194 C 
ATOM     17  O   UNL     1      22.904  -0.569  15.697  0.00  0.00    -0.408 OA
ENDROOT
BRANCH  14  13
ATOM      9  C   UNL     1      21.837  -4.511  18.992  0.00  0.00    +0.142 A 
ATOM     10  C   UNL     1      22.305  -5.287  17.944  0.00  0.00    +0.154 A 
ATOM     11  F   UNL     1      22.307  -6.624  18.092  0.00  0.00    -0.192 F 
ATOM     12  C   UNL     1      22.779  -4.696  16.776  0.00  0.00    +0.033 A 
ATOM     13  C   UNL     1      22.773  -3.307  16.628  0.00  0.00    +0.053 A 
ATOM     36  C   UNL     1      22.299  -2.525  17.686  0.00  0.00    -0.007 A 
ATOM     37  C   UNL     1      21.822  -3.116  18.865  0.00  0.00    +0.011 A 
BRANCH   9   8
ATOM      8  O   UNL     1      21.380  -5.163  20.103  0.00  0.00    -0.251 OA
BRANCH   8   7
ATOM      1  C   UNL     1      20.398  -6.290  24.850  0.00  0.00    +0.094 A 
ATOM      4  C   UNL     1      19.636  -6.266  23.684  0.00  0.00    +0.033 A 
ATOM      5  C   UNL     1      20.222  -5.900  22.475  0.00  0.00    +0.017 A 
ATOM      6  C   UNL     1      21.574  -5.550  22.436  0.00  0.00    +0.037 A 
ATOM      7  C   UNL     1      22.162  -5.174  21.233  0.00  0.00    +0.140 A 
ATOM     38  C   UNL     1      23.517  -4.821  21.238  0.00  0.00    +0.050 A 
ATOM     39  C   UNL     1      24.237  -4.853  22.435  0.00  0.00    +0.070 A 
ATOM     40  N   UNL     1      23.650  -5.218  23.571  0.00  0.00    -0.324 NA
ATOM     41  C   UNL     1      22.343  -5.557  23.608  0.00  0.00    +0.024 A 
ATOM     42  C   UNL     1      21.752  -5.930  24.812  0.00  0.00    +0.030 A 
BRANCH   1   2
ATOM      2  O   UNL     1      19.784  -6.655  26.011  0.00  0.00    -0.318 OA
ATOM      3  C   UNL     1      20.682  -7.074  27.056  0.00  0.00    +0.235 C 
ENDBRANCH   1   2
ENDBRANCH   8   7
ENDBRANCH   9   8
ENDBRANCH  14  13
BRANCH  16  18
ATOM     18  C   UNL     1      24.047  -1.351  13.705  0.00  0.00    +0.124 A 
ATOM     19  C   UNL     1      24.449  -0.183  13.067  0.00  0.00    +0.102 A 
ATOM     20  C   UNL     1      24.209   1.256  13.558  0.00  0.00    +0.171 C 
ATOM     21  N   UNL     1      25.057  -0.537  11.920  0.00  0.00    -0.156 N 
ATOM     27  N   UNL     1      25.085  -1.782  11.819  0.00  0.00    -0.114 N 
ATOM     34  C   UNL     1      24.503  -2.362  12.874  0.00  0.00    +0.224 A 
ATOM     35  O   UNL     1      24.357  -3.571  13.065  0.00  0.00    -0.405 OA
BRANCH  27  28
ATOM     28  C   UNL     1      25.680  -2.460  10.834  0.00  0.00    +0.096 A 
ATOM     29  C   UNL     1      24.999  -3.003   9.744  0.00  0.00    +0.011 A 
ATOM     30  C   UNL     1      25.720  -3.695   8.768  0.00  0.00    -0.018 A 
ATOM     31  C   UNL     1      27.102  -3.851   8.874  0.00  0.00    -0.029 A 
ATOM     32  C   UNL     1      27.786  -3.313   9.964  0.00  0.00    -0.018 A 
ATOM     33  C   UNL     1      27.068  -2.622  10.939  0.00  0.00    +0.011 A 
ENDBRANCH  27  28
BRANCH  21  22
ATOM     22  C   UNL     1      25.672   0.414  10.945  0.00  0.00    +0.214 C 
BRANCH  22  23
ATOM     23  C   UNL     1      24.766   1.069   9.901  0.00  0.00    +0.138 C 
ATOM     26  C   UNL     1      25.578   2.081   9.077  0.00  0.00    +0.040 C 
BRANCH  23  24
ATOM     24  O   UNL     1      24.200   0.081   9.049  0.00  0.00    -0.390 OA
ATOM     25  H   UNL     1      23.701  -0.537   9.570  0.00  0.00    +0.210 HD
ENDBRANCH  23  24
ENDBRANCH  22  23
ENDBRANCH  21  22
ENDBRANCH  16  18
TORSDOF 9
