REMARK  Name = AA2
REMARK  6 active torsions:
REMARK  status: ('A' for Active; 'I' for Inactive)
REMARK    1  A    between atoms: C4_4  and  C7_7
REMARK    2  A    between atoms: C10_10  and  C21_21
REMARK    3  A    between atoms: C13_13  and  N19_19
REMARK    4  A    between atoms: C16_16  and  C25_25
REMARK    5  A    between atoms: C25_25  and  C26_26
REMARK    6  A    between atoms: C26_26  and  N27_27
REMARK                            x       y       z     vdW  Elec       q    Type
REMARK                         _______ _______ _______ _____ _____    ______ ____
ROOT
ATOM      1  C   UNL     1     -15.130   0.000   5.000  0.00  0.00    +0.000 C 
ENDROOT
TORSDOF 0
