REMARK  Name = 2R3R
REMARK  4 active torsions:
REMARK  status: ('A' for Active; 'I' for Inactive)
REMARK    1  A    between atoms: C_7  and  C_11
REMARK    2  A    between atoms: C_9  and  N_10
REMARK    3  A    between atoms: N_10  and  C_12
REMARK    4  A    between atoms: C_12  and  C_13
REMARK                            x       y       z     vdW  Elec       q    Type
REMARK                         _______ _______ _______ _____ _____    ______ ____
ROOT
ATOM      1  C   UNL     1      -0.048  30.995   8.022  0.00  0.00    +0.079 A 
ATOM      2 BR   UNL     1      -1.633  31.617   8.660  0.00  0.00    -0.045 Br
ATOM      3  C   UNL     1       0.891  31.729   7.191  0.00  0.00    +0.121 A 
ATOM      4  N   UNL     1       1.902  30.982   6.824  0.00  0.00    -0.296 N 
ATOM      5  H   UNL     1       2.698  31.262   6.166  0.00  0.00    +0.187 HD
ATOM      6  N   UNL     1       1.745  29.792   7.437  0.00  0.00    -0.223 N 
ATOM      7  C   UNL     1       2.655  28.757   7.466  0.00  0.00    +0.119 C 
ATOM     17  C   UNL     1       2.290  27.594   8.161  0.00  0.00    +0.054 C 
ATOM     18  C   UNL     1       1.052  27.552   8.860  0.00  0.00    +0.143 C 
ATOM     25  N   UNL     1       0.168  28.573   8.885  0.00  0.00    -0.246 NA
ATOM     26  C   UNL     1       0.535  29.710   8.180  0.00  0.00    +0.166 A 
ENDROOT
BRANCH  18  19
ATOM     19  C   UNL     1       0.714  26.282   9.552  0.00  0.00    -0.013 A 
ATOM     20  C   UNL     1       1.733  25.361   9.882  0.00  0.00    +0.006 A 
ATOM     21  C   UNL     1       1.401  24.158  10.533  0.00  0.00    +0.000 A 
ATOM     22  C   UNL     1       0.056  23.881  10.837  0.00  0.00    +0.000 A 
ATOM     23  C   UNL     1      -0.934  24.795  10.513  0.00  0.00    +0.000 A 
ATOM     24  C   UNL     1      -0.615  25.979   9.843  0.00  0.00    +0.006 A 
ENDBRANCH  18  19
BRANCH   7   8
ATOM      8  N   UNL     1       3.816  28.895   6.769  0.00  0.00    -0.325 N 
ATOM      9  H   UNL     1       3.952  29.701   6.078  0.00  0.00    +0.148 HD
BRANCH   8  10
ATOM     10  C   UNL     1       4.855  27.923   6.990  0.00  0.00    +0.138 C 
BRANCH  10  11
ATOM     11  C   UNL     1       4.954  26.931   5.901  0.00  0.00    -0.028 A 
ATOM     12  C   UNL     1       4.904  25.561   6.165  0.00  0.00    +0.025 A 
ATOM     13  C   UNL     1       5.004  24.674   5.079  0.00  0.00    +0.111 A 
ATOM     14  N   UNL     1       5.169  25.066   3.810  0.00  0.00    -0.263 NA
ATOM     15  C   UNL     1       5.233  26.394   3.582  0.00  0.00    +0.111 A 
ATOM     16  C   UNL     1       5.104  27.352   4.602  0.00  0.00    +0.025 A 
ENDBRANCH  10  11
ENDBRANCH   8  10
ENDBRANCH   7   8
TORSDOF 4
