REMARK  Name = 4ckr_ligand
REMARK  10 active torsions:
REMARK  status: ('A' for Active; 'I' for Inactive)
REMARK    1  A    between atoms: C01_1  and  C02_2
REMARK    2  A    between atoms: C02_2  and  N03_3
REMARK    3  A    between atoms: N06_6  and  C09_9
REMARK    4  A    between atoms: C09_9  and  C10_10
REMARK    5  A    between atoms: C13_13  and  C20_20
REMARK    6  A    between atoms: C15_15  and  C16_16
REMARK    7  A    between atoms: N21_21  and  C22_22
REMARK    8  A    between atoms: C25_25  and  C26_26
REMARK    9  A    between atoms: C27_27  and  O29_29
REMARK   10  A    between atoms: O29_29  and  C30_30
REMARK                            x       y       z     vdW  Elec       q    Type
REMARK                         _______ _______ _______ _____ _____    ______ ____
ROOT
ATOM     18  C   UNL     1       1.287  34.501  13.210  0.00  0.00    +0.233 C 
ATOM     19  O   UNL     1       1.596  33.327  13.094  0.00  0.00    -0.376 OA
ATOM     20  N   UNL     1       2.095  35.522  12.851  0.00  0.00    -0.239 N 
ATOM     21  H   UNL     1       1.678  36.429  12.805  0.00  0.00    +0.223 HD
ENDROOT
BRANCH  20  22
ATOM     22  C   UNL     1       3.469  35.440  12.534  0.00  0.00    +0.051 A 
ATOM     23  C   UNL     1       3.860  34.576  11.527  0.00  0.00    +0.026 A 
ATOM     24  C   UNL     1       5.196  34.427  11.227  0.00  0.00    +0.101 A 
ATOM     37  C   UNL     1       6.175  35.155  11.905  0.00  0.00    -0.027 A 
ATOM     38  C   UNL     1       7.636  34.976  11.612  0.00  0.00    +0.064 C 
ATOM     39  C   UNL     1       5.755  36.054  12.872  0.00  0.00    -0.032 A 
ATOM     40  C   UNL     1       4.422  36.191  13.198  0.00  0.00    -0.018 A 
BRANCH  24  25
ATOM     25  O   UNL     1       5.336  33.340  10.431  0.00  0.00    -0.276 OA
BRANCH  25  26
ATOM     26  C   UNL     1       6.222  32.304  10.438  0.00  0.00    +0.093 A 
ATOM     27  C   UNL     1       6.520  31.642  11.619  0.00  0.00    +0.009 A 
ATOM     28  C   UNL     1       7.160  30.418  11.552  0.00  0.00    -0.008 A 
ATOM     29  C   UNL     1       7.633  29.468  12.606  0.00  0.00    +0.199 C 
ATOM     30  C   UNL     1       8.248  28.351  11.813  0.00  0.00    +0.206 C 
ATOM     31  O   UNL     1       8.745  27.330  12.244  0.00  0.00    -0.390 OA
ATOM     32  N   UNL     1       8.141  28.674  10.498  0.00  0.00    -0.241 N 
ATOM     33  H   UNL     1       8.489  28.106   9.752  0.00  0.00    +0.222 HD
ATOM     34  C   UNL     1       7.494  29.881  10.315  0.00  0.00    +0.062 A 
ATOM     35  C   UNL     1       7.198  30.548   9.146  0.00  0.00    -0.007 A 
ATOM     36  C   UNL     1       6.572  31.776   9.214  0.00  0.00    -0.001 A 
ENDBRANCH  25  26
ENDBRANCH  24  25
ENDBRANCH  20  22
BRANCH  18  17
ATOM     10  C   UNL     1      -2.617  35.411  14.695  0.00  0.00    +0.040 A 
ATOM     11  C   UNL     1      -2.023  34.165  14.895  0.00  0.00    +0.060 A 
ATOM     16  C   UNL     1      -0.765  33.906  14.368  0.00  0.00    +0.072 A 
ATOM     17  C   UNL     1      -0.085  34.875  13.648  0.00  0.00    +0.078 A 
ATOM     41  C   UNL     1      -0.667  36.122  13.477  0.00  0.00    +0.067 A 
ATOM     42  C   UNL     1      -1.922  36.380  13.987  0.00  0.00    +0.046 A 
BRANCH  11  12
ATOM     12  C   UNL     1      -2.712  33.071  15.634  0.00  0.00    +0.372 C 
ATOM     13  F   UNL     1      -3.746  32.669  15.051  0.00  0.00    -0.226 F 
ATOM     14  F   UNL     1      -1.987  32.025  15.783  0.00  0.00    -0.226 F 
ATOM     15  F   UNL     1      -3.081  33.425  16.780  0.00  0.00    -0.226 F 
ENDBRANCH  11  12
BRANCH  10   9
ATOM      9  C   UNL     1      -4.016  35.685  15.185  0.00  0.00    +0.233 C 
BRANCH   9   7
ATOM      3  N   UNL     1      -7.117  36.874  12.565  0.00  0.00    +0.242 N 
ATOM      4  H   UNL     1      -7.705  36.103  12.840  0.00  0.00    +0.204 HD
ATOM      5  C   UNL     1      -5.859  36.358  12.013  0.00  0.00    +0.183 C 
ATOM      6  C   UNL     1      -5.117  35.569  13.043  0.00  0.00    +0.185 C 
ATOM      7  N   UNL     1      -4.814  36.409  14.197  0.00  0.00    +0.261 N 
ATOM      8  H   UNL     1      -4.268  37.193  13.877  0.00  0.00    +0.206 HD
ATOM     43  C   UNL     1      -6.056  36.931  14.779  0.00  0.00    +0.185 C 
ATOM     44  C   UNL     1      -6.843  37.709  13.739  0.00  0.00    +0.183 C 
BRANCH   3   2
ATOM      1  C   UNL     1      -9.126  38.171  11.886  0.00  0.00    +0.060 C 
ATOM      2  C   UNL     1      -7.791  37.651  11.529  0.00  0.00    +0.128 C 
ENDBRANCH   3   2
ENDBRANCH   9   7
ENDBRANCH  10   9
ENDBRANCH  18  17
TORSDOF 8
