REMARK  Name = 2gdo_ligand
REMARK  3 active torsions:
REMARK  status: ('A' for Active; 'I' for Inactive)
REMARK    1  A    between atoms: C8_11  and  C9_12
REMARK    2  A    between atoms: C10_13  and  N2_14
REMARK    3  A    between atoms: N2_14  and  C11_15
REMARK                            x       y       z     vdW  Elec       q    Type
REMARK                         _______ _______ _______ _____ _____    ______ ____
ROOT
ATOM      1  C   UNL     1       4.919  -1.474  46.017  0.00  0.00    +0.053 A 
ATOM      2  C   UNL     1       3.502  -1.781  46.362  0.00  0.00    +0.085 A 
ATOM     14  C   UNL     1       2.801  -0.905  47.148  0.00  0.00    +0.111 A 
ATOM     25  C   UNL     1       3.451   0.351  47.664  0.00  0.00    +0.207 A 
ATOM     26  O   UNL     1       2.841   1.155  48.375  0.00  0.00    -0.410 OA
ATOM     27  N   UNL     1       4.761   0.587  47.301  0.00  0.00    -0.230 N 
ATOM     28  H   UNL     1       5.199   1.424  47.628  0.00  0.00    +0.236 HD
ATOM     29  C   UNL     1       5.511  -0.284  46.498  0.00  0.00    +0.095 A 
ATOM     30  C   UNL     1       6.846   0.047  46.200  0.00  0.00    +0.025 A 
ATOM     31  C   UNL     1       7.619  -0.819  45.408  0.00  0.00    +0.011 A 
ATOM     32  C   UNL     1       7.050  -2.002  44.931  0.00  0.00    +0.034 A 
ATOM     33 CL   UNL     1       7.982  -3.080  43.971  0.00  0.00    -0.081 Cl
ATOM     34  C   UNL     1       5.724  -2.323  45.228  0.00  0.00    +0.027 A 
ENDROOT
BRANCH  14  15
ATOM     15  C   UNL     1       1.428  -1.221  47.490  0.00  0.00    +0.117 A 
ATOM     16  N   UNL     1       0.674  -0.369  48.281  0.00  0.00    -0.332 NA
ATOM     17  C   UNL     1      -0.581  -0.905  48.435  0.00  0.00    +0.017 A 
ATOM     18  C   UNL     1      -1.721  -0.471  49.129  0.00  0.00    -0.014 A 
ATOM     19  C   UNL     1      -2.859  -1.300  49.060  0.00  0.00    -0.028 A 
ATOM     20  C   UNL     1      -2.847  -2.502  48.334  0.00  0.00    -0.025 A 
ATOM     21  C   UNL     1      -1.691  -2.913  47.650  0.00  0.00    +0.010 A 
ATOM     22  C   UNL     1      -0.541  -2.094  47.709  0.00  0.00    +0.074 A 
ATOM     23  N   UNL     1       0.691  -2.272  47.133  0.00  0.00    -0.259 N 
ATOM     24  H   UNL     1       0.988  -3.062  46.542  0.00  0.00    +0.226 HD
ENDBRANCH  14  15
BRANCH   2   3
ATOM      3  N   UNL     1       2.896  -2.940  45.868  0.00  0.00    -0.295 N 
ATOM      4  H   UNL     1       2.419  -3.502  46.588  0.00  0.00    +0.191 HD
BRANCH   3   5
ATOM      5  C   UNL     1       2.812  -3.502  44.528  0.00  0.00    +0.148 C 
ATOM      6  C   UNL     1       3.010  -5.040  44.564  0.00  0.00    +0.031 C 
ATOM      7  C   UNL     1       1.883  -5.698  45.382  0.00  0.00    +0.057 C 
ATOM      8  C   UNL     1       0.515  -5.369  44.776  0.00  0.00    +0.131 C 
ATOM      9  N   UNL     1       0.718  -4.495  43.542  0.00  0.00    +0.237 N 
ATOM     10  H   UNL     1      -0.184  -4.279  43.148  0.00  0.00    +0.203 HD
ATOM     11  C   UNL     1       1.540  -5.244  42.506  0.00  0.00    +0.131 C 
ATOM     12  C   UNL     1       2.913  -5.570  43.113  0.00  0.00    +0.057 C 
ATOM     13  C   UNL     1       1.417  -3.186  43.915  0.00  0.00    +0.161 C 
ENDBRANCH   3   5
ENDBRANCH   2   3
TORSDOF 3
