REMARK  Name = 2xvd_ligand
REMARK  12 active torsions:
REMARK  status: ('A' for Active; 'I' for Inactive)
REMARK    1  A    between atoms: C1_1  and  C2_2
REMARK    2  A    between atoms: C2_2  and  C3_3
REMARK    3  A    between atoms: C2_2  and  N1_4
REMARK    4  A    between atoms: N1_4  and  C4_5
REMARK    5  A    between atoms: N1_4  and  C19_28
REMARK    6  A    between atoms: N3_10  and  C8_11
REMARK    7  A    between atoms: C10_13  and  N4_21
REMARK    8  A    between atoms: C12_15  and  S1_17
REMARK    9  A    between atoms: S1_17  and  C14_20
REMARK   10  A    between atoms: C21_30  and  C22_31
REMARK   11  A    between atoms: C22_31  and  O4_32
REMARK   12  A    between atoms: C25_35  and  C26_36
REMARK                            x       y       z     vdW  Elec       q    Type
REMARK                         _______ _______ _______ _____ _____    ______ ____
ROOT
ATOM     14  C   UNL     1      11.557   4.779  12.225  0.00  0.00    +0.135 A 
ATOM     15  N   UNL     1      12.061   5.995  11.947  0.00  0.00    -0.235 NA
ATOM     16  C   UNL     1      13.399   6.112  11.960  0.00  0.00    +0.195 A 
ATOM     17  N   UNL     1      14.005   7.355  11.687  0.00  0.00    -0.247 N 
ATOM     18  H   UNL     1      15.013   7.419  11.832  0.00  0.00    +0.217 HD
ATOM     35  N   UNL     1      14.234   5.105  12.226  0.00  0.00    -0.269 NA
ATOM     36  C   UNL     1      13.707   3.898  12.500  0.00  0.00    +0.086 A 
ATOM     37  C   UNL     1      12.361   3.685  12.510  0.00  0.00    +0.056 A 
ENDROOT
BRANCH  17  19
ATOM     19  C   UNL     1      13.349   8.520  11.232  0.00  0.00    +0.055 A 
ATOM     20  C   UNL     1      12.041   8.538  10.763  0.00  0.00    +0.018 A 
ATOM     21  C   UNL     1      11.508   9.743  10.341  0.00  0.00    +0.068 A 
ATOM     26  C   UNL     1      12.237  10.908  10.372  0.00  0.00    +0.013 A 
ATOM     27  C   UNL     1      13.536  10.898  10.832  0.00  0.00    +0.032 A 
ATOM     34  C   UNL     1      14.077   9.696  11.258  0.00  0.00    +0.021 A 
BRANCH  27  28
ATOM     28  N   UNL     1      14.240  12.110  10.849  0.00  0.00    -0.307 N 
ATOM     29  C   UNL     1      13.901  12.919   9.685  0.00  0.00    +0.157 C 
ATOM     30  C   UNL     1      14.476  14.282   9.966  0.00  0.00    +0.183 C 
ATOM     31  O   UNL     1      15.892  14.110  10.108  0.00  0.00    -0.376 OA
ATOM     32  C   UNL     1      16.179  13.393  11.315  0.00  0.00    +0.183 C 
ATOM     33  C   UNL     1      15.639  11.989  11.162  0.00  0.00    +0.157 C 
ENDBRANCH  27  28
BRANCH  21  22
ATOM     22  S   UNL     1       9.834   9.868   9.715  0.00  0.00    -0.011 S 
ATOM     23  C   UNL     1       8.800   9.119  10.936  0.00  0.00    +0.200 C 
ATOM     24  O   UNL     1       9.807   9.046   8.501  0.00  0.00    -0.170 OA
ATOM     25  O   UNL     1       9.517  11.292   9.636  0.00  0.00    -0.170 OA
ENDBRANCH  21  22
ENDBRANCH  17  19
BRANCH  14   3
ATOM      3  N   UNL     1      10.149   4.581  12.235  0.00  0.00    -0.244 N 
BRANCH   3   4
ATOM      4  C   UNL     1       9.524   3.332  12.434  0.00  0.00    +0.063 A 
ATOM      5  C   UNL     1       9.311   2.819  13.707  0.00  0.00    -0.028 A 
ATOM      6  C   UNL     1       9.738   3.573  14.923  0.00  0.00    +0.070 C 
ATOM      7  C   UNL     1       8.691   1.592  13.868  0.00  0.00    -0.025 A 
ATOM      8  C   UNL     1       8.272   0.871  12.773  0.00  0.00    -0.032 A 
ATOM      9  C   UNL     1       8.486   1.368  11.503  0.00  0.00    -0.034 A 
ATOM     13  C   UNL     1       9.110   2.587  11.341  0.00  0.00    +0.005 A 
BRANCH   9  10
ATOM     10  C   UNL     1       8.042   0.617  10.280  0.00  0.00    +0.214 C 
BRANCH  10  11
ATOM     11  O   UNL     1       8.661  -0.665  10.241  0.00  0.00    -0.384 OA
ATOM     12  H   UNL     1       8.370  -1.136   9.456  0.00  0.00    +0.212 HD
ENDBRANCH  10  11
ENDBRANCH   9  10
ENDBRANCH   3   4
BRANCH   3   2
ATOM      1  C   UNL     1       9.422   5.662  10.096  0.00  0.00    +0.039 C 
ATOM      2  C   UNL     1       9.346   5.646  11.612  0.00  0.00    +0.114 C 
ATOM     38  C   UNL     1       7.896   5.655  12.078  0.00  0.00    +0.039 C 
ENDBRANCH   3   2
ENDBRANCH  14   3
TORSDOF 8
