REMARK  Name = 3qrj_ligand
REMARK  11 active torsions:
REMARK  status: ('A' for Active; 'I' for Inactive)
REMARK    1  A    between atoms: C1_1  and  N49_26
REMARK    2  A    between atoms: C24_13  and  C70_34
REMARK    3  A    between atoms: C26_15  and  O65_32
REMARK    4  A    between atoms: C36_19  and  O65_32
REMARK    5  A    between atoms: C39_22  and  N60_30
REMARK    6  A    between atoms: C46_23  and  C79_38
REMARK    7  A    between atoms: C48_25  and  N56_28
REMARK    8  A    between atoms: N74_36  and  C76_37
REMARK    9  A    between atoms: C79_38  and  C81_39
REMARK   10  A    between atoms: C79_38  and  C83_40
REMARK   11  A    between atoms: C79_38  and  C85_41
REMARK                            x       y       z     vdW  Elec       q    Type
REMARK                         _______ _______ _______ _____ _____    ______ ____
ROOT
ATOM     11  N   UNL     1       4.723 -10.184  27.268  0.00  0.00    -0.180 N 
ATOM     12  H   UNL     1       4.211  -9.552  27.883  0.00  0.00    +0.234 HD
ATOM     13  C   UNL     1       4.698 -11.507  27.541  0.00  0.00    +0.320 C 
ATOM     14  O   UNL     1       5.458 -12.285  26.964  0.00  0.00    -0.380 OA
ATOM     15  N   UNL     1       3.773 -11.909  28.438  0.00  0.00    -0.218 N 
ATOM     16  H   UNL     1       3.085 -11.217  28.735  0.00  0.00    +0.222 HD
ENDROOT
BRANCH  15  17
ATOM     17  C   UNL     1       3.674 -13.161  28.986  0.00  0.00    +0.092 A 
ATOM     18  C   UNL     1       2.792 -13.294  30.038  0.00  0.00    +0.145 A 
ATOM     19  F   UNL     1       2.101 -12.212  30.432  0.00  0.00    -0.196 F 
ATOM     20  C   UNL     1       2.619 -14.508  30.688  0.00  0.00    +0.044 A 
ATOM     21  C   UNL     1       3.333 -15.618  30.295  0.00  0.00    +0.103 A 
ATOM     34  C   UNL     1       4.214 -15.514  29.221  0.00  0.00    +0.004 A 
ATOM     35  C   UNL     1       4.369 -14.304  28.568  0.00  0.00    -0.003 A 
BRANCH  21  22
ATOM     22  O   UNL     1       3.143 -16.787  30.970  0.00  0.00    -0.257 OA
BRANCH  22  23
ATOM     23  C   UNL     1       3.261 -18.069  30.451  0.00  0.00    +0.138 A 
ATOM     24  C   UNL     1       2.763 -18.428  29.206  0.00  0.00    +0.070 A 
ATOM     25  C   UNL     1       2.877 -19.736  28.739  0.00  0.00    +0.086 A 
ATOM     26  N   UNL     1       3.436 -20.700  29.509  0.00  0.00    -0.292 NA
ATOM     27  C   UNL     1       3.938 -20.376  30.740  0.00  0.00    +0.112 A 
ATOM     33  C   UNL     1       3.841 -19.069  31.231  0.00  0.00    +0.088 A 
BRANCH  27  28
ATOM     28  C   UNL     1       4.600 -21.423  31.584  0.00  0.00    +0.221 C 
ATOM     29  N   UNL     1       4.249 -22.686  31.357  0.00  0.00    -0.287 N 
ATOM     30  H   UNL     1       3.752 -22.898  30.492  0.00  0.00    +0.184 HD
ATOM     31  C   UNL     1       4.533 -23.782  32.271  0.00  0.00    +0.164 C 
ATOM     32  O   UNL     1       5.388 -21.056  32.467  0.00  0.00    -0.379 OA
ENDBRANCH  27  28
ENDBRANCH  22  23
ENDBRANCH  21  22
ENDBRANCH  15  17
BRANCH  11  10
ATOM      2  N   UNL     1       5.699  -8.329  26.121  0.00  0.00    -0.101 N 
ATOM      3  N   UNL     1       6.359  -8.012  24.909  0.00  0.00    -0.165 NA
ATOM      4  C   UNL     1       6.427  -9.238  24.325  0.00  0.00    -0.003 A 
ATOM      9  C   UNL     1       5.804 -10.241  25.004  0.00  0.00    +0.004 A 
ATOM     10  C   UNL     1       5.400  -9.653  26.209  0.00  0.00    +0.220 A 
BRANCH   2   1
ATOM      1  C   UNL     1       5.469  -7.346  27.040  0.00  0.00    +0.135 A 
ATOM     36  C   UNL     1       5.732  -7.524  28.409  0.00  0.00    +0.056 A 
ATOM     37  C   UNL     1       5.491  -6.558  29.375  0.00  0.00    +0.005 A 
ATOM     38  C   UNL     1       5.785  -6.837  30.708  0.00  0.00    +0.039 A 
ATOM     39  C   UNL     1       5.539  -5.846  31.656  0.00  0.00    +0.036 A 
ATOM     40  C   UNL     1       5.005  -4.622  31.246  0.00  0.00    +0.094 A 
ATOM     41  N   UNL     1       4.745  -4.374  29.944  0.00  0.00    -0.297 NA
ATOM     42  C   UNL     1       4.960  -5.319  29.005  0.00  0.00    +0.044 A 
ATOM     43  C   UNL     1       4.686  -5.081  27.666  0.00  0.00    +0.027 A 
ATOM     44  C   UNL     1       4.936  -6.080  26.709  0.00  0.00    +0.054 A 
ENDBRANCH   2   1
BRANCH   4   5
ATOM      5  C   UNL     1       7.011  -9.465  22.939  0.00  0.00    -0.045 C 
ATOM      6  C   UNL     1       7.198  -8.107  22.307  0.00  0.00    -0.045 C 
ATOM      7  C   UNL     1       8.204 -10.411  23.015  0.00  0.00    -0.045 C 
ATOM      8  C   UNL     1       6.021 -10.131  22.005  0.00  0.00    -0.045 C 
ENDBRANCH   4   5
ENDBRANCH  11  10
TORSDOF 7
