REMARK  Name = A4N
REMARK  4 active torsions:
REMARK  status: ('A' for Active; 'I' for Inactive)
REMARK    1  A    between atoms: C10_4  and  C11_5
REMARK    2  A    between atoms: C7_9  and  C6_10
REMARK    3  A    between atoms: C10_20  and  C11_21
REMARK    4  A    between atoms: C7_25  and  C6_26
REMARK                            x       y       z     vdW  Elec       q    Type
REMARK                         _______ _______ _______ _____ _____    ______ ____
ROOT
ATOM      1 CL   UNL     1      -4.956 164.003 396.909  0.00  0.00    -0.082 Cl
ATOM      2  C   UNL     1      -3.689 164.524 397.964  0.00  0.00    +0.057 A 
ATOM      3  C   UNL     1      -4.007 165.230 399.116  0.00  0.00    +0.010 A 
ATOM      4  C   UNL     1      -2.951 165.672 399.909  0.00  0.00    +0.001 A 
ATOM      5  C   UNL     1      -1.642 165.380 399.571  0.00  0.00    -0.003 A 
ATOM      6  C   UNL     1      -1.337 164.640 398.440  0.00  0.00    -0.002 A 
ATOM     16  C   UNL     1      -2.386 164.225 397.628  0.00  0.00    +0.009 A 
ENDROOT
BRANCH   3   9
ATOM      9  C   UNL     1      -5.420 165.431 399.549  0.00  0.00    -0.003 A 
ATOM     10  C   UNL     1      -6.055 164.535 400.424  0.00  0.00    -0.022 A 
ATOM     11  C   UNL     1      -5.293 163.462 401.159  0.00  0.00    +0.031 C 
ATOM     12  C   UNL     1      -7.427 164.678 400.630  0.00  0.00    -0.004 A 
ATOM     13  C   UNL     1      -8.149 165.680 400.010  0.00  0.00    -0.000 A 
ATOM     14  C   UNL     1      -7.517 166.566 399.176  0.00  0.00    -0.000 A 
ATOM     15  C   UNL     1      -6.158 166.451 398.947  0.00  0.00    -0.000 A 
ENDBRANCH   3   9
BRANCH   6   7
ATOM      7  C   UNL     1       0.111 164.257 398.167  0.00  0.00    +0.136 C 
ATOM      8  N   UNL     1       0.527 164.165 396.768  0.00  0.00    -0.126 NA
ENDBRANCH   6   7
TORSDOF 2
