REMARK  Name = 2ou7_ligand
REMARK  11 active torsions:
REMARK  status: ('A' for Active; 'I' for Inactive)
REMARK    1  A    between atoms: PG_1  and  N3B_8
REMARK    2  A    between atoms: PB_5  and  N3B_8
REMARK    3  A    between atoms: PB_5  and  O3A_12
REMARK    4  A    between atoms: PA_9  and  O3A_12
REMARK    5  A    between atoms: PA_9  and  O5'_13
REMARK    6  A    between atoms: O5'_13  and  C5'_14
REMARK    7  A    between atoms: C5'_14  and  C4'_15
REMARK    8  A    between atoms: C3'_17  and  O3'_18
REMARK    9  A    between atoms: C2'_19  and  O2'_20
REMARK   10  A    between atoms: C1'_21  and  N9_22
REMARK   11  A    between atoms: C6_26  and  N6_27
REMARK                            x       y       z     vdW  Elec       q    Type
REMARK                         _______ _______ _______ _____ _____    ______ ____
ROOT
ATOM      9  C   UNL     1      42.252  10.336  37.079  0.00  0.00    +0.184 C 
ATOM     10  C   UNL     1      41.448   9.844  38.320  0.00  0.00    +0.180 C 
ATOM     11  C   UNL     1      42.349  10.271  39.476  0.00  0.00    +0.206 C 
ATOM     12  C   UNL     1      42.648  11.620  38.844  0.00  0.00    +0.301 C 
ATOM     29  O   UNL     1      43.117  11.392  37.534  0.00  0.00    -0.336 OA
ENDROOT
BRANCH  12  13
ATOM     13  N   UNL     1      42.418  12.897  39.512  0.00  0.00    -0.192 N 
ATOM     14  C   UNL     1      42.928  13.382  40.702  0.00  0.00    +0.161 A 
ATOM     15  N   UNL     1      43.800  12.778  41.562  0.00  0.00    -0.271 NA
ATOM     16  C   UNL     1      44.078  13.554  42.621  0.00  0.00    +0.153 A 
ATOM     17  N   UNL     1      43.600  14.780  42.873  0.00  0.00    -0.270 NA
ATOM     18  C   UNL     1      42.741  15.342  42.002  0.00  0.00    +0.130 A 
ATOM     22  C   UNL     1      42.368  14.633  40.852  0.00  0.00    +0.105 A 
ATOM     23  N   UNL     1      41.517  14.954  39.800  0.00  0.00    -0.296 NA
ATOM     24  C   UNL     1      41.583  13.896  39.032  0.00  0.00    +0.247 A 
BRANCH  18  19
ATOM     19  N   UNL     1      42.258  16.554  42.242  0.00  0.00    -0.315 N 
ATOM     20  H   UNL     1      41.599  16.986  41.579  0.00  0.00    +0.182 HD
ATOM     21  H   UNL     1      42.542  17.063  43.092  0.00  0.00    +0.182 HD
ENDBRANCH  18  19
ENDBRANCH  12  13
BRANCH  11  25
ATOM     25  O   UNL     1      43.471   9.413  39.601  0.00  0.00    -0.384 OA
ATOM     26  H   UNL     1      43.173   8.525  39.762  0.00  0.00    +0.210 HD
ENDBRANCH  11  25
BRANCH  10  27
ATOM     27  O   UNL     1      41.178   8.459  38.393  0.00  0.00    -0.386 OA
ATOM     28  H   UNL     1      41.997   7.978  38.408  0.00  0.00    +0.210 HD
ENDBRANCH  10  27
BRANCH   9   8
ATOM      8  C   UNL     1      41.473  10.890  35.859  0.00  0.00    +0.242 C 
BRANCH   8   7
ATOM      7  O   UNL     1      40.112  10.490  35.675  0.00  0.00    -0.248 OA
BRANCH   7   6
ATOM      6  P   UNL     1      39.611  10.365  34.158  0.00  0.00    +0.295 P 
ATOM     30  O   UNL     1      39.974   8.946  33.630  0.00  0.00    -0.613 OA
ATOM     31  O   UNL     1      40.222  11.612  33.436  0.00  0.00    -0.613 OA
BRANCH   6   5
ATOM      5  O   UNL     1      38.016  10.622  34.065  0.00  0.00    -0.143 OA
BRANCH   5   4
ATOM      4  P   UNL     1      37.347   9.933  32.770  0.00  0.00    +0.254 P 
ATOM     32  O   UNL     1      38.158  10.575  31.585  0.00  0.00    -0.626 OA
ATOM     33  O   UNL     1      37.292   8.369  32.903  0.00  0.00    -0.626 OA
BRANCH   4   2
ATOM      2  N   UNL     1      35.908  10.685  32.197  0.00  0.00    -0.180 NA
ATOM      3  H   UNL     1      35.813  11.679  32.249  0.00  0.00    +0.213 HD
BRANCH   2   1
ATOM      1  P   UNL     1      34.661   9.759  31.550  0.00  0.00    +0.180 P 
ATOM     34  O   UNL     1      33.421  10.671  31.298  0.00  0.00    -0.545 OA
ATOM     35  O   UNL     1      35.486   9.237  30.350  0.00  0.00    -0.545 OA
ATOM     36  O   UNL     1      34.659   8.802  32.769  0.00  0.00    -0.545 OA
ENDBRANCH   2   1
ENDBRANCH   4   2
ENDBRANCH   5   4
ENDBRANCH   6   5
ENDBRANCH   7   6
ENDBRANCH   8   7
ENDBRANCH   9   8
TORSDOF 11
