REMARK  Name = 4cga_ligand
REMARK  7 active torsions:
REMARK  status: ('A' for Active; 'I' for Inactive)
REMARK    1  A    between atoms: CAA_1  and  NAW_2
REMARK    2  A    between atoms: NAW_2  and  CAB_3
REMARK    3  A    between atoms: NAX_9  and  CAR_10
REMARK    4  A    between atoms: CAR_10  and  CAU_11
REMARK    5  A    between atoms: CAT_16  and  CAQ_17
REMARK    6  A    between atoms: CAQ_17  and  CAP_18
REMARK    7  A    between atoms: CAP_18  and  CAS_19
REMARK                            x       y       z     vdW  Elec       q    Type
REMARK                         _______ _______ _______ _____ _____    ______ ____
ROOT
ATOM      8  C   UNL     1     -16.790   9.309   8.706  0.00  0.00    -0.013 A 
ATOM      9  C   UNL     1     -17.077   7.942   8.640  0.00  0.00    -0.010 A 
ATOM     10  C   UNL     1     -16.907   7.218   7.452  0.00  0.00    -0.013 A 
ATOM     11  C   UNL     1     -16.448   7.855   6.295  0.00  0.00    -0.048 A 
ATOM     20  C   UNL     1     -16.139   9.223   6.355  0.00  0.00    -0.013 A 
ATOM     21  C   UNL     1     -16.327   9.937   7.550  0.00  0.00    -0.010 A 
ENDROOT
BRANCH   8   7
ATOM      7  C   UNL     1     -16.966  10.042   9.920  0.00  0.00    +0.287 C 
BRANCH   7   6
ATOM      1  C   UNL     1     -21.085  14.933   9.332  0.00  0.00    +0.150 C 
ATOM      2  N   UNL     1     -21.362  13.485   9.292  0.00  0.00    -0.356 N 
ATOM      3  C   UNL     1     -20.322  12.645   9.465  0.00  0.00    +0.100 A 
ATOM      4  C   UNL     1     -20.474  11.268   9.349  0.00  0.00    +0.150 A 
ATOM      5  C   UNL     1     -19.378  10.425   9.502  0.00  0.00    +0.287 A 
ATOM      6  N   UNL     1     -18.107  10.956   9.782  0.00  0.00    -0.174 N 
ATOM     22  C   UNL     1     -17.939  12.343   9.906  0.00  0.00    +0.287 A 
ATOM     23  C   UNL     1     -19.048  13.163   9.740  0.00  0.00    +0.150 A 
ATOM     24  C   UNL     1     -22.711  12.960   8.958  0.00  0.00    +0.150 C 
ENDBRANCH   7   6
ENDBRANCH   8   7
BRANCH  11  12
ATOM     12  C   UNL     1     -16.247   7.114   5.108  0.00  0.00    +0.074 C 
BRANCH  12  13
ATOM     13  C   UNL     1     -17.427   7.134   4.128  0.00  0.00    +0.079 C 
BRANCH  13  14
ATOM     14  C   UNL     1     -17.155   6.301   3.022  0.00  0.00    -0.041 A 
ATOM     15  C   UNL     1     -18.020   5.250   2.715  0.00  0.00    -0.004 A 
ATOM     16  C   UNL     1     -17.765   4.419   1.620  0.00  0.00    -0.009 A 
ATOM     17  C   UNL     1     -16.641   4.630   0.821  0.00  0.00    -0.013 A 
ATOM     18  C   UNL     1     -15.770   5.683   1.119  0.00  0.00    -0.009 A 
ATOM     19  C   UNL     1     -16.030   6.514   2.213  0.00  0.00    -0.004 A 
ENDBRANCH  13  14
ENDBRANCH  12  13
ENDBRANCH  11  12
TORSDOF 5
