REMARK  Name = 1YOM
REMARK  10 active torsions:
REMARK  status: ('A' for Active; 'I' for Inactive)
REMARK    1  A    between atoms: N_8  and  C_9
REMARK    2  A    between atoms: N_13  and  C_14
REMARK    3  A    between atoms: C_14  and  C_15
REMARK    4  A    between atoms: C_14  and  C_16
REMARK    5  A    between atoms: N_21  and  CA_22
REMARK    6  A    between atoms: CA_22  and  CB_23
REMARK    7  A    between atoms: CA_22  and  C_26
REMARK    8  A    between atoms: CB_23  and  CG1_24
REMARK    9  A    between atoms: CB_23  and  CG2_25
REMARK   10  A    between atoms: C_26  and  O_27
REMARK                            x       y       z     vdW  Elec       q    Type
REMARK                         _______ _______ _______ _____ _____    ______ ____
ROOT
ATOM      8  C   UNK A   0       8.089  -6.908  -5.632  0.00  0.00    +0.186 A 
ATOM      9  N   UNK A   0       7.099  -7.774  -5.291  0.00  0.00    -0.193 NA
ATOM     10  C   UNK A   0       5.825  -7.602  -5.751  0.00  0.00    +0.219 A 
ATOM     11  N   VAL A   1       4.840  -8.466  -5.408  0.00  0.00    -0.308 N 
ATOM     12  H   VAL A   1       3.922  -8.448  -5.957  0.00  0.00    +0.149 HD
ATOM     20  N   UNK A   0       5.498  -6.551  -6.552  0.00  0.00    -0.195 NA
ATOM     21  C   UNK A   0       6.484  -5.695  -6.888  0.00  0.00    +0.168 A 
ATOM     22  N   UNK A   0       6.354  -4.638  -7.661  0.00  0.00    -0.312 N 
ATOM     23  C   UNK A   0       7.570  -4.044  -7.734  0.00  0.00    +0.202 A 
ATOM     24  N   UNK A   0       8.489  -4.778  -6.998  0.00  0.00    -0.230 NA
ATOM     28  C   UNK A   0       7.754  -5.832  -6.462  0.00  0.00    +0.152 A 
ENDROOT
BRANCH   8   7
ATOM      1 CL   UNK A   0       8.995 -11.569  -2.901  0.00  0.00    -0.088 Cl
ATOM      2  C   UNK A   0       9.965 -10.166  -3.412  0.00  0.00    +0.024 C 
ATOM      3  C   UNK A   0      11.335 -10.103  -3.157  0.00  0.00    +0.074 C 
ATOM      4  C   UNK A   0      12.033  -8.984  -3.582  0.00  0.00    -0.019 C 
ATOM      5  C   UNK A   0      11.348  -7.963  -4.255  0.00  0.00    +0.024 C 
ATOM      6  C   UNK A   0       9.969  -8.028  -4.513  0.00  0.00    +0.067 C 
ATOM      7  N   UNK A   0       9.390  -7.008  -5.209  0.00  0.00    -0.226 NA
ATOM     29  C   UNK A   0       9.281  -9.152  -4.072  0.00  0.00    +0.043 C 
ENDBRANCH   8   7
BRANCH  22  25
ATOM     25  C   UNK A   0       4.991  -4.382  -8.191  0.00  0.00    +0.084 C 
ATOM     26  C   UNK A   0       4.510  -2.966  -7.864  0.00  0.00    +0.030 C 
ATOM     27  C   UNK A   0       4.917  -4.736  -9.676  0.00  0.00    +0.030 C 
ENDBRANCH  22  25
BRANCH  11  13
ATOM     13  CA  VAL A   1       4.990  -9.421  -4.315  0.00  0.00    +0.101 C 
BRANCH  13  17
ATOM     17  CB  VAL A   1       4.026 -10.590  -4.532  0.00  0.00    +0.005 C 
ATOM     18  CG2 VAL A   1       4.125 -11.610  -3.399  0.00  0.00    +0.009 C 
ATOM     19  CG1 VAL A   1       4.259 -11.228  -5.905  0.00  0.00    +0.009 C 
ENDBRANCH  13  17
BRANCH  13  14
ATOM     14  C   VAL A   1       4.784  -8.725  -2.964  0.00  0.00    +0.178 C 
BRANCH  14  15
ATOM     15  O   VAL A   1       3.407  -8.654  -2.608  0.00  0.00    -0.393 OA
ATOM     16  H   VAL A   1       2.883  -8.113  -3.340  0.00  0.00    +0.209 HD
ENDBRANCH  14  15
ENDBRANCH  13  14
ENDBRANCH  11  13
TORSDOF 6
