REMARK  Name = 4u79_ligand
REMARK  8 active torsions:
REMARK  status: ('A' for Active; 'I' for Inactive)
REMARK    1  A    between atoms: C23_3  and  N6_4
REMARK    2  A    between atoms: C20_7  and  N5_8
REMARK    3  A    between atoms: C12_14  and  C7_15
REMARK    4  A    between atoms: C11_20  and  O1_21
REMARK    5  A    between atoms: O1_21  and  C3_22
REMARK    6  A    between atoms: C6_31  and  N1_32
REMARK    7  A    between atoms: N1_32  and  S1_33
REMARK    8  A    between atoms: S1_33  and  C26_36
REMARK                            x       y       z     vdW  Elec       q    Type
REMARK                         _______ _______ _______ _____ _____    ______ ____
ROOT
ATOM     10  C   UNL     1      -4.170  25.402 -31.992  0.00  0.00    +0.066 A 
ATOM     11  C   UNL     1      -4.680  24.148 -32.313  0.00  0.00    +0.202 A 
ATOM     34  N   UNL     1      -3.975  23.040 -32.132  0.00  0.00    -0.265 NA
ATOM     35  C   UNL     1      -2.756  23.078 -31.656  0.00  0.00    +0.085 A 
ATOM     36  C   UNL     1      -2.181  24.289 -31.326  0.00  0.00    +0.021 A 
ATOM     37  C   UNL     1      -2.889  25.461 -31.499  0.00  0.00    +0.037 A 
ENDROOT
BRANCH  10   9
ATOM      3  N   UNL     1      -4.028  30.027 -31.914  0.00  0.00    -0.287 N 
ATOM      4  H   UNL     1      -4.408  30.945 -32.185  0.00  0.00    +0.186 HD
ATOM      5  C   UNL     1      -4.736  28.938 -32.126  0.00  0.00    +0.188 A 
ATOM      6  N   UNL     1      -6.000  29.052 -32.500  0.00  0.00    -0.258 NA
ATOM      7  C   UNL     1      -6.717  27.983 -32.712  0.00  0.00    +0.100 A 
ATOM      8  C   UNL     1      -6.158  26.732 -32.558  0.00  0.00    +0.046 A 
ATOM      9  C   UNL     1      -4.842  26.614 -32.168  0.00  0.00    +0.057 A 
ATOM     38  N   UNL     1      -4.173  27.739 -31.965  0.00  0.00    -0.253 NA
BRANCH   3   2
ATOM      1  C   UNL     1      -2.854  29.812 -29.788  0.00  0.00    +0.034 C 
ATOM      2  C   UNL     1      -2.709  29.942 -31.298  0.00  0.00    +0.098 C 
ATOM     39  C   UNL     1      -1.925  31.197 -31.608  0.00  0.00    +0.034 C 
ATOM     40  C   UNL     1      -0.550  31.122 -30.969  0.00  0.00    +0.056 C 
ATOM     41  C   UNL     1      -0.642  30.931 -29.456  0.00  0.00    +0.061 C 
ATOM     46  C   UNL     1      -1.493  29.715 -29.125  0.00  0.00    +0.056 C 
BRANCH  41  42
ATOM     42  N   UNL     1       0.699  30.727 -28.916  0.00  0.00    +0.221 N 
ATOM     43  H   UNL     1       0.644  30.610 -27.916  0.00  0.00    +0.200 HD
ATOM     44  H   UNL     1       1.106  29.903 -29.329  0.00  0.00    +0.200 HD
ATOM     45  H   UNL     1       1.273  31.528 -29.130  0.00  0.00    +0.200 HD
ENDBRANCH  41  42
ENDBRANCH   3   2
ENDBRANCH  10   9
BRANCH  11  12
ATOM     12  O   UNL     1      -5.906  24.056 -32.816  0.00  0.00    -0.244 OA
BRANCH  12  13
ATOM     13  C   UNL     1      -6.607  22.927 -33.022  0.00  0.00    +0.113 A 
ATOM     14  C   UNL     1      -7.284  22.797 -34.225  0.00  0.00    +0.009 A 
ATOM     15  C   UNL     1      -8.061  21.677 -34.462  0.00  0.00    +0.003 A 
ATOM     16  C   UNL     1      -8.165  20.685 -33.495  0.00  0.00    +0.066 A 
ATOM     28  C   UNL     1      -7.499  20.834 -32.297  0.00  0.00    -0.018 A 
ATOM     29  C   UNL     1      -8.714  21.569 -35.677  0.00  0.00    +0.002 A 
ATOM     30  C   UNL     1      -8.589  22.567 -36.637  0.00  0.00    -0.010 A 
ATOM     31  C   UNL     1      -7.818  23.681 -36.396  0.00  0.00    -0.009 A 
ATOM     32  C   UNL     1      -7.171  23.789 -35.188  0.00  0.00    -0.000 A 
ATOM     33  C   UNL     1      -6.726  21.952 -32.055  0.00  0.00    -0.002 A 
BRANCH  16  17
ATOM     17  N   UNL     1      -8.903  19.601 -33.683  0.00  0.00    -0.188 N 
ATOM     18  H   UNL     1      -9.878  19.637 -33.465  0.00  0.00    +0.218 HD
BRANCH  17  19
ATOM     19  S   UNL     1      -8.283  18.224 -34.252  0.00  0.00    +0.090 S 
ATOM     26  O   UNL     1      -7.139  18.549 -35.117  0.00  0.00    -0.144 OA
ATOM     27  O   UNL     1      -9.336  17.523 -35.012  0.00  0.00    -0.144 OA
BRANCH  19  20
ATOM     20  C   UNL     1      -7.674  17.204 -33.052  0.00  0.00    +0.114 A 
ATOM     21  C   UNL     1      -6.686  16.301 -33.410  0.00  0.00    +0.029 A 
ATOM     22  C   UNL     1      -6.166  15.455 -32.447  0.00  0.00    +0.002 A 
ATOM     23  C   UNL     1      -6.639  15.523 -31.143  0.00  0.00    +0.000 A 
ATOM     24  C   UNL     1      -7.633  16.425 -30.798  0.00  0.00    +0.002 A 
ATOM     25  C   UNL     1      -8.155  17.273 -31.754  0.00  0.00    +0.029 A 
ENDBRANCH  19  20
ENDBRANCH  17  19
ENDBRANCH  16  17
ENDBRANCH  12  13
ENDBRANCH  11  12
TORSDOF 8
