REMARK  Name = 3lfs_ligand
REMARK  5 active torsions:
REMARK  status: ('A' for Active; 'I' for Inactive)
REMARK    1  A    between atoms: C1_1  and  C17_13
REMARK    2  A    between atoms: C22_16  and  N23_17
REMARK    3  A    between atoms: C24_18  and  C25_19
REMARK    4  A    between atoms: C25_19  and  C26_20
REMARK    5  A    between atoms: C26_20  and  C29_21
REMARK                            x       y       z     vdW  Elec       q    Type
REMARK                         _______ _______ _______ _____ _____    ______ ____
ROOT
ATOM      2  C   UNL     1      39.868  -8.636  24.640  0.00  0.00    -0.003 A 
ATOM      3  C   UNL     1      40.956  -9.458  24.959  0.00  0.00    +0.033 A 
ATOM      4  C   UNL     1      41.435 -10.396  24.032  0.00  0.00    +0.078 A 
ATOM      5  C   UNL     1      42.477 -11.321  23.968  0.00  0.00    +0.267 A 
ATOM     13  N   UNL     1      42.429 -11.889  22.766  0.00  0.00    -0.260 N 
ATOM     14  H   UNL     1      43.029 -12.669  22.461  0.00  0.00    +0.246 HD
ATOM     15  N   UNL     1      41.561 -11.349  22.064  0.00  0.00    -0.452 NA
ATOM     16  C   UNL     1      40.869 -10.453  22.762  0.00  0.00    -0.056 A 
ATOM     17  C   UNL     1      39.816  -9.603  22.415  0.00  0.00    +0.009 A 
ATOM     18  C   UNL     1      39.315  -8.695  23.351  0.00  0.00    +0.048 A 
ATOM     19 CL   UNL     1      37.980  -7.688  22.898  0.00  0.00    -0.070 Cl
ENDROOT
BRANCH   2   1
ATOM      1  C   UNL     1      39.427  -7.687  25.562  0.00  0.00    -0.018 A 
ATOM     20  C   UNL     1      38.183  -7.805  26.190  0.00  0.00    +0.008 A 
ATOM     21  C   UNL     1      37.764  -6.832  27.106  0.00  0.00    +0.001 A 
ATOM     22  C   UNL     1      38.575  -5.725  27.379  0.00  0.00    +0.000 A 
ATOM     23  C   UNL     1      39.820  -5.607  26.754  0.00  0.00    +0.001 A 
ATOM     24  C   UNL     1      40.244  -6.587  25.851  0.00  0.00    +0.008 A 
ENDBRANCH   2   1
BRANCH   5   6
ATOM      6  N   UNL     1      43.329 -11.759  24.918  0.00  0.00    -0.155 N 
ATOM      7  H   UNL     1      43.943 -12.496  24.635  0.00  0.00    +0.270 HD
ATOM      8  C   UNL     1      43.473 -11.349  26.189  0.00  0.00    +0.235 C 
ATOM      9  O   UNL     1      42.830 -10.459  26.745  0.00  0.00    -0.370 OA
BRANCH   8  10
ATOM     10  C   UNL     1      44.544 -12.111  26.981  0.00  0.00    +0.152 C 
BRANCH  10  11
ATOM     11  C   UNL     1      45.923 -11.440  26.932  0.00  0.00    +0.020 C 
ATOM     12  C   UNL     1      45.856  -9.934  27.215  0.00  0.00    +0.006 C 
ENDBRANCH  10  11
ENDBRANCH   8  10
ENDBRANCH   5   6
TORSDOF 4
