REMARK  Name = 1pxj_ligand
REMARK  3 active torsions:
REMARK  status: ('A' for Active; 'I' for Inactive)
REMARK    1  A    between atoms: C7A_1  and  C3A_2
REMARK    2  A    between atoms: C1A_5  and  C6A_6
REMARK    3  A    between atoms: C5A_7  and  C4_8
REMARK                            x       y       z     vdW  Elec       q    Type
REMARK                         _______ _______ _______ _____ _____    ______ ____
ROOT
ATOM      6  C   UNL     1      12.749  45.456  24.400  0.00  0.00    +0.041 A 
ATOM      7  C   UNL     1      11.800  46.449  24.639  0.00  0.00    +0.030 A 
ATOM      8  C   UNL     1      11.415  47.181  23.542  0.00  0.00    +0.086 A 
ATOM      9  N   UNL     1      11.938  46.958  22.310  0.00  0.00    -0.269 NA
ATOM     10  C   UNL     1      12.827  45.997  22.250  0.00  0.00    +0.173 A 
ATOM     11  N   UNL     1      13.304  45.703  21.079  0.00  0.00    -0.306 N 
ATOM     12  H   UNL     1      12.981  46.218  20.247  0.00  0.00    +0.182 HD
ATOM     13  H   UNL     1      14.005  44.955  20.982  0.00  0.00    +0.182 HD
ATOM     14  N   UNL     1      13.262  45.273  23.187  0.00  0.00    -0.269 NA
ENDROOT
BRANCH   6   5
ATOM      1  C   UNL     1      14.400  43.331  29.085  0.00  0.00    +0.164 C 
ATOM      2  C   UNL     1      13.948  43.745  27.685  0.00  0.00    +0.097 A 
ATOM      3  N   UNL     1      13.895  42.920  26.763  0.00  0.00    -0.296 NA
ATOM      4  C   UNL     1      13.485  43.356  25.574  0.00  0.00    +0.015 A 
ATOM      5  C   UNL     1      13.201  44.639  25.529  0.00  0.00    +0.067 A 
ATOM     15  C   UNL     1      13.495  42.313  24.624  0.00  0.00    +0.102 C 
ATOM     16  S   UNL     1      13.454  45.233  27.146  0.00  0.00    -0.001 S 
ENDBRANCH   6   5
TORSDOF 1
