REMARK  Name = 4ppc_ligand
REMARK  10 active torsions:
REMARK  status: ('A' for Active; 'I' for Inactive)
REMARK    1  A    between atoms: C1_1  and  N2_2
REMARK    2  A    between atoms: N2_2  and  C3_3
REMARK    3  A    between atoms: N2_2  and  C4_4
REMARK    4  A    between atoms: C4_4  and  C5_5
REMARK    5  A    between atoms: C5_5  and  C6_6
REMARK    6  A    between atoms: C6_6  and  C8_7
REMARK    7  A    between atoms: C6_6  and  N14_13
REMARK    8  A    between atoms: C16_15  and  N19_18
REMARK    9  A    between atoms: C20_19  and  C22_21
REMARK   10  A    between atoms: C26_25  and  C32_30
REMARK                            x       y       z     vdW  Elec       q    Type
REMARK                         _______ _______ _______ _____ _____    ______ ____
ROOT
ATOM     11  N   UNL     1      16.245 -27.222 -44.039  0.00  0.00    -0.253 N 
ATOM     12  H   UNL     1      16.369 -27.276 -43.048  0.00  0.00    +0.212 HD
ATOM     13  C   UNL     1      17.340 -26.893 -44.772  0.00  0.00    +0.231 C 
ATOM     30  O   UNL     1      17.319 -26.822 -45.988  0.00  0.00    -0.380 OA
ENDROOT
BRANCH  13  14
ATOM     14  C   UNL     1      18.600 -26.614 -44.057  0.00  0.00    +0.136 A 
ATOM     15  N   UNL     1      18.745 -26.497 -42.752  0.00  0.00    -0.179 NA
ATOM     16  N   UNL     1      19.956 -26.241 -42.418  0.00  0.00    -0.207 N 
ATOM     17  H   UNL     1      20.279 -26.127 -41.447  0.00  0.00    +0.249 HD
ATOM     18  C   UNL     1      20.764 -26.138 -43.518  0.00  0.00    +0.087 A 
ATOM     19  C   UNL     1      22.125 -25.876 -43.712  0.00  0.00    +0.015 A 
ATOM     20  C   UNL     1      22.647 -25.829 -45.011  0.00  0.00    -0.043 A 
ATOM     27  C   UNL     1      21.799 -26.060 -46.120  0.00  0.00    -0.020 A 
ATOM     28  C   UNL     1      20.464 -26.337 -45.942  0.00  0.00    -0.007 A 
ATOM     29  C   UNL     1      19.929 -26.375 -44.643  0.00  0.00    +0.024 A 
BRANCH  20  21
ATOM     21  C   UNL     1      24.096 -25.541 -45.218  0.00  0.00    -0.002 A 
ATOM     22  C   UNL     1      25.031 -25.192 -44.221  0.00  0.00    +0.073 A 
ATOM     23  N   UNL     1      26.197 -25.015 -44.786  0.00  0.00    -0.216 NA
ATOM     24  N   UNL     1      26.058 -25.231 -46.160  0.00  0.00    -0.217 N 
ATOM     25  H   UNL     1      26.808 -25.159 -46.862  0.00  0.00    +0.260 HD
ATOM     26  C   UNL     1      24.772 -25.550 -46.407  0.00  0.00    +0.165 A 
ENDBRANCH  20  21
ENDBRANCH  13  14
BRANCH  11  10
ATOM      7  N   UNL     1      13.212 -28.014 -45.772  0.00  0.00    -0.208 N 
ATOM      8  N   UNL     1      12.749 -27.683 -44.492  0.00  0.00    -0.223 NA
ATOM      9  C   UNL     1      13.779 -27.371 -43.763  0.00  0.00    +0.082 A 
ATOM     10  C   UNL     1      14.947 -27.497 -44.530  0.00  0.00    +0.074 A 
ATOM     31  C   UNL     1      14.567 -27.906 -45.771  0.00  0.00    +0.139 A 
BRANCH   7   6
ATOM      6  C   UNL     1      12.385 -28.454 -46.900  0.00  0.00    +0.198 C 
BRANCH   6  32
ATOM     32  C   UNL     1      12.519 -29.947 -47.093  0.00  0.00    -0.009 A 
ATOM     33  C   UNL     1      12.440 -30.833 -46.010  0.00  0.00    -0.001 A 
ATOM     34  C   UNL     1      12.536 -32.203 -46.222  0.00  0.00    -0.009 A 
ATOM     35  C   UNL     1      12.699 -32.682 -47.518  0.00  0.00    -0.013 A 
ATOM     36  C   UNL     1      12.774 -31.810 -48.601  0.00  0.00    -0.009 A 
ATOM     37  C   UNL     1      12.680 -30.439 -48.386  0.00  0.00    -0.001 A 
ENDBRANCH   6  32
BRANCH   6   5
ATOM      5  C   UNL     1      10.907 -28.123 -46.653  0.00  0.00    +0.103 C 
BRANCH   5   4
ATOM      4  C   UNL     1      10.317 -27.277 -47.790  0.00  0.00    +0.136 C 
BRANCH   4   2
ATOM      1  C   UNL     1       9.241 -25.862 -45.998  0.00  0.00    +0.190 C 
ATOM      2  N   UNL     1       9.809 -25.957 -47.359  0.00  0.00    +0.231 N 
ATOM      3  H   UNL     1       9.022 -25.786 -47.965  0.00  0.00    +0.203 HD
ATOM     38  C   UNL     1      10.760 -24.875 -47.652  0.00  0.00    +0.190 C 
ENDBRANCH   4   2
ENDBRANCH   5   4
ENDBRANCH   6   5
ENDBRANCH   7   6
ENDBRANCH  11  10
TORSDOF 8
