REMARK  Name = 5UKM
REMARK  7 active torsions:
REMARK  status: ('A' for Active; 'I' for Inactive)
REMARK    1  A    between atoms: C_2  and  C_10
REMARK    2  A    between atoms: N_3  and  C_4
REMARK    3  A    between atoms: C_4  and  C_5
REMARK    4  A    between atoms: C_14  and  C_17
REMARK    5  A    between atoms: C_18  and  C_23
REMARK    6  A    between atoms: C_23  and  O_24
REMARK    7  A    between atoms: O_24  and  C_25
REMARK                            x       y       z     vdW  Elec       q    Type
REMARK                         _______ _______ _______ _____ _____    ______ ____
ROOT
ATOM      3  C   UNL     1     -30.157 -44.635  -2.497  0.00  0.00    +0.072 A 
ATOM      4  C   UNL     1     -30.243 -44.598  -3.896  0.00  0.00    +0.019 A 
ATOM      5  C   UNL     1     -31.234 -43.854  -4.554  0.00  0.00    -0.043 A 
ATOM     24  C   UNL     1     -32.146 -43.135  -3.771  0.00  0.00    +0.007 A 
ATOM     25  C   UNL     1     -32.071 -43.173  -2.373  0.00  0.00    +0.039 A 
ATOM     26  C   UNL     1     -31.082 -43.925  -1.724  0.00  0.00    +0.136 A 
ATOM     27  F   UNL     1     -31.035 -43.940  -0.373  0.00  0.00    -0.205 F 
ENDROOT
BRANCH   5   6
ATOM      6  C   UNL     1     -31.317 -43.790  -6.050  0.00  0.00    +0.027 C 
ATOM      7  C   UNL     1     -31.295 -45.171  -6.690  0.00  0.00    +0.023 C 
ATOM      8  C   UNL     1     -31.303 -45.034  -8.208  0.00  0.00    +0.081 C 
ATOM      9  N   UNL     1     -30.091 -44.321  -8.637  0.00  0.00    -0.316 NA
ATOM     10  H   UNL     1     -29.229 -44.823  -8.249  0.00  0.00    +0.122 HD
ATOM     11  C   UNL     1     -30.115 -42.947  -8.139  0.00  0.00    +0.087 C 
ATOM     12  C   UNL     1     -30.166 -42.952  -6.615  0.00  0.00    +0.036 C 
BRANCH  12  13
ATOM     13  C   UNL     1     -30.194 -41.500  -6.150  0.00  0.00    +0.166 C 
BRANCH  13  14
ATOM     14  O   UNL     1     -31.479 -40.865  -6.151  0.00  0.00    -0.370 OA
BRANCH  14  15
ATOM     15  C   UNL     1     -31.583 -39.489  -6.030  0.00  0.00    +0.108 C 
ATOM     16  C   UNL     1     -32.790 -38.857  -6.374  0.00  0.00    +0.037 C 
ATOM     17  C   UNL     1     -32.939 -37.465  -6.286  0.00  0.00    +0.040 C 
ATOM     18  C   UNL     1     -31.861 -36.720  -5.837  0.00  0.00    +0.140 C 
ATOM     19  O   UNL     1     -31.751 -35.377  -5.658  0.00  0.00    -0.334 OA
ATOM     20  C   UNL     1     -30.387 -35.093  -5.294  0.00  0.00    +0.309 C 
ATOM     21  O   UNL     1     -29.778 -36.371  -5.088  0.00  0.00    -0.334 OA
ATOM     22  C   UNL     1     -30.680 -37.310  -5.495  0.00  0.00    +0.142 C 
ATOM     23  C   UNL     1     -30.511 -38.685  -5.588  0.00  0.00    +0.071 C 
ENDBRANCH  14  15
ENDBRANCH  13  14
ENDBRANCH  12  13
ENDBRANCH   5   6
BRANCH   3   2
ATOM      1  O   UNL     1     -29.416 -46.283  -1.016  0.00  0.00    -0.270 OA
ATOM      2  C   UNL     1     -29.078 -45.491  -1.883  0.00  0.00    +0.247 C 
ATOM     28  N   UNL     1     -27.822 -45.412  -2.345  0.00  0.00    -0.306 N 
ATOM     29  H   UNL     1     -27.597 -44.655  -3.067  0.00  0.00    +0.149 HD
BRANCH  28  30
ATOM     30  C   UNL     1     -26.748 -46.295  -1.922  0.00  0.00    +0.159 C 
BRANCH  30  31
ATOM     31  C   UNL     1     -25.989 -45.625  -0.818  0.00  0.00    +0.053 A 
ATOM     32  C   UNL     1     -25.806 -46.085   0.482  0.00  0.00    +0.045 A 
ATOM     33  C   UNL     1     -25.048 -45.157   1.166  0.00  0.00    +0.134 A 
ATOM     34  N   UNL     1     -24.759 -44.142   0.322  0.00  0.00    -0.182 NA
ATOM     35  N   UNL     1     -25.362 -44.455  -0.901  0.00  0.00    -0.280 N 
ATOM     36  H   UNL     1     -25.324 -43.842  -1.777  0.00  0.00    +0.189 HD
ENDBRANCH  30  31
ENDBRANCH  28  30
ENDBRANCH   3   2
TORSDOF 7
