REMARK  Name = 2wih_ligand
REMARK  8 active torsions:
REMARK  status: ('A' for Active; 'I' for Inactive)
REMARK    1  A    between atoms: C2_2  and  C5_5
REMARK    2  A    between atoms: N3_3  and  C4_4
REMARK    3  A    between atoms: N7_7  and  C8_8
REMARK    4  A    between atoms: C14_14  and  C15_15
REMARK    5  A    between atoms: C14_14  and  C16_16
REMARK    6  A    between atoms: N21_21  and  C22_22
REMARK    7  A    between atoms: C25_25  and  N28_28
REMARK    8  A    between atoms: N31_31  and  C32_32
REMARK                            x       y       z     vdW  Elec       q    Type
REMARK                         _______ _______ _______ _____ _____    ______ ____
ROOT
ATOM      3  C   UNL     1     -14.083 202.257 114.174  0.00  0.00    +0.137 A 
ATOM      4  C   UNL     1     -13.967 202.633 112.735  0.00  0.00    +0.001 A 
ATOM      5  C   UNL     1     -14.833 202.514 111.466  0.00  0.00    -0.050 C 
ATOM      6  C   UNL     1     -14.732 201.074 111.044  0.00  0.00    -0.067 C 
ATOM      7  C   UNL     1     -16.302 202.857 111.702  0.00  0.00    -0.067 C 
ATOM      8  C   UNL     1     -14.324 203.373 110.298  0.00  0.00    +0.027 C 
ATOM      9  C   UNL     1     -12.861 203.855 110.305  0.00  0.00    +0.013 A 
ATOM     10  C   UNL     1     -12.269 204.411 109.154  0.00  0.00    +0.117 A 
ATOM     11  N   UNL     1     -10.973 204.860 109.175  0.00  0.00    -0.245 NA
ATOM     12  C   UNL     1     -10.207 204.807 110.317  0.00  0.00    +0.213 A 
ATOM     13  N   UNL     1      -8.941 205.289 110.321  0.00  0.00    -0.250 N 
ATOM     14  H   UNL     1      -8.619 205.655 109.414  0.00  0.00    +0.213 HD
ATOM     29  N   UNL     1     -10.765 204.270 111.425  0.00  0.00    -0.237 NA
ATOM     30  C   UNL     1     -12.041 203.802 111.451  0.00  0.00    +0.122 A 
ATOM     31  C   UNL     1     -12.614 203.234 112.696  0.00  0.00    +0.157 A 
ATOM     32  N   UNL     1     -12.113 203.185 113.923  0.00  0.00    -0.156 N 
ATOM     33  C   UNL     1     -10.834 203.606 114.543  0.00  0.00    +0.261 C 
ATOM     34  N   UNL     1     -12.981 202.598 114.812  0.00  0.00    -0.153 NA
ENDROOT
BRANCH  13  15
ATOM     15  C   UNL     1      -8.009 205.372 111.339  0.00  0.00    +0.052 A 
ATOM     16  C   UNL     1      -6.636 205.161 111.023  0.00  0.00    +0.001 A 
ATOM     17  C   UNL     1      -5.654 205.263 112.033  0.00  0.00    -0.004 A 
ATOM     18  C   UNL     1      -6.040 205.579 113.384  0.00  0.00    +0.029 A 
ATOM     27  C   UNL     1      -7.407 205.787 113.701  0.00  0.00    -0.004 A 
ATOM     28  C   UNL     1      -8.370 205.686 112.693  0.00  0.00    +0.001 A 
BRANCH  18  19
ATOM     19  N   UNL     1      -5.056 205.687 114.379  0.00  0.00    -0.305 N 
ATOM     20  C   UNL     1      -4.087 204.565 114.465  0.00  0.00    +0.177 C 
ATOM     21  C   UNL     1      -4.157 204.036 115.897  0.00  0.00    +0.155 C 
ATOM     22  N   UNL     1      -4.011 205.268 116.662  0.00  0.00    +0.236 N 
ATOM     23  H   UNL     1      -4.442 204.833 117.463  0.00  0.00    +0.203 HD
ATOM     24  C   UNL     1      -2.790 205.489 117.426  0.00  0.00    +0.190 C 
ATOM     25  C   UNL     1      -5.072 206.283 116.634  0.00  0.00    +0.155 C 
ATOM     26  C   UNL     1      -4.983 206.879 115.235  0.00  0.00    +0.177 C 
ENDBRANCH  18  19
ENDBRANCH  13  15
BRANCH   3   2
ATOM      1  O   UNL     1     -15.913 200.902 114.166  0.00  0.00    -0.381 OA
ATOM      2  C   UNL     1     -15.211 201.613 114.839  0.00  0.00    +0.221 C 
ATOM     35  N   UNL     1     -15.364 201.867 116.143  0.00  0.00    -0.288 N 
ATOM     36  H   UNL     1     -14.689 202.485 116.546  0.00  0.00    +0.184 HD
ATOM     37  C   UNL     1     -16.381 201.365 117.052  0.00  0.00    +0.164 C 
ENDBRANCH   3   2
TORSDOF 3
