REMARK  Name = 4XUF
REMARK  10 active torsions:
REMARK  status: ('A' for Active; 'I' for Inactive)
REMARK    1  A    between atoms: N_4  and  C_5
REMARK    2  A    between atoms: C_8  and  C_11
REMARK    3  A    between atoms: C_22  and  O_23
REMARK    4  A    between atoms: O_23  and  C_24
REMARK    5  A    between atoms: C_24  and  C_25
REMARK    6  A    between atoms: C_25  and  N_26
REMARK    7  A    between atoms: C_35  and  C_37
REMARK    8  A    between atoms: C_37  and  C_38
REMARK    9  A    between atoms: C_37  and  C_39
REMARK   10  A    between atoms: C_37  and  C_40
REMARK                            x       y       z     vdW  Elec       q    Type
REMARK                         _______ _______ _______ _____ _____    ______ ____
ROOT
ATOM     15  C   UNL     1      24.746  17.247 -15.603  0.00  0.00    +0.035 A 
ATOM     16  C   UNL     1      24.635  18.425 -14.914  0.00  0.00    +0.024 A 
ATOM     17  C   UNL     1      23.856  18.505 -13.720  0.00  0.00    +0.012 A 
ATOM     18  C   UNL     1      23.219  17.383 -13.265  0.00  0.00    +0.002 A 
ATOM     40  C   UNL     1      23.315  16.165 -13.996  0.00  0.00    +0.012 A 
ATOM     41  C   UNL     1      24.069  16.091 -15.137  0.00  0.00    +0.024 A 
ENDROOT
BRANCH  18  19
ATOM     19  C   UNL     1      22.337  17.423 -11.991  0.00  0.00    +0.090 A 
ATOM     20  N   UNL     1      22.266  18.391 -11.074  0.00  0.00    -0.221 NA
ATOM     21  C   UNL     1      21.373  18.038 -10.162  0.00  0.00    +0.179 A 
ATOM     22  S   UNL     1      20.627  18.516  -8.749  0.00  0.00    -0.049 S 
ATOM     23  C   UNL     1      19.630  17.170  -8.545  0.00  0.00    +0.043 A 
ATOM     24  C   UNL     1      18.696  16.800  -7.600  0.00  0.00    +0.063 A 
ATOM     25  C   UNL     1      18.042  15.577  -7.752  0.00  0.00    +0.122 A 
ATOM     35  C   UNL     1      18.307  14.760  -8.810  0.00  0.00    +0.048 A 
ATOM     36  C   UNL     1      19.249  15.145  -9.753  0.00  0.00    +0.031 A 
ATOM     37  C   UNL     1      19.913  16.391  -9.588  0.00  0.00    +0.063 A 
ATOM     38  N   UNL     1      20.875  16.894 -10.466  0.00  0.00    -0.293 N 
ATOM     39  C   UNL     1      21.448  16.473 -11.617  0.00  0.00    +0.122 A 
BRANCH  25  26
ATOM     26  O   UNL     1      17.089  15.206  -6.789  0.00  0.00    -0.491 OA
BRANCH  26  27
ATOM     27  C   UNL     1      17.664  14.537  -5.666  0.00  0.00    +0.244 C 
BRANCH  27  28
ATOM     28  C   UNL     1      16.459  14.276  -4.782  0.00  0.00    +0.125 C 
BRANCH  28  29
ATOM     29  N   UNL     1      15.451  14.856  -5.299  0.00  0.00    -0.295 NA
ATOM     30  C   UNL     1      14.340  14.045  -5.041  0.00  0.00    +0.112 C 
ATOM     31  C   UNL     1      13.016  14.771  -5.235  0.00  0.00    +0.175 C 
ATOM     32  O   UNL     1      13.053  16.025  -4.681  0.00  0.00    -0.377 OA
ATOM     33  C   UNL     1      14.111  16.865  -5.019  0.00  0.00    +0.175 C 
ATOM     34  C   UNL     1      15.457  16.152  -4.851  0.00  0.00    +0.112 C 
ENDBRANCH  28  29
ENDBRANCH  27  28
ENDBRANCH  26  27
ENDBRANCH  25  26
ENDBRANCH  18  19
BRANCH  15  13
ATOM      1  N   UNL     1      26.295  18.158 -19.021  0.00  0.00    -0.251 N 
ATOM      2  H   UNL     1      26.942  17.333 -19.236  0.00  0.00    +0.158 HD
ATOM      3  C   UNL     1      26.173  19.242 -19.924  0.00  0.00    +0.169 A 
ATOM      4  C   UNL     1      25.005  20.138 -20.017  0.00  0.00    +0.092 A 
ATOM      5  C   UNL     1      25.331  21.004 -21.043  0.00  0.00    +0.144 A 
ATOM     10  O   UNL     1      26.504  20.671 -21.515  0.00  0.00    -0.357 OA
ATOM     11  N   UNL     1      27.003  19.618 -20.850  0.00  0.00    -0.063 NA
ATOM     12  C   UNL     1      25.498  18.198 -17.763  0.00  0.00    +0.309 C 
ATOM     13  N   UNL     1      25.565  17.149 -16.859  0.00  0.00    -0.269 N 
ATOM     14  H   UNL     1      26.181  16.295 -17.050  0.00  0.00    +0.156 HD
ATOM     42  O   UNL     1      24.796  19.162 -17.510  0.00  0.00    -0.252 OA
BRANCH   5   6
ATOM      6  C   UNL     1      24.419  22.162 -21.534  0.00  0.00    +0.023 C 
ATOM      7  C   UNL     1      24.516  22.266 -23.027  0.00  0.00    +0.019 C 
ATOM      8  C   UNL     1      24.829  23.524 -20.856  0.00  0.00    +0.019 C 
ATOM      9  C   UNL     1      23.006  21.828 -21.159  0.00  0.00    +0.019 C 
ENDBRANCH   5   6
ENDBRANCH  15  13
TORSDOF 7
