REMARK  Name = 4QMW
REMARK  3 active torsions:
REMARK  status: ('A' for Active; 'I' for Inactive)
REMARK    1  A    between atoms: C_5  and  N_6
REMARK    2  A    between atoms: C_12  and  N_13
REMARK    3  A    between atoms: C_15  and  C_16
REMARK                            x       y       z     vdW  Elec       q    Type
REMARK                         _______ _______ _______ _____ _____    ______ ____
ROOT
ATOM      3  N   UNL     1      -1.787  -0.072  16.845  0.00  0.00    -0.243 N 
ATOM      4  C   UNL     1      -2.421   0.945  16.207  0.00  0.00    +0.164 A 
ATOM      5  C   UNL     1      -1.606   2.087  16.337  0.00  0.00    +0.086 A 
ATOM      6  C   UNL     1      -0.500   1.662  17.076  0.00  0.00    +0.107 A 
ATOM     16  C   UNL     1      -2.021   3.303  15.757  0.00  0.00    +0.131 A 
ATOM     20  N   UNL     1      -3.205   3.305  15.087  0.00  0.00    -0.220 NA
ATOM     21  C   UNL     1      -3.991   2.188  14.984  0.00  0.00    +0.225 A 
ATOM     22  N   UNL     1      -3.603   1.007  15.539  0.00  0.00    -0.216 NA
ATOM     23  N   UNL     1      -0.683   0.372  17.319  0.00  0.00    -0.168 NA
ENDROOT
BRANCH   6   7
ATOM      7  C   UNL     1       0.694   2.239  17.535  0.00  0.00    +0.022 A 
ATOM      8  C   UNL     1       1.112   1.929  18.853  0.00  0.00    +0.123 A 
ATOM      9  N   UNL     1       2.287   2.411  19.333  0.00  0.00    -0.235 NA
ATOM     10  C   UNL     1       3.068   3.183  18.556  0.00  0.00    +0.160 A 
ATOM     11  N   UNL     1       4.246   3.757  18.840  0.00  0.00    -0.236 NA
ATOM     12  C   UNL     1       4.658   4.435  17.756  0.00  0.00    +0.114 A 
ATOM     13  C   UNL     1       3.730   4.300  16.725  0.00  0.00    +0.031 A 
ATOM     14  C   UNL     1       2.718   3.499  17.236  0.00  0.00    +0.021 A 
ATOM     15  C   UNL     1       1.516   3.016  16.693  0.00  0.00    +0.023 A 
ENDBRANCH   6   7
BRANCH   3   2
ATOM      1  C   UNL     1      -1.911  -2.512  15.992  0.00  0.00    +0.027 C 
ATOM      2  C   UNL     1      -1.975  -1.475  17.125  0.00  0.00    +0.109 C 
ATOM     24  C   UNL     1      -3.086  -1.978  18.061  0.00  0.00    +0.027 C 
ATOM     25  C   UNL     1      -2.700  -3.475  18.131  0.00  0.00    +0.002 C 
ATOM     26  C   UNL     1      -2.041  -3.833  16.779  0.00  0.00    +0.002 C 
ENDBRANCH   3   2
BRANCH  16  17
ATOM     17  N   UNL     1      -1.329   4.454  15.814  0.00  0.00    -0.343 N 
ATOM     18  H   UNL     1      -0.394   4.491  16.332  0.00  0.00    +0.144 HD
ATOM     19  H   UNL     1      -1.714   5.333  15.341  0.00  0.00    +0.144 HD
ENDBRANCH  16  17
TORSDOF 3
