REMARK  Name = 1kv1_ligand
REMARK  7 active torsions:
REMARK  status: ('A' for Active; 'I' for Inactive)
REMARK    1  A    between atoms: N2_3  and  C3_4
REMARK    2  A    between atoms: N9_10  and  C10_11
REMARK    3  A    between atoms: C13_13  and  C16_20
REMARK    4  A    between atoms: N11_15  and  C15_16
REMARK    5  A    between atoms: C17_17  and  C16_20
REMARK    6  A    between atoms: C18_18  and  C16_20
REMARK    7  A    between atoms: C19_19  and  C16_20
REMARK                            x       y       z     vdW  Elec       q    Type
REMARK                         _______ _______ _______ _____ _____    ______ ____
ROOT
ATOM      1  C   UNL     1      33.335  33.731  14.743  0.00  0.00    +0.323 C 
ATOM      2  O   UNL     1      32.601  34.546  15.333  0.00  0.00    -0.379 OA
ATOM      3  N   UNL     1      34.571  33.506  15.183  0.00  0.00    -0.213 N 
ATOM      4  H   UNL     1      35.110  32.813  14.704  0.00  0.00    +0.227 HD
ATOM     12  N   UNL     1      32.913  33.039  13.681  0.00  0.00    -0.182 N 
ATOM     13  H   UNL     1      33.546  32.375  13.282  0.00  0.00    +0.234 HD
ENDROOT
BRANCH   3   5
ATOM      5  C   UNL     1      35.148  34.129  16.209  0.00  0.00    +0.068 A 
ATOM      6  C   UNL     1      36.448  34.479  16.074  0.00  0.00    +0.010 A 
ATOM      7  C   UNL     1      37.114  35.104  17.108  0.00  0.00    -0.003 A 
ATOM      8  C   UNL     1      36.476  35.363  18.245  0.00  0.00    +0.024 A 
ATOM      9 CL   UNL     1      37.357  36.133  19.534  0.00  0.00    -0.085 Cl
ATOM     10  C   UNL     1      35.170  35.023  18.404  0.00  0.00    -0.003 A 
ATOM     11  C   UNL     1      34.490  34.392  17.361  0.00  0.00    +0.010 A 
ENDBRANCH   3   5
BRANCH  12  14
ATOM     14  C   UNL     1      31.714  33.164  13.111  0.00  0.00    +0.202 A 
ATOM     15  C   UNL     1      31.035  34.317  12.860  0.00  0.00    -0.000 A 
ATOM     16  C   UNL     1      29.877  33.953  12.198  0.00  0.00    +0.001 A 
ATOM     17  N   UNL     1      29.845  32.630  12.043  0.00  0.00    -0.175 NA
ATOM     22  N   UNL     1      31.016  32.148  12.635  0.00  0.00    -0.152 N 
ATOM     23  C   UNL     1      31.402  30.733  12.723  0.00  0.00    +0.258 C 
BRANCH  16  18
ATOM     18  C   UNL     1      28.878  34.807  11.778  0.00  0.00    -0.041 C 
ATOM     19  C   UNL     1      29.405  35.760  10.690  0.00  0.00    -0.040 C 
ATOM     20  C   UNL     1      27.711  33.985  11.174  0.00  0.00    -0.040 C 
ATOM     21  C   UNL     1      28.336  35.629  12.967  0.00  0.00    -0.040 C 
ENDBRANCH  16  18
ENDBRANCH  12  14
TORSDOF 3
