REMARK  Name = 3zbx_ligand
REMARK  3 active torsions:
REMARK  status: ('A' for Active; 'I' for Inactive)
REMARK    1  A    between atoms: C7_7  and  C27_27
REMARK    2  A    between atoms: C11_11  and  C18_18
REMARK    3  A    between atoms: C26_26  and  C27_27
REMARK                            x       y       z     vdW  Elec       q    Type
REMARK                         _______ _______ _______ _____ _____    ______ ____
ROOT
ATOM      5  C   UNL     1      18.712   9.593  38.841  0.00  0.00    +0.186 A 
ATOM      6  N   UNL     1      18.360   9.867  37.608  0.00  0.00    -0.266 NA
ATOM      7  N   UNL     1      17.892  11.067  37.522  0.00  0.00    -0.265 NA
ATOM      8  C   UNL     1      17.918  11.635  38.713  0.00  0.00    +0.250 A 
ATOM      9  N   UNL     1      17.555  12.850  39.194  0.00  0.00    -0.226 NA
ATOM     10  C   UNL     1      17.697  13.155  40.482  0.00  0.00    +0.176 A 
ATOM     11  C   UNL     1      18.244  12.202  41.405  0.00  0.00    +0.132 A 
ATOM     19  N   UNL     1      18.602  11.013  40.946  0.00  0.00    -0.109 NA
ATOM     20  N   UNL     1      18.447  10.697  39.586  0.00  0.00    -0.075 N 
ENDROOT
BRANCH  11  12
ATOM     12  C   UNL     1      18.425  12.503  42.855  0.00  0.00    +0.010 A 
ATOM     13  C   UNL     1      18.994  11.508  43.705  0.00  0.00    +0.012 A 
ATOM     14  C   UNL     1      19.181  11.772  45.073  0.00  0.00    +0.036 A 
ATOM     15  C   UNL     1      18.803  13.023  45.609  0.00  0.00    +0.135 A 
ATOM     16  F   UNL     1      18.987  13.271  46.919  0.00  0.00    -0.181 F 
ATOM     17  C   UNL     1      18.233  14.015  44.777  0.00  0.00    +0.036 A 
ATOM     18  C   UNL     1      18.044  13.764  43.407  0.00  0.00    +0.012 A 
ENDBRANCH  11  12
BRANCH   5   4
ATOM      4  C   UNL     1      19.299   8.282  39.344  0.00  0.00    +0.197 C 
BRANCH   4   3
ATOM      1  C   UNL     1      22.396   8.757  41.580  0.00  0.00    -0.000 A 
ATOM      2  C   UNL     1      21.032   8.643  41.152  0.00  0.00    +0.012 A 
ATOM      3  C   UNL     1      20.746   8.414  39.801  0.00  0.00    -0.020 A 
ATOM     21  C   UNL     1      21.797   8.294  38.849  0.00  0.00    +0.014 A 
ATOM     22  C   UNL     1      23.130   8.399  39.230  0.00  0.00    +0.022 A 
ATOM     23  C   UNL     1      22.749   8.993  42.950  0.00  0.00    +0.037 A 
ATOM     24  C   UNL     1      24.098   9.089  43.299  0.00  0.00    +0.035 A 
ATOM     25  C   UNL     1      25.091   8.952  42.293  0.00  0.00    +0.093 A 
ATOM     26  N   UNL     1      24.762   8.735  41.009  0.00  0.00    -0.298 NA
ATOM     27  C   UNL     1      23.467   8.631  40.600  0.00  0.00    +0.043 A 
ENDBRANCH   4   3
ENDBRANCH   5   4
TORSDOF 3
