REMARK  Name = 3W2C
REMARK  8 active torsions:
REMARK  status: ('A' for Active; 'I' for Inactive)
REMARK    1  A    between atoms: C_1  and  C_2
REMARK    2  A    between atoms: C_2  and  C_3
REMARK    3  A    between atoms: C_2  and  C_4
REMARK    4  A    between atoms: C_4  and  C_5
REMARK    5  A    between atoms: C_5  and  N_6
REMARK    6  A    between atoms: C_7  and  C_9
REMARK    7  A    between atoms: C_9  and  N_10
REMARK    8  A    between atoms: C_14  and  C_15
REMARK                            x       y       z     vdW  Elec       q    Type
REMARK                         _______ _______ _______ _____ _____    ______ ____
ROOT
ATOM     13  C   UNL     1       6.176   8.081   9.022  0.00  0.00    -0.013 A 
ATOM     14  C   UNL     1       4.881   8.025   8.506  0.00  0.00    +0.009 A 
ATOM     15  C   UNL     1       4.599   8.842   7.395  0.00  0.00    +0.013 A 
ATOM     16  C   UNL     1       5.544   9.626   6.846  0.00  0.00    +0.033 A 
ATOM     17  C   UNL     1       5.616  10.477   5.825  0.00  0.00    +0.136 C 
ATOM     18  C   UNL     1       4.650  10.849   4.967  0.00  0.00    +0.138 A 
ATOM     19  N   UNL     1       3.392  10.435   4.973  0.00  0.00    -0.338 N 
ATOM     20  H   UNL     1       2.958   9.743   5.664  0.00  0.00    +0.167 HD
ATOM     21  C   UNL     1       2.762  11.037   3.960  0.00  0.00    +0.064 A 
ATOM     22  C   UNL     1       1.473  10.954   3.578  0.00  0.00    +0.028 A 
ATOM     23  C   UNL     1       1.029  11.689   2.472  0.00  0.00    +0.002 A 
ATOM     24  C   UNL     1       1.946  12.517   1.788  0.00  0.00    +0.002 A 
ATOM     25  C   UNL     1       3.288  12.539   2.249  0.00  0.00    +0.028 A 
ATOM     26  C   UNL     1       3.642  11.809   3.318  0.00  0.00    +0.064 A 
ATOM     27  N   UNL     1       4.819  11.680   3.935  0.00  0.00    -0.338 N 
ATOM     28  H   UNL     1       5.734  12.157   3.653  0.00  0.00    +0.167 HD
ATOM     29  N   UNL     1       6.857  10.971   5.759  0.00  0.00    -0.145 NA
ATOM     30  N   UNL     1       7.487  10.509   6.593  0.00  0.00    -0.148 NA
ATOM     31  C   UNL     1       6.779   9.648   7.333  0.00  0.00    +0.096 A 
ATOM     32  C   UNL     1       7.117   8.906   8.388  0.00  0.00    +0.039 A 
ENDROOT
BRANCH  13  12
ATOM      9  N   UNL     1       6.956   6.117  11.741  0.00  0.00    -0.262 N 
ATOM     10  N   UNL     1       7.991   6.045  11.066  0.00  0.00    -0.179 NA
ATOM     11  C   UNL     1       7.819   6.766   9.973  0.00  0.00    +0.143 A 
ATOM     12  C   UNL     1       6.604   7.321  10.042  0.00  0.00    +0.020 A 
ATOM     33  C   UNL     1       6.020   6.906  11.179  0.00  0.00    +0.117 A 
BRANCH   9   8
ATOM      8  C   UNL     1       7.172   5.358  12.934  0.00  0.00    +0.239 C 
BRANCH   8   7
ATOM      5  N   UNL     1       9.577   5.349  13.398  0.00  0.00    -0.314 N 
ATOM      6  H   UNL     1       9.605   4.471  12.788  0.00  0.00    +0.149 HD
ATOM      7  C   UNL     1       8.426   5.988  13.589  0.00  0.00    +0.234 C 
ATOM     34  O   UNL     1       8.369   7.078  14.174  0.00  0.00    -0.274 OA
BRANCH   5   4
ATOM      4  C   UNL     1      10.811   5.846  14.023  0.00  0.00    +0.104 C 
BRANCH   4   3
ATOM      3  C   UNL     1      10.771   5.413  15.494  0.00  0.00    +0.022 C 
BRANCH   3   2
ATOM      1  C   UNL     1      11.880   3.137  15.527  0.00  0.00    +0.007 C 
ATOM      2  C   UNL     1      12.008   4.605  15.926  0.00  0.00    -0.016 C 
ATOM     35  C   UNL     1      12.163   4.633  17.457  0.00  0.00    +0.007 C 
ENDBRANCH   3   2
ENDBRANCH   4   3
ENDBRANCH   5   4
ENDBRANCH   8   7
ENDBRANCH   9   8
ENDBRANCH  13  12
TORSDOF 6
