REMARK  Name = 4rj6_ligand
REMARK  4 active torsions:
REMARK  status: ('A' for Active; 'I' for Inactive)
REMARK    1  A    between atoms: C3_9  and  O2_11
REMARK    2  A    between atoms: C1_10  and  O2_11
REMARK    3  A    between atoms: N15_15  and  C16_16
REMARK    4  A    between atoms: C23_23  and  C26_25
REMARK                            x       y       z     vdW  Elec       q    Type
REMARK                         _______ _______ _______ _____ _____    ______ ____
ROOT
ATOM      1  C   UNL     1     -48.619  -1.784 -21.105  0.00  0.00    +0.056 C 
ATOM      2  C   UNL     1     -47.449  -2.024 -20.119  0.00  0.00    +0.122 C 
ATOM      5  C   UNL     1     -47.927  -2.083 -18.648  0.00  0.00    +0.056 C 
ATOM      6  C   UNL     1     -48.850  -0.900 -18.299  0.00  0.00    +0.141 C 
ATOM      7  N   UNL     1     -49.951  -0.781 -19.291  0.00  0.00    -0.278 N 
ATOM      8  C   UNL     1     -50.996   0.081 -18.938  0.00  0.00    +0.177 A 
ATOM      9  N   UNL     1     -51.870   0.487 -19.876  0.00  0.00    -0.238 NA
ATOM     10  C   UNL     1     -52.893   1.311 -19.587  0.00  0.00    +0.134 A 
ATOM     11  N   UNL     1     -53.801   1.805 -20.542  0.00  0.00    -0.248 N 
ATOM     12  H   UNL     1     -54.430   2.557 -20.225  0.00  0.00    +0.218 HD
ATOM     29  C   UNL     1     -53.011   1.742 -18.247  0.00  0.00    +0.056 A 
ATOM     30  C   UNL     1     -52.115   1.286 -17.279  0.00  0.00    +0.085 A 
ATOM     31  N   UNL     1     -51.136   0.464 -17.658  0.00  0.00    -0.272 NA
ATOM     32  C   UNL     1     -49.440  -0.562 -20.666  0.00  0.00    +0.141 C 
ENDROOT
BRANCH  11  13
ATOM     13  C   UNL     1     -53.952   1.393 -21.881  0.00  0.00    +0.121 A 
ATOM     14  N   UNL     1     -54.973   1.863 -22.614  0.00  0.00    -0.297 NA
ATOM     15  C   UNL     1     -55.227   1.488 -23.876  0.00  0.00    +0.072 A 
ATOM     16  C   UNL     1     -54.389   0.585 -24.541  0.00  0.00    +0.041 A 
ATOM     17  N   UNL     1     -54.355  -0.012 -25.772  0.00  0.00    -0.317 NA
ATOM     18  C   UNL     1     -53.307  -0.823 -25.797  0.00  0.00    +0.124 A 
ATOM     25  N   UNL     1     -52.623  -0.777 -24.621  0.00  0.00    -0.250 N 
ATOM     26  H   UNL     1     -51.764  -1.299 -24.395  0.00  0.00    +0.231 HD
ATOM     27  C   UNL     1     -53.284   0.089 -23.794  0.00  0.00    +0.087 A 
ATOM     28  C   UNL     1     -53.068   0.496 -22.475  0.00  0.00    +0.060 A 
BRANCH  18  19
ATOM     19  C   UNL     1     -52.747  -1.620 -26.896  0.00  0.00    +0.055 A 
ATOM     20  C   UNL     1     -51.396  -2.031 -26.948  0.00  0.00    +0.186 A 
ATOM     21  N   UNL     1     -51.218  -2.696 -28.047  0.00  0.00    -0.211 N 
ATOM     22  H   UNL     1     -50.333  -3.120 -28.361  0.00  0.00    +0.263 HD
ATOM     23  N   UNL     1     -52.440  -2.737 -28.732  0.00  0.00    -0.212 NA
ATOM     24  C   UNL     1     -53.369  -2.074 -28.027  0.00  0.00    +0.085 A 
ENDBRANCH  18  19
ENDBRANCH  11  13
BRANCH   2   3
ATOM      3  O   UNL     1     -46.749  -3.234 -20.462  0.00  0.00    -0.380 OA
ATOM      4  C   UNL     1     -45.496  -3.053 -21.138  0.00  0.00    +0.194 C 
ENDBRANCH   2   3
TORSDOF 3
