REMARK  Name = 3l54_ligand
REMARK  2 active torsions:
REMARK  status: ('A' for Active; 'I' for Inactive)
REMARK    1  A    between atoms: C7_7  and  C10_10
REMARK    2  A    between atoms: C17_17  and  C18_18
REMARK                            x       y       z     vdW  Elec       q    Type
REMARK                         _______ _______ _______ _____ _____    ______ ____
ROOT
ATOM      5  C   UNL     1      24.167  13.054  22.732  0.00  0.00    -0.012 A 
ATOM      6  C   UNL     1      23.263  14.074  22.566  0.00  0.00    +0.025 A 
ATOM      7  C   UNL     1      22.019  14.013  23.149  0.00  0.00    +0.015 A 
ATOM      8  C   UNL     1      21.126  15.046  22.965  0.00  0.00    +0.016 A 
ATOM     15  C   UNL     1      19.891  14.935  23.557  0.00  0.00    +0.048 A 
ATOM     16  C   UNL     1      19.603  13.814  24.292  0.00  0.00    +0.097 A 
ATOM     17  N   UNL     1      20.447  12.803  24.479  0.00  0.00    -0.296 NA
ATOM     18  C   UNL     1      21.644  12.917  23.900  0.00  0.00    +0.047 A 
ATOM     19  C   UNL     1      22.564  11.909  24.061  0.00  0.00    +0.026 A 
ATOM     20  C   UNL     1      23.810  11.971  23.492  0.00  0.00    +0.017 A 
ENDROOT
BRANCH   5   4
ATOM      1  C   UNL     1      27.200  13.533  19.052  0.00  0.00    +0.104 A 
ATOM      2  C   UNL     1      26.797  13.294  20.341  0.00  0.00    +0.038 A 
ATOM      3  C   UNL     1      25.489  13.374  20.741  0.00  0.00    +0.038 A 
ATOM      4  C   UNL     1      25.447  13.070  22.086  0.00  0.00    +0.003 A 
ATOM     21  C   UNL     1      26.596  12.750  22.788  0.00  0.00    +0.091 A 
ATOM     22  N   UNL     1      27.869  12.671  22.376  0.00  0.00    -0.276 NA
ATOM     23  C   UNL     1      27.949  12.963  21.073  0.00  0.00    +0.160 A 
ATOM     24  N   UNL     1      29.036  12.993  20.295  0.00  0.00    -0.197 N 
ATOM     25  H   UNL     1      30.012  12.797  20.557  0.00  0.00    +0.250 HD
ATOM     26  N   UNL     1      28.553  13.340  19.089  0.00  0.00    -0.198 NA
ENDBRANCH   5   4
BRANCH   8   9
ATOM      9  C   UNL     1      21.430  16.238  22.214  0.00  0.00    +0.011 A 
ATOM     10  C   UNL     1      22.564  16.975  22.472  0.00  0.00    +0.050 A 
ATOM     11  C   UNL     1      22.797  18.125  21.756  0.00  0.00    +0.095 A 
ATOM     12  N   UNL     1      21.994  18.600  20.802  0.00  0.00    -0.296 NA
ATOM     13  C   UNL     1      20.906  17.861  20.574  0.00  0.00    +0.095 A 
ATOM     14  C   UNL     1      20.580  16.701  21.238  0.00  0.00    +0.050 A 
ENDBRANCH   8   9
TORSDOF 2
