REMARK  Name = 4ZJI
REMARK  3 active torsions:
REMARK  status: ('A' for Active; 'I' for Inactive)
REMARK    1  A    between atoms: C_1  and  N_15
REMARK    2  A    between atoms: C_1  and  C_16
REMARK    3  A    between atoms: C_10  and  N_20
REMARK                            x       y       z     vdW  Elec       q    Type
REMARK                         _______ _______ _______ _____ _____    ______ ____
ROOT
ATOM      3  N   UNL     1      12.071  46.936  45.799  0.00  0.00    -0.296 N 
ATOM      4  C   UNL     1      11.678  48.027  44.960  0.00  0.00    +0.049 A 
ATOM      5  C   UNL     1      11.261  47.805  43.633  0.00  0.00    +0.088 A 
ATOM      6  C   UNL     1      11.247  46.446  43.029  0.00  0.00    +0.323 C 
ATOM      7  N   UNL     1      10.894  45.358  43.620  0.00  0.00    -0.040 NA
ATOM      8  C   UNL     1      10.441  45.289  44.955  0.00  0.00    +0.200 A 
ATOM      9  C   UNL     1       9.359  44.433  45.192  0.00  0.00    +0.095 A 
ATOM     10  C   UNL     1       8.910  44.279  46.481  0.00  0.00    +0.128 A 
ATOM     11  C   UNL     1       9.452  44.941  47.554  0.00  0.00    +0.040 A 
ATOM     12  C   UNL     1      10.511  45.803  47.327  0.00  0.00    +0.030 A 
ATOM     13  F   UNL     1       7.907  43.390  46.704  0.00  0.00    -0.205 F 
ATOM     14  N   UNL     1      11.656  46.376  41.680  0.00  0.00    -0.218 N 
ATOM     15  C   UNL     1      11.507  45.112  40.940  0.00  0.00    +0.241 C 
ATOM     16  C   UNL     1      12.704  44.212  41.209  0.00  0.00    +0.127 C 
ATOM     17  N   UNL     1      13.952  44.874  40.832  0.00  0.00    -0.298 NA
ATOM     18  C   UNL     1      15.106  44.001  41.096  0.00  0.00    +0.105 C 
ATOM     19  C   UNL     1      14.083  46.138  41.555  0.00  0.00    +0.127 C 
ATOM     20  C   UNL     1      12.900  47.045  41.276  0.00  0.00    +0.241 C 
ATOM     21  C   UNL     1      10.798  48.877  42.869  0.00  0.00    +0.037 A 
ATOM     22  C   UNL     1      10.739  50.136  43.424  0.00  0.00    +0.042 A 
ATOM     23 CL   UNL     1       9.998  51.415  42.516  0.00  0.00    -0.084 Cl
ATOM     24  C   UNL     1      11.168  50.380  44.708  0.00  0.00    +0.022 A 
ATOM     25  C   UNL     1      11.634  49.326  45.476  0.00  0.00    +0.026 A 
ATOM     26  C   UNL     1      11.025  45.984  46.037  0.00  0.00    +0.086 A 
ENDROOT
BRANCH   3   1
ATOM      1  C   UNL     1      13.036  47.214  46.881  0.00  0.00    +0.108 C 
ATOM      2  C   UNL     1      13.917  46.004  47.268  0.00  0.00    +0.025 C 
ENDBRANCH   3   1
TORSDOF 1
