REMARK  Name = 5TCO
REMARK  8 active torsions:
REMARK  status: ('A' for Active; 'I' for Inactive)
REMARK    1  A    between atoms: N_6  and  C_7
REMARK    2  A    between atoms: C_7  and  C_8
REMARK    3  A    between atoms: C_8  and  N_9
REMARK    4  A    between atoms: C_10  and  C_12
REMARK    5  A    between atoms: C_27  and  N_28
REMARK    6  A    between atoms: N_28  and  C_29
REMARK    7  A    between atoms: C_35  and  N_36
REMARK    8  A    between atoms: C_37  and  C_39
REMARK                            x       y       z     vdW  Elec       q    Type
REMARK                         _______ _______ _______ _____ _____    ______ ____
ROOT
ATOM      8  C   UNL     1      20.348   6.094 -26.270  0.00  0.00    +0.037 A 
ATOM      9  C   UNL     1      19.399   6.772 -25.480  0.00  0.00    +0.013 A 
ATOM     10  C   UNL     1      18.500   6.070 -24.678  0.00  0.00    +0.005 A 
ATOM     11  C   UNL     1      18.528   4.666 -24.658  0.00  0.00    -0.036 A 
ATOM     12  C   UNL     1      17.642   4.060 -23.803  0.00  0.00    +0.040 C 
ATOM     13  C   UNL     1      18.562   3.602 -22.648  0.00  0.00    +0.040 C 
ATOM     14  C   UNL     1      19.216   2.348 -22.917  0.00  0.00    -0.035 A 
ATOM     15  C   UNL     1      19.630   1.841 -24.163  0.00  0.00    +0.026 A 
ATOM     16  C   UNL     1      20.268   0.566 -24.214  0.00  0.00    +0.014 A 
ATOM     17  C   UNL     1      20.487  -0.202 -23.069  0.00  0.00    +0.024 A 
ATOM     18  C   UNL     1      20.054   0.291 -21.825  0.00  0.00    +0.032 A 
ATOM     38  C   UNL     1      19.550   2.552 -25.407  0.00  0.00    +0.194 C 
ATOM     39  O   UNL     1      19.809   1.985 -26.471  0.00  0.00    -0.287 OA
ATOM     40  C   UNL     1      19.418   1.566 -21.752  0.00  0.00    +0.027 A 
ATOM     41  C   UNL     1      19.441   3.962 -25.407  0.00  0.00    +0.026 A 
ATOM     42  C   UNL     1      20.350   4.679 -26.208  0.00  0.00    +0.025 A 
ENDROOT
BRANCH   8   7
ATOM      5  N   UNL     1      21.767   7.994 -27.007  0.00  0.00    -0.310 N 
ATOM      6  H   UNL     1      22.575   8.231 -27.668  0.00  0.00    +0.149 HD
ATOM      7  C   UNL     1      21.335   6.706 -27.120  0.00  0.00    +0.244 C 
ATOM     43  O   UNL     1      21.955   6.000 -27.906  0.00  0.00    -0.270 OA
BRANCH   5   4
ATOM      4  C   UNL     1      21.344   9.147 -26.148  0.00  0.00    +0.120 C 
BRANCH   4   3
ATOM      3  C   UNL     1      22.002  10.441 -26.747  0.00  0.00    +0.103 C 
BRANCH   3   2
ATOM      1  C   UNL     1      22.621  10.703 -29.018  0.00  0.00    +0.112 C 
ATOM      2  N   UNL     1      21.511  10.851 -28.092  0.00  0.00    -0.296 NA
ATOM     44  C   UNL     1      20.355  10.066 -28.490  0.00  0.00    +0.112 C 
ATOM     45  C   UNL     1      19.747  10.768 -29.734  0.00  0.00    +0.175 C 
ATOM     46  O   UNL     1      20.792  11.509 -30.321  0.00  0.00    -0.377 OA
ATOM     47  C   UNL     1      22.118  10.845 -30.358  0.00  0.00    +0.175 C 
ENDBRANCH   3   2
ENDBRANCH   4   3
ENDBRANCH   5   4
ENDBRANCH   8   7
BRANCH  18  19
ATOM     19  N   UNL     1      20.219  -0.378 -20.642  0.00  0.00    -0.314 N 
ATOM     20  H   UNL     1      19.702   0.015 -19.791  0.00  0.00    +0.152 HD
BRANCH  19  21
ATOM     21  C   UNL     1      20.969  -1.485 -20.439  0.00  0.00    +0.033 A 
ATOM     22  C   UNL     1      22.235  -1.773 -20.970  0.00  0.00    +0.026 A 
ATOM     23  C   UNL     1      22.902  -2.961 -20.637  0.00  0.00    +0.042 A 
ATOM     24  C   UNL     1      22.338  -3.844 -19.720  0.00  0.00    +0.145 A 
ATOM     25  C   UNL     1      21.089  -3.563 -19.165  0.00  0.00    +0.071 A 
ATOM     36  F   UNL     1      22.994  -4.956 -19.403  0.00  0.00    -0.203 F 
ATOM     37  C   UNL     1      20.440  -2.382 -19.528  0.00  0.00    +0.049 A 
BRANCH  25  26
ATOM     26  N   UNL     1      20.574  -4.463 -18.292  0.00  0.00    -0.279 N 
ATOM     27  H   UNL     1      21.224  -4.901 -17.563  0.00  0.00    +0.155 HD
ATOM     28  C   UNL     1      19.263  -4.832 -18.305  0.00  0.00    +0.248 C 
ATOM     35  O   UNL     1      18.473  -4.483 -19.160  0.00  0.00    -0.270 OA
BRANCH  28  29
ATOM     29  C   UNL     1      18.842  -5.757 -17.306  0.00  0.00    +0.037 A 
ATOM     30  C   UNL     1      18.133  -6.912 -17.647  0.00  0.00    +0.013 A 
ATOM     31  C   UNL     1      17.731  -7.816 -16.644  0.00  0.00    +0.001 A 
ATOM     32  C   UNL     1      18.016  -7.588 -15.314  0.00  0.00    +0.000 A 
ATOM     33  C   UNL     1      18.719  -6.472 -14.935  0.00  0.00    +0.001 A 
ATOM     34  C   UNL     1      19.149  -5.568 -15.936  0.00  0.00    +0.013 A 
ENDBRANCH  28  29
ENDBRANCH  25  26
ENDBRANCH  19  21
ENDBRANCH  18  19
TORSDOF 8
