REMARK  Name = 3fi3_ligand
REMARK  11 active torsions:
REMARK  status: ('A' for Active; 'I' for Inactive)
REMARK    1  A    between atoms: C18_5  and  C29_25
REMARK    2  A    between atoms: C26_6  and  N21_17
REMARK    3  A    between atoms: C27_7  and  N20_28
REMARK    4  A    between atoms: C31_8  and  N21_17
REMARK    5  A    between atoms: N37_20  and  C30_22
REMARK    6  A    between atoms: C33_30  and  O24_31
REMARK    7  A    between atoms: O24_31  and  C02_32
REMARK    8  A    between atoms: C34_33  and  O25_34
REMARK    9  A    between atoms: O25_34  and  C03_35
REMARK   10  A    between atoms: C32_36  and  O23_37
REMARK   11  A    between atoms: O23_37  and  C01_38
REMARK                            x       y       z     vdW  Elec       q    Type
REMARK                         _______ _______ _______ _____ _____    ______ ____
ROOT
ATOM      9  C   UNL     1     -32.068 -33.572 -11.842  0.00  0.00    +0.109 A 
ATOM     10  C   UNL     1     -31.415 -32.464 -12.279  0.00  0.00    +0.036 A 
ATOM     11  C   UNL     1     -31.937 -31.716 -13.366  0.00  0.00    -0.002 A 
ATOM     12  C   UNL     1     -33.151 -32.133 -14.023  0.00  0.00    +0.009 A 
ATOM     13  C   UNL     1     -33.807 -33.289 -13.569  0.00  0.00    +0.050 A 
ATOM     30  C   UNL     1     -33.309 -34.027 -12.532  0.00  0.00    +0.053 A 
ENDROOT
BRANCH   9   8
ATOM      1  C   UNL     1     -29.109 -34.450 -11.534  0.00  0.00    +0.017 A 
ATOM      2  C   UNL     1     -27.889 -34.957 -11.235  0.00  0.00    +0.008 A 
ATOM      3  C   UNL     1     -27.763 -35.756 -10.017  0.00  0.00    +0.047 A 
ATOM      4  C   UNL     1     -28.827 -36.006  -9.215  0.00  0.00    +0.003 A 
ATOM      5  C   UNL     1     -30.092 -35.487  -9.542  0.00  0.00    +0.002 A 
ATOM      6  C   UNL     1     -31.293 -35.583  -8.932  0.00  0.00    +0.092 A 
ATOM      7  N   UNL     1     -32.190 -34.875  -9.682  0.00  0.00    -0.191 NA
ATOM      8  N   UNL     1     -31.510 -34.353 -10.761  0.00  0.00    -0.158 N 
ATOM     40  C   UNL     1     -30.227 -34.716 -10.687  0.00  0.00    +0.099 A 
BRANCH   3  31
ATOM     31  N   UNL     1     -26.576 -36.409  -9.535  0.00  0.00    -0.281 N 
ATOM     32  H   UNL     1     -25.742 -36.021  -9.976  0.00  0.00    +0.204 HD
BRANCH  31  33
ATOM     33  C   UNL     1     -26.230 -37.453  -8.609  0.00  0.00    +0.090 A 
ATOM     34  C   UNL     1     -27.103 -38.516  -8.550  0.00  0.00    +0.010 A 
ATOM     35  C   UNL     1     -26.914 -39.495  -7.568  0.00  0.00    -0.021 A 
ATOM     36  C   UNL     1     -25.827 -39.359  -6.654  0.00  0.00    -0.026 A 
ATOM     37  C   UNL     1     -24.951 -38.256  -6.701  0.00  0.00    +0.018 A 
ATOM     38  C   UNL     1     -25.133 -37.299  -7.643  0.00  0.00    +0.152 A 
ATOM     39  F   UNL     1     -24.298 -36.222  -7.708  0.00  0.00    -0.192 F 
ENDBRANCH  31  33
ENDBRANCH   3  31
ENDBRANCH   9   8
BRANCH  13  14
ATOM     14  C   UNL     1     -35.051 -33.838 -14.233  0.00  0.00    +0.227 C 
ATOM     15  N   UNL     1     -36.053 -34.000 -13.341  0.00  0.00    -0.244 N 
ATOM     16  H   UNL     1     -36.160 -33.433 -12.500  0.00  0.00    +0.222 HD
ATOM     29  O   UNL     1     -35.127 -33.932 -15.405  0.00  0.00    -0.374 OA
BRANCH  15  17
ATOM     17  C   UNL     1     -37.116 -35.254 -13.775  0.00  0.00    +0.038 A 
ATOM     18  C   UNL     1     -38.240 -35.440 -13.021  0.00  0.00    -0.000 A 
ATOM     19  C   UNL     1     -39.192 -36.413 -13.416  0.00  0.00    +0.099 A 
ATOM     20  C   UNL     1     -38.954 -37.232 -14.580  0.00  0.00    +0.131 A 
ATOM     21  C   UNL     1     -37.777 -37.060 -15.333  0.00  0.00    +0.099 A 
ATOM     28  C   UNL     1     -36.861 -36.111 -14.963  0.00  0.00    -0.000 A 
BRANCH  21  22
ATOM     22  O   UNL     1     -37.547 -37.843 -16.463  0.00  0.00    -0.331 OA
ATOM     23  C   UNL     1     -38.435 -37.762 -17.538  0.00  0.00    +0.228 C 
ENDBRANCH  21  22
BRANCH  20  24
ATOM     24  O   UNL     1     -39.868 -38.216 -14.943  0.00  0.00    -0.339 OA
ATOM     25  C   UNL     1     -39.745 -39.479 -14.356  0.00  0.00    +0.220 C 
ENDBRANCH  20  24
BRANCH  19  26
ATOM     26  O   UNL     1     -40.347 -36.594 -12.654  0.00  0.00    -0.331 OA
ATOM     27  C   UNL     1     -40.290 -36.252 -11.299  0.00  0.00    +0.228 C 
ENDBRANCH  19  26
ENDBRANCH  15  17
ENDBRANCH  13  14
TORSDOF 8
