REMARK  Name = F8H
REMARK  9 active torsions:
REMARK  status: ('A' for Active; 'I' for Inactive)
REMARK    1  A    between atoms: C1_1  and  C3_3
REMARK    2  A    between atoms: C7_5  and  N3_27
REMARK    3  A    between atoms: C10_8  and  N4_26
REMARK    4  A    between atoms: C20_16  and  C21_17
REMARK    5  A    between atoms: C20_16  and  O1_22
REMARK    6  A    between atoms: C21_17  and  O2_23
REMARK    7  A    between atoms: C17_21  and  O1_22
REMARK    8  A    between atoms: C6_28  and  C5_30
REMARK    9  A    between atoms: C5_30  and  N_31
REMARK                            x       y       z     vdW  Elec       q    Type
REMARK                         _______ _______ _______ _____ _____    ______ ____
ROOT
ATOM     12  C   UNL     1      32.795  98.643   8.297  0.00  0.00    +0.073 A 
ATOM     13  C   UNL     1      32.272  97.570   9.023  0.00  0.00    +0.018 A 
ATOM     14  C   UNL     1      33.040  96.442   9.252  0.00  0.00    +0.018 A 
ATOM     15  C   UNL     1      34.340  96.374   8.759  0.00  0.00    +0.072 A 
ATOM     33  C   UNL     1      34.860  97.450   8.042  0.00  0.00    +0.018 A 
ATOM     34  C   UNL     1      34.094  98.575   7.818  0.00  0.00    +0.018 A 
ENDROOT
BRANCH  15  16
ATOM     16  N   UNL     1      35.173  95.268   8.959  0.00  0.00    -0.194 NA
ATOM     17  C   UNL     1      36.363  95.304   9.621  0.00  0.00    +0.157 A 
ATOM     18  C   UNL     1      37.004  94.064  10.010  0.00  0.00    +0.079 A 
ATOM     19  C   UNL     1      38.245  94.230  10.698  0.00  0.00    +0.091 A 
ATOM     20  C   UNL     1      38.963  93.090  11.128  0.00  0.00    +0.056 A 
ATOM     21  C   UNL     1      38.458  91.831  10.880  0.00  0.00    +0.142 A 
ATOM     27  C   UNL     1      37.255  91.636  10.212  0.00  0.00    +0.067 A 
ATOM     28  N   UNL     1      38.785  95.465  10.964  0.00  0.00    -0.224 NA
ATOM     29  C   UNL     1      38.077  96.491  10.551  0.00  0.00    +0.200 A 
ATOM     30  C   UNL     1      36.572  92.733   9.796  0.00  0.00    +0.147 A 
ATOM     31  F   UNL     1      35.406  92.543   9.145  0.00  0.00    -0.204 F 
ATOM     32  N   UNL     1      36.909  96.496   9.900  0.00  0.00    -0.207 NA
BRANCH  21  22
ATOM     22  O   UNL     1      39.095  90.678  11.268  0.00  0.00    -0.473 OA
BRANCH  22  23
ATOM     23  C   UNL     1      40.353  90.794  11.963  0.00  0.00    +0.237 C 
BRANCH  23  24
ATOM     24  C   UNL     1      40.742  89.456  12.488  0.00  0.00    +0.189 C 
BRANCH  24  25
ATOM     25  O   UNL     1      39.787  89.057  13.454  0.00  0.00    -0.347 OA
ATOM     26  C   UNL     1      40.187  87.914  14.196  0.00  0.00    +0.174 C 
ENDBRANCH  24  25
ENDBRANCH  23  24
ENDBRANCH  22  23
ENDBRANCH  21  22
ENDBRANCH  15  16
BRANCH  12  11
ATOM      9  C   UNL     1      31.452 100.580   8.958  0.00  0.00    +0.271 C 
ATOM     10  O   UNL     1      31.258 100.189  10.107  0.00  0.00    -0.271 OA
ATOM     11  N   UNL     1      32.109  99.847   8.025  0.00  0.00    -0.177 NA
BRANCH   9   8
ATOM      8  C   UNL     1      30.922 101.920   8.474  0.00  0.00    +0.216 C 
BRANCH   8   6
ATOM      4  C   UNL     1      28.764 103.222  11.014  0.00  0.00    +0.101 A 
ATOM      5  C   UNL     1      30.017 102.843  10.649  0.00  0.00    +0.114 A 
ATOM      6  N   UNL     1      29.902 102.438   9.374  0.00  0.00    -0.221 N 
ATOM      7  N   UNL     1      28.634 102.553   8.954  0.00  0.00    -0.064 NA
ATOM     35  N   UNL     1      27.941 103.033   9.958  0.00  0.00    -0.133 NA
BRANCH   4   1
ATOM      1  C   UNL     1      28.226 103.779  12.334  0.00  0.00    +0.044 C 
ATOM      2  C   UNL     1      28.284 102.761  13.462  0.00  0.00    +0.006 C 
ATOM      3  C   UNL     1      28.977 105.018  12.722  0.00  0.00    +0.006 C 
ENDBRANCH   4   1
ENDBRANCH   8   6
ENDBRANCH   9   8
ENDBRANCH  12  11
TORSDOF 9
