REMARK  Name = 5OOT
REMARK  8 active torsions:
REMARK  status: ('A' for Active; 'I' for Inactive)
REMARK    1  A    between atoms: N_8  and  C_9
REMARK    2  A    between atoms: N_12  and  C_13
REMARK    3  A    between atoms: C_19  and  C_21
REMARK    4  A    between atoms: C_23  and  O_24
REMARK    5  A    between atoms: O_24  and  C_25
REMARK    6  A    between atoms: C_28  and  N_29
REMARK    7  A    between atoms: N_31  and  C_32
REMARK    8  A    between atoms: N_41  and  C_42
REMARK                            x       y       z     vdW  Elec       q    Type
REMARK                         _______ _______ _______ _____ _____    ______ ____
ROOT
ATOM     18  C   UNL     1       0.801  -3.847  20.611  0.00  0.00    +0.076 A 
ATOM     19  C   UNL     1       0.438  -4.725  19.573  0.00  0.00    +0.028 A 
ATOM     20  C   UNL     1      -0.825  -5.333  19.600  0.00  0.00    +0.015 A 
ATOM     21  C   UNL     1      -1.730  -5.091  20.634  0.00  0.00    +0.041 A 
ATOM     22  C   UNL     1      -1.376  -4.227  21.656  0.00  0.00    +0.060 A 
ATOM     38  C   UNL     1      -0.127  -3.619  21.634  0.00  0.00    +0.142 A 
ENDROOT
BRANCH  18  16
ATOM      1  C   UNL     1       4.565  -4.807  18.825  0.00  0.00    +0.163 A 
ATOM      2  N   UNL     1       4.700  -5.927  18.161  0.00  0.00    -0.327 N 
ATOM      3  C   UNL     1       5.012  -5.870  16.778  0.00  0.00    +0.056 A 
ATOM      4  C   UNL     1       6.205  -5.309  16.306  0.00  0.00    +0.063 A 
ATOM      5  C   UNL     1       7.188  -4.734  17.242  0.00  0.00    +0.261 A 
ATOM      6  N   UNL     1       6.868  -4.011  18.355  0.00  0.00    -0.307 N 
ATOM      7  C   UNL     1       7.989  -3.377  19.055  0.00  0.00    +0.153 C 
ATOM      8  O   UNL     1       8.373  -4.918  16.940  0.00  0.00    -0.267 OA
ATOM      9  C   UNL     1       6.504  -5.254  14.930  0.00  0.00    +0.015 A 
ATOM     10  C   UNL     1       5.620  -5.813  14.019  0.00  0.00    +0.001 A 
ATOM     11  C   UNL     1       4.424  -6.369  14.469  0.00  0.00    +0.002 A 
ATOM     12  C   UNL     1       4.113  -6.379  15.821  0.00  0.00    +0.026 A 
ATOM     13  C   UNL     1       3.793  -7.018  18.518  0.00  0.00    +0.151 C 
ATOM     14  N   UNL     1       3.397  -4.606  19.410  0.00  0.00    -0.195 NA
ATOM     15  C   UNL     1       3.219  -3.450  20.066  0.00  0.00    +0.222 A 
ATOM     16  N   UNL     1       2.009  -3.144  20.698  0.00  0.00    -0.281 N 
ATOM     17  H   UNL     1       2.006  -2.273  21.319  0.00  0.00    +0.155 HD
ATOM     41  N   UNL     1       4.158  -2.481  20.156  0.00  0.00    -0.221 NA
ATOM     42  C   UNL     1       5.354  -2.626  19.605  0.00  0.00    +0.144 A 
ATOM     43  C   UNL     1       5.593  -3.828  18.915  0.00  0.00    +0.106 A 
ENDBRANCH  18  16
BRANCH  21  23
ATOM     23  C   UNL     1      -2.997  -5.699  20.705  0.00  0.00    +0.247 C 
ATOM     24  O   UNL     1      -3.976  -4.994  20.520  0.00  0.00    -0.270 OA
ATOM     25  N   UNL     1      -3.175  -6.972  21.144  0.00  0.00    -0.297 N 
ATOM     26  C   UNL     1      -1.992  -7.765  21.613  0.00  0.00    +0.109 C 
ATOM     27  C   UNL     1      -2.321  -8.958  22.489  0.00  0.00    +0.038 C 
ATOM     28  C   UNL     1      -3.535  -9.715  21.996  0.00  0.00    +0.060 C 
ATOM     29  C   UNL     1      -4.739  -8.736  22.075  0.00  0.00    +0.038 C 
ATOM     37  C   UNL     1      -4.556  -7.560  21.155  0.00  0.00    +0.109 C 
BRANCH  28  30
ATOM     30  N   UNL     1      -3.683 -11.006  22.739  0.00  0.00    -0.297 NA
ATOM     31  C   UNL     1      -5.009 -11.632  22.638  0.00  0.00    +0.100 C 
ATOM     32  C   UNL     1      -4.930 -13.152  22.937  0.00  0.00    +0.099 C 
ATOM     33  N   UNL     1      -4.225 -13.483  24.209  0.00  0.00    -0.303 NA
ATOM     34  C   UNL     1      -4.021 -14.943  24.335  0.00  0.00    +0.105 C 
ATOM     35  C   UNL     1      -2.952 -12.740  24.402  0.00  0.00    +0.099 C 
ATOM     36  C   UNL     1      -3.112 -11.221  24.114  0.00  0.00    +0.100 C 
ENDBRANCH  28  30
ENDBRANCH  21  23
BRANCH  38  39
ATOM     39  O   UNL     1       0.351  -2.754  22.588  0.00  0.00    -0.493 OA
ATOM     40  C   UNL     1      -0.120  -2.940  23.926  0.00  0.00    +0.277 C 
ENDBRANCH  38  39
TORSDOF 4
