REMARK  Name = 3rkb_ligand
REMARK  4 active torsions:
REMARK  status: ('A' for Active; 'I' for Inactive)
REMARK    1  A    between atoms: C1_1  and  C6_6
REMARK    2  A    between atoms: C2_2  and  N7_7
REMARK    3  A    between atoms: C6_6  and  C13_13
REMARK    4  A    between atoms: N8_8  and  C18_18
REMARK                            x       y       z     vdW  Elec       q    Type
REMARK                         _______ _______ _______ _____ _____    ______ ____
ROOT
ATOM      1  C   UNL     1     -93.884 -44.833 -49.735  0.00  0.00    +0.092 A 
ATOM     10  S   UNL     1     -93.028 -45.141 -48.222  0.00  0.00    +0.006 S 
ATOM     11  C   UNL     1     -92.024 -46.278 -49.078  0.00  0.00    +0.185 A 
ATOM     12  N   UNL     1     -91.015 -46.946 -48.455  0.00  0.00    -0.277 N 
ATOM     13  H   UNL     1     -90.502 -47.606 -49.057  0.00  0.00    +0.194 HD
ATOM     20  N   UNL     1     -92.321 -46.407 -50.359  0.00  0.00    -0.277 NA
ATOM     21  C   UNL     1     -93.374 -45.589 -50.744  0.00  0.00    +0.083 A 
ENDROOT
BRANCH  12  14
ATOM     14  C   UNL     1     -90.544 -46.886 -47.097  0.00  0.00    +0.103 C 
ATOM     15  C   UNL     1     -89.751 -48.166 -46.710  0.00  0.00    +0.029 C 
ATOM     16  C   UNL     1     -89.237 -48.059 -45.246  0.00  0.00    +0.002 C 
ATOM     17  C   UNL     1     -88.336 -46.803 -45.065  0.00  0.00    +0.000 C 
ATOM     18  C   UNL     1     -89.064 -45.497 -45.510  0.00  0.00    +0.002 C 
ATOM     19  C   UNL     1     -89.622 -45.622 -46.948  0.00  0.00    +0.029 C 
ENDBRANCH  12  14
BRANCH  21  22
ATOM     22  N   UNL     1     -93.817 -45.582 -52.049  0.00  0.00    -0.332 N 
ATOM     23  H   UNL     1     -94.597 -44.968 -52.325  0.00  0.00    +0.175 HD
ATOM     24  H   UNL     1     -93.368 -46.191 -52.748  0.00  0.00    +0.175 HD
ENDBRANCH  21  22
BRANCH   1   2
ATOM      2  C   UNL     1     -95.002 -43.854 -49.816  0.00  0.00    +0.137 C 
ATOM      9  O   UNL     1     -95.669 -43.789 -50.871  0.00  0.00    -0.400 OA
BRANCH   2   3
ATOM      3  C   UNL     1     -95.309 -42.946 -48.659  0.00  0.00    +0.051 A 
ATOM      4  C   UNL     1     -94.291 -42.246 -47.910  0.00  0.00    +0.053 A 
ATOM      5  C   UNL     1     -94.655 -41.398 -46.820  0.00  0.00    +0.043 A 
ATOM      6  C   UNL     1     -96.046 -41.267 -46.509  0.00  0.00    +0.101 A 
ATOM      7  N   UNL     1     -97.029 -41.919 -47.213  0.00  0.00    -0.291 NA
ATOM      8  C   UNL     1     -96.673 -42.739 -48.262  0.00  0.00    +0.116 A 
ENDBRANCH   2   3
ENDBRANCH   1   2
TORSDOF 4
