REMARK  Name = 3rzb_ligand
REMARK  3 active torsions:
REMARK  status: ('A' for Active; 'I' for Inactive)
REMARK    1  A    between atoms: C1_1  and  C12_6
REMARK    2  A    between atoms: N2_4  and  C13_7
REMARK    3  A    between atoms: N3_5  and  C15_9
REMARK                            x       y       z     vdW  Elec       q    Type
REMARK                         _______ _______ _______ _____ _____    ______ ____
ROOT
ATOM      6  C   UNL     1      93.319  80.589 -50.170  0.00  0.00    +0.106 A 
ATOM      7  C   UNL     1      92.879  81.310 -51.275  0.00  0.00    +0.084 A 
ATOM     11  N   UNL     1      91.790  82.099 -51.029  0.00  0.00    -0.273 NA
ATOM     12  C   UNL     1      91.395  81.992 -49.758  0.00  0.00    +0.203 A 
ATOM     13  N   UNL     1      90.318  82.728 -49.281  0.00  0.00    -0.233 N 
ATOM     14  H   UNL     1      90.031  83.513 -49.883  0.00  0.00    +0.224 HD
ATOM     21  S   UNL     1      92.354  80.921 -48.817  0.00  0.00    +0.010 S 
ENDROOT
BRANCH  13  15
ATOM     15  C   UNL     1      89.573  82.577 -48.134  0.00  0.00    +0.070 A 
ATOM     16  C   UNL     1      88.515  83.586 -47.907  0.00  0.00    +0.017 A 
ATOM     17  C   UNL     1      87.696  83.521 -46.717  0.00  0.00    -0.012 A 
ATOM     18  C   UNL     1      87.897  82.444 -45.713  0.00  0.00    -0.021 A 
ATOM     19  C   UNL     1      88.944  81.414 -45.912  0.00  0.00    -0.012 A 
ATOM     20  C   UNL     1      89.761  81.474 -47.080  0.00  0.00    +0.017 A 
ENDBRANCH  13  15
BRANCH   6   1
ATOM      1  C   UNL     1      94.478  79.637 -50.120  0.00  0.00    +0.173 C 
ATOM      2  N   UNL     1      94.707  79.041 -48.941  0.00  0.00    -0.309 N 
ATOM      3  H   UNL     1      94.119  79.241 -48.157  0.00  0.00    +0.178 HD
ATOM      4  H   UNL     1      95.465  78.396 -48.846  0.00  0.00    +0.178 HD
ATOM      5  O   UNL     1      95.173  79.414 -51.122  0.00  0.00    -0.415 OA
ENDBRANCH   6   1
BRANCH   7   8
ATOM      8  N   UNL     1      93.444  81.258 -52.482  0.00  0.00    -0.333 N 
ATOM      9  H   UNL     1      93.060  81.820 -53.255  0.00  0.00    +0.174 HD
ATOM     10  H   UNL     1      94.264  80.655 -52.641  0.00  0.00    +0.174 HD
ENDBRANCH   7   8
TORSDOF 3
