REMARK  Name = 2hiw_ligand
REMARK  6 active torsions:
REMARK  status: ('A' for Active; 'I' for Inactive)
REMARK    1  A    between atoms: NAG_3  and  CAT_4
REMARK    2  A    between atoms: NAI_13  and  CAL_14
REMARK    3  A    between atoms: CAQ_15  and  CAR_16
REMARK    4  A    between atoms: CAN_20  and  NAU_21
REMARK    5  A    between atoms: CAV_22  and  CAX_24
REMARK    6  A    between atoms: CBB_29  and  CBD_30
REMARK                            x       y       z     vdW  Elec       q    Type
REMARK                         _______ _______ _______ _____ _____    ______ ____
ROOT
ATOM      4  C   UNL     1      -0.763   6.827  33.029  0.00  0.00    +0.061 A 
ATOM      5  C   UNL     1       0.459   6.207  33.247  0.00  0.00    +0.009 A 
ATOM      6  C   UNL     1       1.366   6.080  32.197  0.00  0.00    +0.045 A 
ATOM     21  C   UNL     1       1.046   6.597  30.939  0.00  0.00    -0.026 A 
ATOM     22  C   UNL     1      -0.176   7.225  30.723  0.00  0.00    -0.038 A 
ATOM     23  C   UNL     1      -1.084   7.347  31.776  0.00  0.00    -0.038 A 
ATOM     24  C   UNL     1      -2.409   8.031  31.547  0.00  0.00    +0.059 C 
ENDROOT
BRANCH   4   3
ATOM      1  O   UNL     1      -0.765   8.912  34.658  0.00  0.00    -0.378 OA
ATOM      2  C   UNL     1      -1.631   8.041  34.883  0.00  0.00    +0.328 C 
ATOM      3  N   UNL     1      -1.662   6.972  34.096  0.00  0.00    -0.196 N 
ATOM     25  C   UNL     1      -2.613   6.228  34.488  0.00  0.00    +0.233 C 
ATOM     26  C   UNL     1      -3.564   6.009  35.280  0.00  0.00    +0.043 A 
ATOM     27  C   UNL     1      -4.470   4.962  35.381  0.00  0.00    +0.075 A 
ATOM     28  N   UNL     1      -5.386   5.041  36.363  0.00  0.00    -0.287 NA
ATOM     29  C   UNL     1      -5.397   6.106  37.215  0.00  0.00    +0.159 A 
ATOM     30  N   UNL     1      -6.311   6.166  38.206  0.00  0.00    -0.311 N 
ATOM     31  H   UNL     1      -6.999   5.408  38.318  0.00  0.00    +0.180 HD
ATOM     32  H   UNL     1      -6.320   6.970  38.850  0.00  0.00    +0.180 HD
ATOM     33  N   UNL     1      -4.514   7.123  37.112  0.00  0.00    -0.249 NA
ATOM     34  C   UNL     1      -3.580   7.096  36.145  0.00  0.00    +0.150 A 
ATOM     35  N   UNL     1      -2.592   8.124  35.948  0.00  0.00    -0.185 N 
ATOM     36  C   UNL     1      -2.575   9.278  36.844  0.00  0.00    +0.219 C 
ENDBRANCH   4   3
BRANCH   6   7
ATOM      7  N   UNL     1       2.567   5.471  32.377  0.00  0.00    -0.240 N 
ATOM      8  H   UNL     1       3.172   5.426  31.582  0.00  0.00    +0.223 HD
ATOM      9  C   UNL     1       3.023   4.925  33.512  0.00  0.00    +0.237 C 
ATOM     20  O   UNL     1       2.380   4.925  34.549  0.00  0.00    -0.373 OA
BRANCH   9  10
ATOM     10  C   UNL     1       4.395   4.287  33.457  0.00  0.00    +0.085 A 
ATOM     11  C   UNL     1       5.377   4.868  32.652  0.00  0.00    +0.076 A 
ATOM     12  C   UNL     1       6.644   4.304  32.571  0.00  0.00    +0.044 A 
ATOM     13  C   UNL     1       6.927   3.148  33.297  0.00  0.00    +0.061 A 
ATOM     14  C   UNL     1       5.963   2.548  34.107  0.00  0.00    +0.054 A 
ATOM     19  C   UNL     1       4.688   3.122  34.178  0.00  0.00    +0.081 A 
BRANCH  14  15
ATOM     15  C   UNL     1       6.300   1.291  34.884  0.00  0.00    +0.378 C 
ATOM     16  F   UNL     1       5.525   0.277  34.493  0.00  0.00    -0.220 F 
ATOM     17  F   UNL     1       7.578   0.968  34.717  0.00  0.00    -0.220 F 
ATOM     18  F   UNL     1       6.114   1.519  36.170  0.00  0.00    -0.220 F 
ENDBRANCH  14  15
ENDBRANCH   9  10
ENDBRANCH   6   7
TORSDOF 4
