REMARK  Name = 9AW
REMARK  2 active torsions:
REMARK  status: ('A' for Active; 'I' for Inactive)
REMARK    1  A    between atoms: CAR_6  and  CAO_7
REMARK    2  A    between atoms: CAL_12  and  CAD_13
REMARK                            x       y       z     vdW  Elec       q    Type
REMARK                         _______ _______ _______ _____ _____    ______ ____
ROOT
ATOM      3  C   UNL     1       6.383  38.364   7.951  0.00  0.00    +0.018 A 
ATOM      4  C   UNL     1       6.873  39.265   8.889  0.00  0.00    +0.002 A 
ATOM      5  C   UNL     1       6.977  38.904  10.246  0.00  0.00    +0.003 A 
ATOM      6  C   UNL     1       6.600  37.616  10.709  0.00  0.00    +0.036 A 
ATOM     18  C   UNL     1       6.058  36.747   9.760  0.00  0.00    +0.003 A 
ATOM     19  C   UNL     1       5.953  37.126   8.422  0.00  0.00    +0.002 A 
ENDROOT
BRANCH   6   7
ATOM      7  C   UNL     1       6.620  37.274  12.078  0.00  0.00    +0.165 A 
ATOM      8  N   UNL     1       7.367  38.002  12.984  0.00  0.00    -0.189 NA
ATOM      9  C   UNL     1       7.349  37.734  14.360  0.00  0.00    +0.282 A 
ATOM     10  O   UNL     1       8.096  38.406  15.091  0.00  0.00    -0.265 OA
ATOM     11  C   UNL     1       6.466  36.745  14.826  0.00  0.00    +0.076 A 
ATOM     12  C   UNL     1       6.357  36.413  16.170  0.00  0.00    +0.006 A 
ATOM     13  C   UNL     1       5.502  35.389  16.563  0.00  0.00    +0.000 A 
ATOM     14  C   UNL     1       4.769  34.673  15.591  0.00  0.00    +0.002 A 
ATOM     15  C   UNL     1       4.881  35.003  14.251  0.00  0.00    +0.019 A 
ATOM     16  C   UNL     1       5.743  36.029  13.867  0.00  0.00    +0.088 A 
ATOM     17  N   UNL     1       5.789  36.317  12.554  0.00  0.00    -0.226 NA
ENDBRANCH   6   7
BRANCH   3   2
ATOM      1  C   UNL     1       5.703  39.960   6.236  0.00  0.00    +0.019 A 
ATOM      2  C   UNL     1       6.207  38.701   6.584  0.00  0.00    +0.081 A 
ATOM     20  N   UNL     1       6.415  37.761   5.640  0.00  0.00    -0.244 NA
ATOM     21  C   UNL     1       6.207  38.072   4.279  0.00  0.00    +0.099 A 
ATOM     22  C   UNL     1       5.723  39.324   3.918  0.00  0.00    +0.021 A 
ATOM     23  C   UNL     1       5.473  40.295   4.889  0.00  0.00    +0.003 A 
ENDBRANCH   3   2
TORSDOF 2
