REMARK  Name = 5L4
REMARK  6 active torsions:
REMARK  status: ('A' for Active; 'I' for Inactive)
REMARK    1  A    between atoms: C18_2  and  N10_23
REMARK    2  A    between atoms: C17_3  and  C24_10
REMARK    3  A    between atoms: C17_3  and  C14_24
REMARK    4  A    between atoms: C23_9  and  N26_27
REMARK    5  A    between atoms: C11_11  and  C2_15
REMARK    6  A    between atoms: C4_17  and  C8_21
REMARK                            x       y       z     vdW  Elec       q    Type
REMARK                         _______ _______ _______ _____ _____    ______ ____
ROOT
ATOM      4  C   UNL     1      12.399  -1.920   5.863  0.00  0.00    +0.101 A 
ATOM      5  N   UNL     1      13.462  -1.940   6.697  0.00  0.00    -0.236 NA
ATOM      6  C   UNL     1      13.261  -2.259   7.999  0.00  0.00    +0.171 A 
ATOM     22  C   UNL     1      11.950  -2.593   8.475  0.00  0.00    +0.192 A 
ATOM     23  N   UNL     1      11.680  -2.809   9.768  0.00  0.00    -0.105 NA
ATOM     24  N   UNL     1      10.910  -2.598   7.614  0.00  0.00    -0.223 NA
ATOM     25  C   UNL     1      11.121  -2.248   6.348  0.00  0.00    +0.120 A 
ENDROOT
BRANCH   4   3
ATOM      1  C   UNL     1      14.193  -1.053   2.629  0.00  0.00    -0.004 A 
ATOM      2  C   UNL     1      13.954  -1.464   3.935  0.00  0.00    +0.001 A 
ATOM      3  C   UNL     1      12.652  -1.557   4.441  0.00  0.00    +0.019 A 
ATOM     26  C   UNL     1      11.602  -1.280   3.554  0.00  0.00    +0.001 A 
ATOM     27  C   UNL     1      11.849  -0.887   2.249  0.00  0.00    -0.004 A 
ATOM     28  C   UNL     1      13.146  -0.763   1.769  0.00  0.00    -0.020 A 
BRANCH  28  29
ATOM     29  C   UNL     1      13.408  -0.377   0.337  0.00  0.00    +0.062 C 
BRANCH  29  30
ATOM     30  C   UNL     1      13.603  -1.586  -0.552  0.00  0.00    +0.187 C 
ATOM     31  O   UNL     1      13.622  -1.230  -1.891  0.00  0.00    -0.220 OA
ENDBRANCH  29  30
ENDBRANCH  28  29
ENDBRANCH   4   3
BRANCH   6   7
ATOM      7  C   UNL     1      14.472  -2.222   8.893  0.00  0.00    +0.290 C 
ATOM      8  O   UNL     1      14.390  -2.516  10.087  0.00  0.00    -0.266 OA
ATOM      9  N   UNL     1      15.606  -1.845   8.272  0.00  0.00    -0.171 NA
BRANCH   9  10
ATOM     10  C   UNL     1      16.916  -1.660   8.774  0.00  0.00    +0.106 A 
ATOM     11  C   UNL     1      17.342  -2.096  10.041  0.00  0.00    +0.117 A 
ATOM     12  N   UNL     1      18.592  -1.900  10.496  0.00  0.00    -0.241 NA
ATOM     13  C   UNL     1      19.460  -1.264   9.693  0.00  0.00    +0.100 A 
ATOM     14  C   UNL     1      19.126  -0.744   8.453  0.00  0.00    +0.036 A 
ATOM     15  C   UNL     1      17.826  -0.941   7.986  0.00  0.00    +0.067 A 
BRANCH  15  16
ATOM     16  N   UNL     1      17.355  -0.348   6.793  0.00  0.00    -0.302 N 
ATOM     17  C   UNL     1      16.526   0.851   6.949  0.00  0.00    +0.123 C 
ATOM     18  C   UNL     1      15.677   1.006   5.742  0.00  0.00    +0.164 C 
ATOM     19  O   UNL     1      16.486   1.121   4.519  0.00  0.00    -0.350 OA
ATOM     20  C   UNL     1      17.461   0.050   4.362  0.00  0.00    +0.164 C 
ATOM     21  C   UNL     1      18.251  -0.273   5.633  0.00  0.00    +0.123 C 
ENDBRANCH  15  16
ENDBRANCH   9  10
ENDBRANCH   6   7
TORSDOF 6
