REMARK  Name = 5CY3
REMARK  6 active torsions:
REMARK  status: ('A' for Active; 'I' for Inactive)
REMARK    1  A    between atoms: N_1  and  C_24
REMARK    2  A    between atoms: C_3  and  C_21
REMARK    3  A    between atoms: C_9  and  C_14
REMARK    4  A    between atoms: C_14  and  C_15
REMARK    5  A    between atoms: C_14  and  O_16
REMARK    6  A    between atoms: O_16  and  C_17
REMARK                            x       y       z     vdW  Elec       q    Type
REMARK                         _______ _______ _______ _____ _____    ______ ____
ROOT
ATOM      6  C   UNL     1      -7.041 -13.707 -16.425  0.00  0.00    -0.009 A 
ATOM      7  C   UNL     1      -5.611 -13.623 -16.237  0.00  0.00    +0.055 A 
ATOM      8  C   UNL     1      -4.990 -12.482 -15.937  0.00  0.00    +0.131 A 
ATOM     18  C   UNL     1      -5.740 -11.311 -15.771  0.00  0.00    +0.051 A 
ATOM     19  C   UNL     1      -5.396 -10.009 -15.445  0.00  0.00    +0.079 A 
ATOM     20  S   UNL     1      -6.745  -8.998 -15.472  0.00  0.00    +0.005 S 
ATOM     21  N   UNL     1      -7.703 -10.204 -15.856  0.00  0.00    -0.210 NA
ATOM     22  C   UNL     1      -7.131 -11.367 -15.990  0.00  0.00    +0.084 A 
ATOM     23  C   UNL     1      -7.753 -12.612 -16.324  0.00  0.00    +0.038 A 
ENDROOT
BRANCH   6   5
ATOM      1  N   UNL     1      -9.028 -16.572 -17.242  0.00  0.00    -0.274 N 
ATOM      2  C   UNL     1     -10.257 -17.283 -17.636  0.00  0.00    +0.172 C 
ATOM      3  N   UNL     1      -7.942 -17.158 -17.116  0.00  0.00    -0.179 NA
ATOM      4  C   UNL     1      -7.082 -16.221 -16.773  0.00  0.00    +0.143 A 
ATOM      5  C   UNL     1      -7.646 -14.986 -16.699  0.00  0.00    +0.020 A 
ATOM     24  C   UNL     1      -8.944 -15.260 -17.019  0.00  0.00    +0.116 A 
ENDBRANCH   6   5
BRANCH   8   9
ATOM      9  O   UNL     1      -3.654 -12.325 -15.800  0.00  0.00    -0.484 OA
BRANCH   9  10
ATOM     10  C   UNL     1      -2.784 -13.323 -16.117  0.00  0.00    +0.216 C 
ATOM     11  C   UNL     1      -2.474 -14.188 -14.958  0.00  0.00    +0.056 C 
BRANCH  10  12
ATOM     12  C   UNL     1      -1.454 -12.598 -16.535  0.00  0.00    +0.257 C 
ATOM     13  O   UNL     1      -1.117 -11.681 -15.579  0.00  0.00    -0.437 OA
ATOM     14  C   UNL     1      -1.209 -10.462 -16.058  0.00  0.00    +0.425 C 
ATOM     15  O   UNL     1      -1.054  -9.520 -15.408  0.00  0.00    -0.224 OA
ATOM     16  N   UNL     1      -1.578 -10.481 -17.372  0.00  0.00    -0.152 NA
ATOM     17  C   UNL     1      -1.728 -11.757 -17.818  0.00  0.00    +0.125 C 
ENDBRANCH  10  12
ENDBRANCH   9  10
ENDBRANCH   8   9
TORSDOF 4
