REMARK  Name = MCY
REMARK  2 active torsions:
REMARK  status: ('A' for Active; 'I' for Inactive)
REMARK    1  A    between atoms: N1_1  and  C1'_9
REMARK    2  A    between atoms: C4'_12  and  C5'_15
REMARK                            x       y       z     vdW  Elec       q    Type
REMARK                         _______ _______ _______ _____ _____    ______ ____
ROOT
ATOM      1  N   UNL     1     -10.633  26.932 -15.696  0.00  0.00    -0.256 N 
ATOM      2  C   UNL     1     -11.537  26.131 -15.134  0.00  0.00    +0.353 C 
ATOM      3  N   UNL     1     -11.175  24.931 -14.629  0.00  0.00    -0.174 NA
ATOM      4  C   UNL     1      -9.872  24.521 -14.654  0.00  0.00    +0.172 C 
ATOM      5  N   UNL     1      -9.514  23.312 -14.158  0.00  0.00    -0.107 NA
ATOM      6  C   UNL     1      -8.926  25.340 -15.230  0.00  0.00    +0.030 C 
ATOM      7  C   UNL     1      -7.479  24.960 -15.308  0.00  0.00    +0.036 C 
ATOM      8  O   UNL     1     -12.831  26.552 -15.063  0.00  0.00    -0.244 OA
ATOM      9  C   UNL     1      -9.333  26.565 -15.761  0.00  0.00    +0.081 C 
ENDROOT
BRANCH   1  10
ATOM     10  C1* UNL     1     -11.053  28.195 -16.316  0.00  0.00    +0.211 C 
ATOM     11  C2* UNL     1     -10.553  29.485 -15.716  0.00  0.00    +0.089 C 
ATOM     12  C3* UNL     1     -10.343  30.384 -16.945  0.00  0.00    +0.186 C 
ATOM     13  O3* UNL     1     -11.570  30.989 -17.331  0.00  0.00    -0.220 OA
ATOM     14  C4* UNL     1     -10.006  29.447 -18.090  0.00  0.00    +0.180 C 
ATOM     17  O4* UNL     1     -10.501  28.167 -17.668  0.00  0.00    -0.333 OA
BRANCH  14  15
ATOM     15  C5* UNL     1      -8.511  29.482 -18.441  0.00  0.00    +0.214 C 
ATOM     16  O5* UNL     1      -7.785  29.084 -17.280  0.00  0.00    -0.218 OA
ENDBRANCH  14  15
ENDBRANCH   1  10
TORSDOF 2
