REMARK  Name = 5UVF
REMARK  9 active torsions:
REMARK  status: ('A' for Active; 'I' for Inactive)
REMARK    1  A    between atoms: C_1  and  N_25
REMARK    2  A    between atoms: C_4  and  O_17
REMARK    3  A    between atoms: C_8  and  N_24
REMARK    4  A    between atoms: C_9  and  C_10
REMARK    5  A    between atoms: C_10  and  C_11
REMARK    6  A    between atoms: C_10  and  C_12
REMARK    7  A    between atoms: C_12  and  C_13
REMARK    8  A    between atoms: C_13  and  N_27
REMARK    9  A    between atoms: C_20  and  C_28
REMARK                            x       y       z     vdW  Elec       q    Type
REMARK                         _______ _______ _______ _____ _____    ______ ____
ROOT
ATOM      1  C   UNL     1      30.971   8.599  12.655  0.00  0.00    +0.138 C 
ATOM      2  N   UNL     1      30.928   7.308  13.351  0.00  0.00    -0.269 N 
ATOM      3  C   UNL     1      31.795   7.108  14.377  0.00  0.00    +0.240 C 
ATOM      4  O   UNL     1      32.556   7.982  14.724  0.00  0.00    -0.273 OA
ATOM      5  C   UNL     1      31.761   5.742  15.042  0.00  0.00    +0.158 C 
ATOM      6  C   UNL     1      32.940   4.896  14.587  0.00  0.00    +0.038 C 
ATOM      7  N   UNL     1      30.479   5.042  14.899  0.00  0.00    -0.304 N 
ATOM      8  C   UNL     1      29.760   5.200  13.742  0.00  0.00    +0.126 A 
ATOM      9  N   UNL     1      28.879   4.251  13.387  0.00  0.00    -0.311 N 
ATOM     10  H   UNL     1      28.710   3.379  13.983  0.00  0.00    +0.170 HD
ATOM     11  C   UNL     1      28.217   4.470  12.223  0.00  0.00    +0.230 A 
ATOM     12  N   UNL     1      27.314   3.566  11.801  0.00  0.00    -0.213 NA
ATOM     23  N   UNL     1      28.366   5.519  11.404  0.00  0.00    -0.219 NA
ATOM     24  C   UNL     1      29.246   6.433  11.762  0.00  0.00    +0.141 A 
ATOM     30  C   UNL     1      29.988   6.329  12.948  0.00  0.00    +0.093 A 
ENDROOT
BRANCH  12  13
ATOM     13  C   UNL     1      26.876   2.391  12.440  0.00  0.00    +0.073 A 
ATOM     14  C   UNL     1      27.689   1.776  13.378  0.00  0.00    +0.070 A 
ATOM     15  C   UNL     1      27.239   0.636  13.987  0.00  0.00    +0.170 A 
ATOM     16  F   UNL     1      28.019   0.026  14.897  0.00  0.00    -0.202 F 
ATOM     17  C   UNL     1      26.006   0.090  13.698  0.00  0.00    +0.188 A 
ATOM     20  C   UNL     1      25.220   0.726  12.758  0.00  0.00    +0.170 A 
ATOM     21  F   UNL     1      24.015   0.211  12.452  0.00  0.00    -0.202 F 
ATOM     22  C   UNL     1      25.631   1.868  12.125  0.00  0.00    +0.070 A 
BRANCH  17  18
ATOM     18  O   UNL     1      25.598  -1.031  14.318  0.00  0.00    -0.502 OA
ATOM     19  H   UNL     1      24.710  -0.837  14.844  0.00  0.00    +0.292 HD
ENDBRANCH  17  18
ENDBRANCH  12  13
BRANCH   7  25
ATOM     25  C   UNL     1      30.036   4.163  15.981  0.00  0.00    +0.107 C 
BRANCH  25  26
ATOM     26  C   UNL     1      28.631   4.305  16.534  0.00  0.00    +0.022 C 
BRANCH  26  27
ATOM     27  C   UNL     1      28.329   3.231  17.575  0.00  0.00    -0.016 C 
ATOM     28  C   UNL     1      27.450   2.138  16.994  0.00  0.00    +0.007 C 
ATOM     29  C   UNL     1      29.613   2.635  18.121  0.00  0.00    +0.007 C 
ENDBRANCH  26  27
ENDBRANCH  25  26
ENDBRANCH   7  25
TORSDOF 5
