REMARK  Name = 5KMM
REMARK  4 active torsions:
REMARK  status: ('A' for Active; 'I' for Inactive)
REMARK    1  A    between atoms: C_2  and  N_20
REMARK    2  A    between atoms: C_3  and  N_16
REMARK    3  A    between atoms: C_10  and  C_25
REMARK    4  A    between atoms: C_23  and  C_24
REMARK                            x       y       z     vdW  Elec       q    Type
REMARK                         _______ _______ _______ _____ _____    ______ ____
ROOT
ATOM     14  N   UNL     1     -16.446  -3.264 -24.061  0.00  0.00    -0.266 N 
ATOM     15  H   UNL     1     -15.812  -3.634 -23.283  0.00  0.00    +0.157 HD
ATOM     16  C   UNL     1     -17.157  -4.169 -24.807  0.00  0.00    +0.308 C 
ATOM     17  N   UNL     1     -16.772  -5.475 -24.674  0.00  0.00    -0.269 N 
ATOM     18  H   UNL     1     -15.703  -5.490 -24.637  0.00  0.00    +0.156 HD
ATOM     29  O   UNL     1     -18.027  -3.833 -25.601  0.00  0.00    -0.252 OA
ENDROOT
BRANCH  17  19
ATOM     19  C   UNL     1     -17.218  -6.814 -24.566  0.00  0.00    +0.043 A 
ATOM     20  C   UNL     1     -16.806  -7.712 -25.529  0.00  0.00    +0.024 A 
ATOM     21  C   UNL     1     -17.410  -8.957 -25.641  0.00  0.00    +0.002 A 
ATOM     22  C   UNL     1     -18.407  -9.338 -24.787  0.00  0.00    +0.008 A 
ATOM     23  C   UNL     1     -18.852  -8.473 -23.759  0.00  0.00    -0.016 A 
ATOM     24  C   UNL     1     -19.800  -8.889 -22.786  0.00  0.00    +0.008 A 
ATOM     25  C   UNL     1     -20.160  -8.060 -21.758  0.00  0.00    +0.001 A 
ATOM     26  C   UNL     1     -19.611  -6.790 -21.651  0.00  0.00    +0.001 A 
ATOM     27  C   UNL     1     -18.689  -6.346 -22.564  0.00  0.00    +0.010 A 
ATOM     28  C   UNL     1     -18.268  -7.172 -23.645  0.00  0.00    +0.003 A 
ENDBRANCH  17  19
BRANCH  14  13
ATOM      1  C   UNL     1     -15.350  -1.185 -24.670  0.00  0.00    +0.138 A 
ATOM      2  N   UNL     1     -15.375   0.106 -25.031  0.00  0.00    -0.239 NA
ATOM      3  C   UNL     1     -16.562   0.729 -24.987  0.00  0.00    +0.127 A 
ATOM      4  C   UNL     1     -16.603   2.157 -25.430  0.00  0.00    +0.088 C 
ATOM      5  N   UNL     1     -17.719   0.188 -24.591  0.00  0.00    -0.231 NA
ATOM      6  C   UNL     1     -17.744  -1.099 -24.212  0.00  0.00    +0.096 A 
ATOM     13  C   UNL     1     -16.510  -1.853 -24.271  0.00  0.00    +0.079 A 
BRANCH   6   7
ATOM      7  C   UNL     1     -19.062  -1.575 -23.715  0.00  0.00    +0.002 A 
ATOM      8  C   UNL     1     -20.246  -1.184 -24.344  0.00  0.00    +0.010 A 
ATOM      9  C   UNL     1     -21.479  -1.627 -23.875  0.00  0.00    +0.001 A 
ATOM     10  C   UNL     1     -21.547  -2.455 -22.771  0.00  0.00    +0.000 A 
ATOM     11  C   UNL     1     -20.383  -2.849 -22.135  0.00  0.00    +0.001 A 
ATOM     12  C   UNL     1     -19.148  -2.416 -22.603  0.00  0.00    +0.010 A 
ENDBRANCH   6   7
ENDBRANCH  14  13
TORSDOF 3
