REMARK  Name = 2x39_ligand
REMARK  4 active torsions:
REMARK  status: ('A' for Active; 'I' for Inactive)
REMARK    1  A    between atoms: C4_4  and  N5_5
REMARK    2  A    between atoms: C4_4  and  C11_8
REMARK    3  A    between atoms: N13_10  and  C14_11
REMARK    4  A    between atoms: C14_11  and  C15_12
REMARK                            x       y       z     vdW  Elec       q    Type
REMARK                         _______ _______ _______ _____ _____    ______ ____
ROOT
ATOM      1  N   UNL     1      45.157  33.253 111.378  0.00  0.00    -0.288 N 
ATOM      2  C   UNL     1      45.406  34.612 111.762  0.00  0.00    +0.121 A 
ATOM      3  C   UNL     1      44.420  35.637 111.775  0.00  0.00    +0.043 A 
ATOM      4  C   UNL     1      43.098  35.767 111.499  0.00  0.00    -0.023 A 
ATOM      5  C   UNL     1      42.719  37.044 111.710  0.00  0.00    +0.117 A 
ATOM      6  N   UNL     1      43.799  37.725 112.115  0.00  0.00    -0.267 N 
ATOM      7  H   UNL     1      43.816  38.727 112.352  0.00  0.00    +0.232 HD
ATOM      8  C   UNL     1      44.865  36.890 112.165  0.00  0.00    +0.136 A 
ATOM      9  N   UNL     1      46.112  37.185 112.523  0.00  0.00    -0.277 NA
ATOM     10  C   UNL     1      46.951  36.147 112.469  0.00  0.00    +0.148 A 
ATOM     11  N   UNL     1      46.680  34.893 112.108  0.00  0.00    -0.273 NA
ATOM     12  C   UNL     1      46.218  32.262 111.516  0.00  0.00    +0.143 C 
ATOM     13  C   UNL     1      46.125  31.598 112.866  0.00  0.00    +0.088 C 
ATOM     14  C   UNL     1      44.757  30.942 113.072  0.00  0.00    +0.072 C 
ATOM     31  C   UNL     1      43.627  31.948 112.779  0.00  0.00    +0.088 C 
ATOM     32  C   UNL     1      43.822  32.649 111.446  0.00  0.00    +0.143 C 
ENDROOT
BRANCH  14  15
ATOM     15  C   UNL     1      44.657  29.665 112.212  0.00  0.00    +0.249 C 
ATOM     16  N   UNL     1      43.452  29.124 112.035  0.00  0.00    -0.270 N 
ATOM     17  H   UNL     1      42.660  29.522 112.499  0.00  0.00    +0.189 HD
ATOM     26  O   UNL     1      45.636  29.172 111.730  0.00  0.00    -0.338 OA
BRANCH  16  18
ATOM     18  C   UNL     1      43.272  27.965 111.178  0.00  0.00    +0.202 C 
BRANCH  18  19
ATOM     19  C   UNL     1      42.554  28.324 109.911  0.00  0.00    -0.021 A 
ATOM     20  C   UNL     1      41.159  28.399 109.888  0.00  0.00    -0.002 A 
ATOM     21  C   UNL     1      40.496  28.732 108.727  0.00  0.00    +0.006 A 
ATOM     22  C   UNL     1      41.217  28.999 107.579  0.00  0.00    +0.033 A 
ATOM     23 CL   UNL     1      40.379  29.417 106.123  0.00  0.00    -0.077 Cl
ATOM     24  C   UNL     1      42.598  28.932 107.581  0.00  0.00    +0.006 A 
ATOM     25  C   UNL     1      43.266  28.595 108.743  0.00  0.00    -0.002 A 
ENDBRANCH  18  19
ENDBRANCH  16  18
ENDBRANCH  14  15
BRANCH  14  27
ATOM     27  N   UNL     1      44.661  30.516 114.512  0.00  0.00    +0.223 N 
ATOM     28  H   UNL     1      44.758  31.323 115.108  0.00  0.00    +0.200 HD
ATOM     29  H   UNL     1      43.766  30.083 114.675  0.00  0.00    +0.200 HD
ATOM     30  H   UNL     1      45.396  29.857 114.717  0.00  0.00    +0.200 HD
ENDBRANCH  14  27
TORSDOF 4
