REMARK  Name = 4L46
REMARK  6 active torsions:
REMARK  status: ('A' for Active; 'I' for Inactive)
REMARK    1  A    between atoms: C_1  and  N_25
REMARK    2  A    between atoms: C_2  and  C_26
REMARK    3  A    between atoms: C_7  and  C_10
REMARK    4  A    between atoms: C_18  and  C_19
REMARK    5  A    between atoms: C_19  and  N_20
REMARK    6  A    between atoms: C_26  and  C_27
REMARK                            x       y       z     vdW  Elec       q    Type
REMARK                         _______ _______ _______ _____ _____    ______ ____
ROOT
ATOM      7  C   UNL     1      50.281 -22.148  11.786  0.00  0.00    +0.158 C 
ENDROOT
BRANCH   7   8
ATOM      8  C   UNL     1      51.497 -22.029  10.892  0.00  0.00    +0.122 A 
ATOM      9  N   UNL     1      51.560 -22.074   9.548  0.00  0.00    -0.341 N 
ATOM     10  H   UNL     1      50.727 -22.222   8.893  0.00  0.00    +0.167 HD
ATOM     11  C   UNL     1      52.836 -21.904   9.159  0.00  0.00    +0.067 A 
ATOM     12  C   UNL     1      53.571 -21.763  10.313  0.00  0.00    +0.089 A 
ATOM     13  C   UNL     1      54.951 -21.597  10.261  0.00  0.00    +0.030 A 
ATOM     14  C   UNL     1      55.588 -21.539   9.027  0.00  0.00    +0.014 A 
ATOM     15  C   UNL     1      54.861 -21.670   7.864  0.00  0.00    +0.057 A 
ATOM     20  C   UNL     1      53.478 -21.838   7.926  0.00  0.00    +0.040 A 
ATOM     21  N   UNL     1      52.737 -21.826  11.354  0.00  0.00    -0.231 NA
BRANCH  15  16
ATOM     16  C   UNL     1      55.635 -21.601   6.566  0.00  0.00    +0.417 C 
ATOM     17  F   UNL     1      56.521 -22.594   6.328  0.00  0.00    -0.166 F 
ATOM     18  F   UNL     1      56.382 -20.521   6.616  0.00  0.00    -0.166 F 
ATOM     19  F   UNL     1      54.749 -21.516   5.588  0.00  0.00    -0.166 F 
ENDBRANCH  15  16
ENDBRANCH   7   8
BRANCH   7   5
ATOM      2  N   UNL     1      48.568 -18.318  12.520  0.00  0.00    -0.313 N 
ATOM      3  C   UNL     1      48.040 -19.250  11.535  0.00  0.00    +0.122 C 
ATOM      4  C   UNL     1      48.390 -20.714  11.879  0.00  0.00    +0.104 C 
ATOM      5  N   UNL     1      49.832 -20.754  12.027  0.00  0.00    -0.292 NA
ATOM      6  C   UNL     1      50.092 -20.124  13.348  0.00  0.00    +0.104 C 
ATOM     22  C   UNL     1      49.788 -18.632  13.281  0.00  0.00    +0.122 C 
BRANCH   2   1
ATOM      1  C   UNL     1      47.917 -17.056  12.692  0.00  0.00    +0.128 A 
ATOM     23  N   UNL     1      47.766 -16.569  13.958  0.00  0.00    -0.221 NA
ATOM     24  C   UNL     1      47.190 -15.379  14.194  0.00  0.00    +0.223 A 
ATOM     25  N   UNL     1      46.753 -14.601  13.198  0.00  0.00    -0.243 NA
ATOM     26  C   UNL     1      46.871 -15.003  11.934  0.00  0.00    +0.119 A 
ATOM     27  C   UNL     1      47.452 -16.232  11.642  0.00  0.00    +0.010 A 
BRANCH  27  28
ATOM     28  C   UNL     1      47.512 -16.591  10.195  0.00  0.00    +0.037 C 
ATOM     29  C   UNL     1      48.842 -16.289   9.560  0.00  0.00    +0.009 C 
ENDBRANCH  27  28
ENDBRANCH   2   1
ENDBRANCH   7   5
TORSDOF 5
