REMARK  Name = 201
REMARK  11 active torsions:
REMARK  status: ('A' for Active; 'I' for Inactive)
REMARK    1  A    between atoms: C06_11  and  C06_12
REMARK    2  A    between atoms: C06_12  and  C13_26
REMARK    3  A    between atoms: C13_26  and  C14_28
REMARK    4  A    between atoms: O17_34  and  C19_37
REMARK    5  A    between atoms: O17_34  and  C20_39
REMARK    6  A    between atoms: N18_35  and  N18_36
REMARK    7  A    between atoms: C20_39  and  C21_41
REMARK    8  A    between atoms: C21_41  and  C22_43
REMARK    9  A    between atoms: C25_49  and  C25_50
REMARK   10  A    between atoms: C25_49  and  C26_52
REMARK   11  A    between atoms: C26_51  and  C26_52
REMARK                            x       y       z     vdW  Elec       q    Type
REMARK                         _______ _______ _______ _____ _____    ______ ____
ROOT
ATOM      1  O   UNL     1      -9.000  10.504   2.615  0.00  0.00    -0.354 OA
ATOM      2  C   UNL     1      -8.000  10.553   3.432  0.00  0.00    +0.142 C 
ATOM      3  C   UNL     1      -8.000  11.491   4.548  0.00  0.00    +0.032 C 
ATOM      4  C   UNL     1      -9.000  12.550   4.006  0.00  0.00    +0.005 C 
ATOM      5  C   UNL     1      -9.000  12.646   2.549  0.00  0.00    +0.032 C 
ATOM      6  C   UNL     1      -8.000  11.196   2.140  0.00  0.00    +0.142 C 
ENDROOT
TORSDOF 0
