REMARK  Name = 5I9X
REMARK  13 active torsions:
REMARK  status: ('A' for Active; 'I' for Inactive)
REMARK    1  A    between atoms: C_1  and  O_22
REMARK    2  A    between atoms: O_2  and  C_24
REMARK    3  A    between atoms: O_2  and  C_36
REMARK    4  A    between atoms: C_3  and  C_13
REMARK    5  A    between atoms: C_3  and  N_34
REMARK    6  A    between atoms: C_7  and  C_27
REMARK    7  A    between atoms: C_13  and  C_14
REMARK    8  A    between atoms: C_14  and  O_23
REMARK    9  A    between atoms: C_15  and  N_35
REMARK   10  A    between atoms: N_21  and  C_28
REMARK   11  A    between atoms: N_21  and  C_31
REMARK   12  A    between atoms: O_22  and  C_29
REMARK   13  A    between atoms: O_23  and  C_30
REMARK                            x       y       z     vdW  Elec       q    Type
REMARK                         _______ _______ _______ _____ _____    ______ ____
ROOT
ATOM      3  C   UNL     1     -85.676 -14.569   7.629  0.00  0.00    +0.162 A 
ATOM      4  C   UNL     1     -85.675 -14.111   6.321  0.00  0.00    +0.164 A 
ATOM     16  C   UNL     1     -86.862 -13.873   5.654  0.00  0.00    +0.077 A 
ATOM     17  C   UNL     1     -88.058 -14.104   6.334  0.00  0.00    +0.076 A 
ATOM     18  C   UNL     1     -88.079 -14.568   7.662  0.00  0.00    +0.026 A 
ATOM     19  C   UNL     1     -89.314 -14.794   8.303  0.00  0.00    +0.060 A 
ATOM     20  C   UNL     1     -90.503 -14.529   7.604  0.00  0.00    +0.091 A 
ATOM     21  C   UNL     1     -90.435 -14.076   6.295  0.00  0.00    +0.132 A 
ATOM     36  N   UNL     1     -89.213 -13.872   5.674  0.00  0.00    -0.254 NA
ATOM     37  C   UNL     1     -86.865 -14.802   8.317  0.00  0.00    +0.061 A 
ENDROOT
BRANCH   3   2
ATOM      1  C   UNL     1     -84.413 -15.372   9.456  0.00  0.00    +0.277 C 
ATOM      2  O   UNL     1     -84.427 -14.764   8.161  0.00  0.00    -0.491 OA
ENDBRANCH   3   2
BRANCH  20  22
ATOM     22  C   UNL     1     -91.797 -14.652   8.182  0.00  0.00    +0.103 C 
ATOM     23  N   UNL     1     -92.762 -14.793   8.676  0.00  0.00    -0.191 NA
ENDBRANCH  20  22
BRANCH  19  24
ATOM     24  N   UNL     1     -89.322 -15.260   9.598  0.00  0.00    -0.312 N 
ATOM     25  H   UNL     1     -88.516 -15.000  10.251  0.00  0.00    +0.152 HD
BRANCH  24  26
ATOM     26  C   UNL     1     -90.348 -16.057  10.076  0.00  0.00    +0.053 A 
ATOM     27  C   UNL     1     -90.961 -15.683  11.282  0.00  0.00    +0.064 A 
ATOM     28  C   UNL     1     -92.026 -16.396  11.821  0.00  0.00    +0.045 A 
ATOM     29  C   UNL     1     -92.529 -17.498  11.152  0.00  0.00    +0.084 A 
ATOM     30  C   UNL     1     -91.966 -17.875   9.945  0.00  0.00    +0.140 A 
ATOM     33 CL   UNL     1     -93.879 -18.414  11.795  0.00  0.00    -0.080 Cl
ATOM     34 CL   UNL     1     -90.430 -14.309  12.205  0.00  0.00    -0.082 Cl
ATOM     35  C   UNL     1     -90.871 -17.178   9.402  0.00  0.00    +0.072 A 
BRANCH  30  31
ATOM     31  O   UNL     1     -92.545 -18.978   9.368  0.00  0.00    -0.494 OA
ATOM     32  C   UNL     1     -92.100 -19.180   8.026  0.00  0.00    +0.277 C 
ENDBRANCH  30  31
ENDBRANCH  24  26
ENDBRANCH  19  24
BRANCH   4   5
ATOM      5  O   UNL     1     -84.443 -13.912   5.775  0.00  0.00    -0.488 OA
BRANCH   5   6
ATOM      6  C   UNL     1     -84.443 -13.615   4.373  0.00  0.00    +0.230 C 
BRANCH   6   7
ATOM      7  C   UNL     1     -82.976 -13.623   3.924  0.00  0.00    +0.056 C 
BRANCH   7   8
ATOM      8  C   UNL     1     -82.360 -12.277   4.268  0.00  0.00    +0.088 C 
BRANCH   8   9
ATOM      9  N   UNL     1     -80.931 -12.215   3.911  0.00  0.00    -0.300 NA
ATOM     10  C   UNL     1     -80.142 -12.860   4.974  0.00  0.00    +0.100 C 
ATOM     11  C   UNL     1     -78.655 -12.674   4.739  0.00  0.00    +0.099 C 
ATOM     12  N   UNL     1     -78.328 -11.241   4.681  0.00  0.00    -0.303 NA
ATOM     13  C   UNL     1     -79.076 -10.615   3.582  0.00  0.00    +0.099 C 
ATOM     14  C   UNL     1     -76.880 -11.057   4.497  0.00  0.00    +0.105 C 
ATOM     15  C   UNL     1     -80.569 -10.789   3.817  0.00  0.00    +0.100 C 
ENDBRANCH   8   9
ENDBRANCH   7   8
ENDBRANCH   6   7
ENDBRANCH   5   6
ENDBRANCH   4   5
TORSDOF 10
