REMARK  Name = 4RFM
REMARK  6 active torsions:
REMARK  status: ('A' for Active; 'I' for Inactive)
REMARK    1  A    between atoms: C_1  and  C_2
REMARK    2  A    between atoms: C_7  and  C_8
REMARK    3  A    between atoms: N_10  and  C_11
REMARK    4  A    between atoms: N_14  and  C_16
REMARK    5  A    between atoms: C_16  and  C_17
REMARK    6  A    between atoms: C_16  and  C_25
REMARK                            x       y       z     vdW  Elec       q    Type
REMARK                         _______ _______ _______ _____ _____    ______ ____
ROOT
ATOM     13  C   UNL     1      21.984   0.172   6.491  0.00  0.00    +0.072 A 
ATOM     14  C   UNL     1      23.216   0.391   7.024  0.00  0.00    +0.132 A 
ATOM     15  N   UNL     1      23.946  -0.728   6.738  0.00  0.00    -0.260 N 
ATOM     31  N   UNL     1      23.290  -1.675   6.042  0.00  0.00    -0.177 NA
ATOM     32  C   UNL     1      22.087  -1.120   5.907  0.00  0.00    +0.157 A 
ENDROOT
BRANCH  13  11
ATOM     10  C   UNL     1      19.760   0.907   5.869  0.00  0.00    +0.269 C 
ATOM     11  N   UNL     1      20.935   1.078   6.562  0.00  0.00    -0.278 N 
ATOM     12  H   UNL     1      21.045   1.944   7.181  0.00  0.00    +0.155 HD
ATOM     33  O   UNL     1      19.523  -0.134   5.274  0.00  0.00    -0.268 OA
BRANCH  10   9
ATOM      1  C   UNL     1      13.351   3.113   5.766  0.00  0.00    +0.018 C 
ATOM      2  C   UNL     1      14.707   2.965   5.165  0.00  0.00    +0.045 C 
ATOM      3  C   UNL     1      14.792   2.405   3.794  0.00  0.00    +0.259 C 
ATOM      4  F   UNL     1      13.624   2.203   3.085  0.00  0.00    -0.205 F 
ATOM      5  F   UNL     1      15.748   3.001   2.969  0.00  0.00    -0.205 F 
ATOM      6  C   UNL     1      15.154   1.532   4.947  0.00  0.00    +0.075 C 
ATOM      7  C   UNL     1      16.588   1.114   5.051  0.00  0.00    +0.049 C 
ATOM      8  C   UNL     1      17.485   2.143   5.589  0.00  0.00    +0.006 A 
ATOM      9  C   UNL     1      18.852   2.056   5.937  0.00  0.00    +0.150 A 
ATOM     34  N   UNL     1      19.243   3.262   6.391  0.00  0.00    -0.169 NA
ATOM     35  N   UNL     1      18.165   4.084   6.312  0.00  0.00    -0.281 N 
ATOM     36  H   UNL     1      18.168   5.114   6.602  0.00  0.00    +0.189 HD
ATOM     37  C   UNL     1      17.080   3.429   5.816  0.00  0.00    +0.041 A 
ATOM     38  C   UNL     1      15.734   4.008   5.582  0.00  0.00    +0.068 C 
ENDBRANCH  10   9
ENDBRANCH  13  11
BRANCH  15  16
ATOM     16  C   UNL     1      25.345  -0.884   7.103  0.00  0.00    +0.161 C 
BRANCH  16  23
ATOM     23  C   UNL     1      25.793  -2.326   7.260  0.00  0.00    +0.159 C 
ATOM     24  S   UNL     1      24.981  -3.061   8.679  0.00  0.00    -0.026 S 
ATOM     25  O   UNL     1      23.596  -3.335   8.340  0.00  0.00    -0.174 OA
ATOM     26  O   UNL     1      25.343  -2.302   9.866  0.00  0.00    -0.174 OA
ATOM     27  C   UNL     1      25.818  -4.663   8.767  0.00  0.00    +0.166 C 
ATOM     28  C   UNL     1      27.343  -4.609   8.711  0.00  0.00    +0.023 C 
ATOM     29  C   UNL     1      27.781  -3.860   7.501  0.00  0.00    +0.003 C 
ATOM     30  C   UNL     1      27.300  -2.398   7.519  0.00  0.00    +0.029 C 
ENDBRANCH  16  23
BRANCH  16  17
ATOM     17  C   UNL     1      26.177  -0.169   6.067  0.00  0.00    -0.021 A 
ATOM     18  C   UNL     1      26.048  -0.475   4.724  0.00  0.00    +0.006 A 
ATOM     19  C   UNL     1      26.815   0.179   3.765  0.00  0.00    +0.000 A 
ATOM     20  C   UNL     1      27.721   1.150   4.158  0.00  0.00    +0.000 A 
ATOM     21  C   UNL     1      27.857   1.449   5.500  0.00  0.00    +0.000 A 
ATOM     22  C   UNL     1      27.082   0.804   6.452  0.00  0.00    +0.006 A 
ENDBRANCH  16  17
ENDBRANCH  15  16
TORSDOF 5
