REMARK  Name = 2r3g_ligand
REMARK  3 active torsions:
REMARK  status: ('A' for Active; 'I' for Inactive)
REMARK    1  A    between atoms: C07_7  and  C18_18
REMARK    2  A    between atoms: N10_10  and  C11_11
REMARK    3  A    between atoms: C11_11  and  C12_12
REMARK                            x       y       z     vdW  Elec       q    Type
REMARK                         _______ _______ _______ _____ _____    ______ ____
ROOT
ATOM      1  C   UNL     1       4.751  27.260   5.353  0.00  0.00    +0.169 A 
ATOM      2  C   UNL     1       5.477  26.165   5.768  0.00  0.00    +0.250 A 
ATOM      3  N   UNL     1       4.981  25.652   6.920  0.00  0.00    -0.200 N 
ATOM      4  H   UNL     1       5.321  24.829   7.439  0.00  0.00    +0.275 HD
ATOM      5  C   UNL     1       3.945  26.455   7.238  0.00  0.00    +0.259 A 
ATOM      6  C   UNL     1       3.030  26.389   8.366  0.00  0.00    +0.228 A 
ATOM      7  N   UNL     1       3.253  25.402   9.284  0.00  0.00    -0.266 N 
ATOM      8  H   UNL     1       3.964  24.671   9.140  0.00  0.00    +0.203 HD
ATOM     16  N   UNL     1       2.048  27.265   8.451  0.00  0.00    -0.227 NA
ATOM     17  C   UNL     1       1.874  28.238   7.488  0.00  0.00    +0.095 A 
ATOM     25  C   UNL     1       2.733  28.284   6.395  0.00  0.00    +0.152 A 
ATOM     26  N   UNL     1       3.776  27.423   6.315  0.00  0.00    -0.259 N 
ENDROOT
BRANCH  17  18
ATOM     18  C   UNL     1       0.783  29.231   7.752  0.00  0.00    +0.060 A 
ATOM     19  C   UNL     1      -0.147  28.927   8.760  0.00  0.00    +0.031 A 
ATOM     20  C   UNL     1      -1.156  29.835   9.129  0.00  0.00    +0.010 A 
ATOM     21  C   UNL     1      -1.228  31.094   8.524  0.00  0.00    +0.019 A 
ATOM     22  C   UNL     1      -0.316  31.422   7.513  0.00  0.00    +0.050 A 
ATOM     23  C   UNL     1       0.687  30.527   7.136  0.00  0.00    +0.161 A 
ATOM     24  F   UNL     1       1.502  30.925   6.182  0.00  0.00    -0.170 F 
ENDBRANCH  17  18
BRANCH   7   9
ATOM      9  C   UNL     1       2.415  25.450  10.487  0.00  0.00    +0.223 C 
BRANCH   9  10
ATOM     10  C   UNL     1       1.210  24.586  10.284  0.00  0.00    +0.009 A 
ATOM     11  C   UNL     1      -0.080  25.136  10.226  0.00  0.00    +0.091 A 
ATOM     12  N   UNL     1      -1.201  24.429  10.034  0.00  0.00    -0.304 NA
ATOM     13  C   UNL     1      -1.064  23.091   9.877  0.00  0.00    +0.081 A 
ATOM     14  C   UNL     1       0.168  22.429   9.936  0.00  0.00    +0.029 A 
ATOM     15  C   UNL     1       1.330  23.192  10.136  0.00  0.00    +0.030 A 
ENDBRANCH   9  10
ENDBRANCH   7   9
TORSDOF 3
