REMARK  Name = 3nnx_ligand
REMARK  9 active torsions:
REMARK  status: ('A' for Active; 'I' for Inactive)
REMARK    1  A    between atoms: C1_1  and  N21_11
REMARK    2  A    between atoms: C5_5  and  C13_7
REMARK    3  A    between atoms: C13_7  and  C14_8
REMARK    4  A    between atoms: C24_13  and  C32_16
REMARK    5  A    between atoms: C26_15  and  N40_20
REMARK    6  A    between atoms: C32_16  and  C34_17
REMARK    7  A    between atoms: C32_16  and  C36_18
REMARK    8  A    between atoms: C32_16  and  C38_19
REMARK    9  A    between atoms: N43_22  and  C44_23
REMARK                            x       y       z     vdW  Elec       q    Type
REMARK                         _______ _______ _______ _____ _____    ______ ____
ROOT
ATOM      2  N   UNL     1       6.759 -36.907 -25.223  0.00  0.00    -0.105 N 
ATOM      3  C   UNL     1       6.475 -36.546 -23.952  0.00  0.00    +0.220 A 
ATOM     18  C   UNL     1       6.710 -35.189 -23.857  0.00  0.00    +0.003 A 
ATOM     19  C   UNL     1       7.124 -34.863 -25.136  0.00  0.00    -0.002 A 
ATOM     24  N   UNL     1       7.172 -35.871 -26.015  0.00  0.00    -0.165 NA
ENDROOT
BRANCH   2   1
ATOM      1  C   UNL     1       6.648 -38.100 -25.767  0.00  0.00    +0.122 A 
ATOM     25  C   UNL     1       7.637 -38.585 -26.630  0.00  0.00    +0.037 A 
ATOM     26  C   UNL     1       7.541 -39.819 -27.256  0.00  0.00    -0.026 A 
ATOM     33  C   UNL     1       6.449 -40.634 -27.008  0.00  0.00    -0.010 A 
ATOM     34  C   UNL     1       5.449 -40.181 -26.158  0.00  0.00    -0.010 A 
ATOM     35  C   UNL     1       5.557 -38.921 -25.568  0.00  0.00    +0.028 A 
BRANCH  26  27
ATOM     27  C   UNL     1       8.620 -40.295 -28.176  0.00  0.00    +0.201 C 
BRANCH  27  28
ATOM     28  C   UNL     1       8.181 -40.084 -29.617  0.00  0.00    +0.185 C 
ATOM     29  O   UNL     1       8.333 -40.978 -30.399  0.00  0.00    -0.394 OA
ATOM     30  N   UNL     1       7.686 -38.917 -30.014  0.00  0.00    -0.299 N 
ATOM     31  H   UNL     1       7.598 -38.163 -29.363  0.00  0.00    +0.182 HD
ATOM     32  H   UNL     1       7.401 -38.792 -30.964  0.00  0.00    +0.182 HD
ENDBRANCH  27  28
ENDBRANCH  26  27
ENDBRANCH   2   1
BRANCH   3   4
ATOM      4  N   UNL     1       6.080 -37.477 -23.033  0.00  0.00    -0.179 N 
ATOM      5  H   UNL     1       6.466 -38.399 -23.063  0.00  0.00    +0.234 HD
ATOM      6  C   UNL     1       5.187 -37.166 -22.099  0.00  0.00    +0.324 C 
ATOM      7  O   UNL     1       4.821 -35.982 -22.029  0.00  0.00    -0.379 OA
ATOM      8  N   UNL     1       4.753 -38.223 -21.362  0.00  0.00    -0.212 N 
ATOM      9  H   UNL     1       5.152 -39.116 -21.570  0.00  0.00    +0.227 HD
BRANCH   8  10
ATOM     10  C   UNL     1       3.820 -38.175 -20.362  0.00  0.00    +0.082 A 
ATOM     11  C   UNL     1       4.098 -38.699 -19.085  0.00  0.00    +0.073 A 
ATOM     12 CL   UNL     1       5.671 -39.467 -18.764  0.00  0.00    -0.083 Cl
ATOM     13  C   UNL     1       3.182 -38.690 -18.038  0.00  0.00    +0.041 A 
ATOM     14 CL   UNL     1       3.598 -39.436 -16.396  0.00  0.00    -0.074 Cl
ATOM     15  C   UNL     1       1.944 -38.088 -18.302  0.00  0.00    -0.014 A 
ATOM     16  C   UNL     1       1.642 -37.554 -19.560  0.00  0.00    -0.017 A 
ATOM     17  C   UNL     1       2.565 -37.593 -20.582  0.00  0.00    +0.010 A 
ENDBRANCH   8  10
ENDBRANCH   3   4
BRANCH  19  20
ATOM     20  C   UNL     1       7.526 -33.476 -25.532  0.00  0.00    -0.045 C 
ATOM     21  C   UNL     1       6.486 -32.522 -24.962  0.00  0.00    -0.045 C 
ATOM     22  C   UNL     1       8.909 -33.142 -24.950  0.00  0.00    -0.045 C 
ATOM     23  C   UNL     1       7.561 -33.435 -27.072  0.00  0.00    -0.045 C 
ENDBRANCH  19  20
TORSDOF 6
