REMARK  Name = 4L3L
REMARK  5 active torsions:
REMARK  status: ('A' for Active; 'I' for Inactive)
REMARK    1  A    between atoms: C_1  and  N_25
REMARK    2  A    between atoms: C_2  and  C_26
REMARK    3  A    between atoms: C_7  and  C_10
REMARK    4  A    between atoms: C_18  and  C_19
REMARK    5  A    between atoms: C_19  and  N_20
REMARK                            x       y       z     vdW  Elec       q    Type
REMARK                         _______ _______ _______ _____ _____    ______ ____
ROOT
ATOM      2  N   UNL     1     -10.959  12.573  12.745  0.00  0.00    -0.291 N 
ATOM      3  C   UNL     1     -11.320  13.371  11.618  0.00  0.00    +0.110 C 
ATOM      4  C   UNL     1     -12.536  12.821  10.939  0.00  0.00    +0.094 C 
ATOM      5  N   UNL     1     -13.635  12.817  11.866  0.00  0.00    -0.263 NA
ATOM      6  C   UNL     1     -13.326  12.136  13.098  0.00  0.00    +0.094 C 
ATOM     21  C   UNL     1     -12.037  12.597  13.684  0.00  0.00    +0.110 C 
ENDROOT
BRANCH   2   1
ATOM      1  C   UNL     1      -9.627  12.763  13.295  0.00  0.00    +0.131 A 
ATOM     22  N   UNL     1      -9.621  13.140  14.580  0.00  0.00    -0.209 NA
ATOM     23  C   UNL     1      -8.482  13.390  15.221  0.00  0.00    +0.200 A 
ATOM     24  N   UNL     1      -7.315  13.283  14.604  0.00  0.00    -0.223 NA
ATOM     25  C   UNL     1      -7.237  12.925  13.314  0.00  0.00    +0.099 A 
ATOM     26  C   UNL     1      -8.404  12.650  12.597  0.00  0.00    +0.029 A 
BRANCH  26  27
ATOM     27  C   UNL     1      -8.262  12.205  11.179  0.00  0.00    +0.031 C 
ATOM     28  C   UNL     1      -8.844  10.854  10.856  0.00  0.00    +0.005 C 
ENDBRANCH  26  27
ENDBRANCH   2   1
BRANCH   5   7
ATOM      7  C   UNL     1     -14.921  12.751  11.167  0.00  0.00    +0.139 C 
BRANCH   7   8
ATOM      8  C   UNL     1     -15.174  11.300  10.756  0.00  0.00    +0.155 A 
ATOM      9  N   UNL     1     -14.725  10.673   9.637  0.00  0.00    -0.228 NA
ATOM     10  C   UNL     1     -15.199   9.363   9.639  0.00  0.00    +0.100 A 
ATOM     11  C   UNL     1     -15.933   9.212  10.786  0.00  0.00    +0.100 A 
ATOM     12  C   UNL     1     -16.555   7.970  11.085  0.00  0.00    +0.021 A 
ATOM     13  C   UNL     1     -16.409   6.901  10.204  0.00  0.00    +0.005 A 
ATOM     14  C   UNL     1     -15.671   7.044   9.037  0.00  0.00    +0.073 A 
ATOM     19  C   UNL     1     -15.055   8.263   8.732  0.00  0.00    +0.025 A 
ATOM     20  N   UNL     1     -15.911  10.424  11.470  0.00  0.00    -0.228 NA
BRANCH  14  15
ATOM     15  C   UNL     1     -15.592   5.879   8.106  0.00  0.00    +0.419 C 
ATOM     16  F   UNL     1     -14.979   6.245   6.980  0.00  0.00    -0.166 F 
ATOM     17  F   UNL     1     -16.833   5.486   7.819  0.00  0.00    -0.166 F 
ATOM     18  F   UNL     1     -14.944   4.884   8.716  0.00  0.00    -0.166 F 
ENDBRANCH  14  15
ENDBRANCH   7   8
ENDBRANCH   5   7
TORSDOF 5
