REMARK  Name = 5EW3
REMARK  6 active torsions:
REMARK  status: ('A' for Active; 'I' for Inactive)
REMARK    1  A    between atoms: C_4  and  N_22
REMARK    2  A    between atoms: C_6  and  C_16
REMARK    3  A    between atoms: C_10  and  C_11
REMARK    4  A    between atoms: C_10  and  N_21
REMARK    5  A    between atoms: C_17  and  N_21
REMARK    6  A    between atoms: C_18  and  C_20
REMARK                            x       y       z     vdW  Elec       q    Type
REMARK                         _______ _______ _______ _____ _____    ______ ____
ROOT
ATOM      1  C   UNL     1      17.199  12.278  12.829  0.00  0.00    +0.001 A 
ATOM      2  C   UNL     1      18.321  11.469  12.599  0.00  0.00    +0.015 A 
ATOM      3  C   UNL     1      18.339  10.104  12.962  0.00  0.00    +0.058 A 
ATOM     18  C   UNL     1      17.191   9.542  13.608  0.00  0.00    +0.040 A 
ATOM     28  C   UNL     1      16.060  10.373  13.816  0.00  0.00    +0.024 A 
ATOM     29  C   UNL     1      16.061  11.721  13.434  0.00  0.00    +0.002 A 
ENDROOT
BRANCH   3   4
ATOM      4  C   UNL     1      19.622   9.321  12.693  0.00  0.00    +0.250 C 
ATOM      5  O   UNL     1      19.557   8.104  12.654  0.00  0.00    -0.270 OA
ATOM      6  N   UNL     1      20.790   9.984  12.473  0.00  0.00    -0.281 N 
ATOM      7  H   UNL     1      20.745  11.053  12.477  0.00  0.00    +0.155 HD
BRANCH   6   8
ATOM      8  C   UNL     1      22.062   9.398  12.239  0.00  0.00    +0.034 A 
ATOM      9  C   UNL     1      23.171   9.977  12.875  0.00  0.00    +0.023 A 
ATOM     10  C   UNL     1      24.472   9.486  12.693  0.00  0.00    +0.002 A 
ATOM     11  C   UNL     1      24.662   8.370  11.872  0.00  0.00    +0.012 A 
ATOM     12  C   UNL     1      23.568   7.772  11.218  0.00  0.00    +0.057 A 
ATOM     17  C   UNL     1      22.267   8.281  11.404  0.00  0.00    +0.035 A 
BRANCH  12  13
ATOM     13  C   UNL     1      23.746   6.527  10.360  0.00  0.00    +0.417 C 
ATOM     14  F   UNL     1      22.860   6.539   9.348  0.00  0.00    -0.166 F 
ATOM     15  F   UNL     1      23.508   5.450  11.132  0.00  0.00    -0.166 F 
ATOM     16  F   UNL     1      24.996   6.378   9.870  0.00  0.00    -0.166 F 
ENDBRANCH  12  13
ENDBRANCH   6   8
ENDBRANCH   3   4
BRANCH  18  19
ATOM     19  N   UNL     1      17.154   8.221  13.979  0.00  0.00    -0.339 N 
ATOM     20  H   UNL     1      18.044   7.648  13.824  0.00  0.00    +0.146 HD
BRANCH  19  21
ATOM     21  C   UNL     1      16.004   7.522  14.569  0.00  0.00    +0.137 C 
BRANCH  21  22
ATOM     22  C   UNL     1      14.874   7.160  13.579  0.00  0.00    -0.028 A 
ATOM     23  C   UNL     1      13.647   6.671  14.089  0.00  0.00    +0.025 A 
ATOM     24  C   UNL     1      12.615   6.328  13.194  0.00  0.00    +0.111 A 
ATOM     25  N   UNL     1      12.807   6.471  11.850  0.00  0.00    -0.263 NA
ATOM     26  C   UNL     1      13.976   6.935  11.320  0.00  0.00    +0.111 A 
ATOM     27  C   UNL     1      15.032   7.282  12.176  0.00  0.00    +0.025 A 
ENDBRANCH  21  22
ENDBRANCH  19  21
ENDBRANCH  18  19
TORSDOF 6
