REMARK  Name = 4lmn_ligand
REMARK  5 active torsions:
REMARK  status: ('A' for Active; 'I' for Inactive)
REMARK    1  A    between atoms: C18_2  and  C15_3
REMARK    2  A    between atoms: C10_10  and  N9_11
REMARK    3  A    between atoms: N9_11  and  C5_12
REMARK    4  A    between atoms: C22_22  and  O24_24
REMARK    5  A    between atoms: C22_22  and  C25_25
REMARK                            x       y       z     vdW  Elec       q    Type
REMARK                         _______ _______ _______ _____ _____    ______ ____
ROOT
ATOM     17  C   UNL     1      33.020  30.561 -14.307  0.00  0.00    +0.066 A 
ATOM     18  C   UNL     1      34.015  30.008 -15.124  0.00  0.00    +0.112 A 
ATOM     29  C   UNL     1      35.322  30.505 -14.993  0.00  0.00    +0.191 A 
ATOM     30  F   UNL     1      36.324  30.044 -15.748  0.00  0.00    -0.191 F 
ATOM     31  C   UNL     1      35.664  31.430 -14.008  0.00  0.00    +0.161 A 
ATOM     32  F   UNL     1      36.930  31.879 -13.903  0.00  0.00    -0.184 F 
ATOM     33  C   UNL     1      34.689  31.955 -13.191  0.00  0.00    +0.014 A 
ATOM     34  C   UNL     1      33.375  31.531 -13.363  0.00  0.00    +0.002 A 
ENDROOT
BRANCH  17   2
ATOM      1  O   UNL     1      31.077  29.645 -15.367  0.00  0.00    -0.393 OA
ATOM      2  C   UNL     1      31.566  30.147 -14.375  0.00  0.00    +0.197 C 
ATOM      3  N   UNL     1      30.718  30.371 -13.274  0.00  0.00    -0.269 N 
ATOM      4  C   UNL     1      29.309  29.903 -13.167  0.00  0.00    +0.179 C 
ATOM      5  C   UNL     1      29.470  29.676 -11.683  0.00  0.00    +0.148 C 
ATOM     16  C   UNL     1      30.947  29.901 -11.881  0.00  0.00    +0.179 C 
BRANCH   5   6
ATOM      6  C   UNL     1      28.738  30.708 -10.795  0.00  0.00    +0.099 C 
ATOM      7  N   UNL     1      28.900  30.427  -9.355  0.00  0.00    +0.231 N 
ATOM      8  H   UNL     1      28.632  29.467  -9.206  0.00  0.00    +0.202 HD
ATOM      9  H   UNL     1      29.877  30.541  -9.136  0.00  0.00    +0.202 HD
ATOM     10  C   UNL     1      28.147  31.238  -8.406  0.00  0.00    +0.130 C 
ATOM     11  C   UNL     1      28.395  32.734  -8.650  0.00  0.00    +0.051 C 
ATOM     12  C   UNL     1      28.298  33.132 -10.133  0.00  0.00    +0.011 C 
ATOM     13  C   UNL     1      29.073  32.203 -11.066  0.00  0.00    +0.057 C 
ENDBRANCH   5   6
BRANCH   5  14
ATOM     14  O   UNL     1      29.224  28.319 -11.327  0.00  0.00    -0.379 OA
ATOM     15  H   UNL     1      29.334  28.214 -10.389  0.00  0.00    +0.211 HD
ENDBRANCH   5  14
ENDBRANCH  17   2
BRANCH  18  19
ATOM     19  N   UNL     1      33.674  29.082 -16.071  0.00  0.00    -0.270 N 
ATOM     20  H   UNL     1      32.812  29.285 -16.597  0.00  0.00    +0.209 HD
BRANCH  19  21
ATOM     21  C   UNL     1      34.323  27.911 -16.423  0.00  0.00    +0.096 A 
ATOM     22  C   UNL     1      33.834  27.187 -17.519  0.00  0.00    +0.156 A 
ATOM     23  C   UNL     1      34.472  26.016 -17.934  0.00  0.00    +0.032 A 
ATOM     24  C   UNL     1      35.628  25.573 -17.281  0.00  0.00    -0.005 A 
ATOM     25  I   UNL     1      36.599  23.796 -17.872  0.00  0.00    -0.061 I 
ATOM     26  C   UNL     1      36.125  26.300 -16.191  0.00  0.00    -0.007 A 
ATOM     27  F   UNL     1      32.719  27.598 -18.155  0.00  0.00    -0.191 F 
ATOM     28  C   UNL     1      35.465  27.433 -15.758  0.00  0.00    +0.014 A 
ENDBRANCH  19  21
ENDBRANCH  18  19
TORSDOF 5
