REMARK  Name = 3fv8_ligand
REMARK  5 active torsions:
REMARK  status: ('A' for Active; 'I' for Inactive)
REMARK    1  A    between atoms: C06_6  and  C07_7
REMARK    2  A    between atoms: N09_9  and  C10_10
REMARK    3  A    between atoms: C16_15  and  N17_16
REMARK    4  A    between atoms: N22_21  and  C23_22
REMARK    5  A    between atoms: C23_22  and  C24_23
REMARK                            x       y       z     vdW  Elec       q    Type
REMARK                         _______ _______ _______ _____ _____    ______ ____
ROOT
ATOM      1 CL   UNL     1     -10.514 -30.990  15.544  0.00  0.00    -0.087 Cl
ATOM      2  C   UNL     1      -9.577 -31.894  14.325  0.00  0.00    +0.044 A 
ATOM      3  C   UNL     1     -10.263 -32.637  13.420  0.00  0.00    +0.078 A 
ATOM     14  C   UNL     1      -9.555 -33.390  12.405  0.00  0.00    +0.086 A 
ATOM     15  C   UNL     1      -8.182 -33.349  12.327  0.00  0.00    -0.006 A 
ATOM     16  C   UNL     1      -7.474 -32.571  13.254  0.00  0.00    -0.042 A 
ATOM     27  C   UNL     1      -8.167 -31.832  14.270  0.00  0.00    -0.029 A 
ENDROOT
BRANCH   3   4
ATOM      4  N   UNL     1     -11.707 -32.743  13.502  0.00  0.00    -0.303 N 
ATOM      5  C   UNL     1     -12.604 -31.579  13.090  0.00  0.00    +0.177 C 
ATOM      6  C   UNL     1     -14.185 -31.888  13.129  0.00  0.00    +0.156 C 
ATOM      7  N   UNL     1     -14.549 -33.301  13.638  0.00  0.00    +0.251 N 
ATOM      8  H   UNL     1     -14.383 -33.858  12.815  0.00  0.00    +0.205 HD
ATOM     12  C   UNL     1     -13.589 -33.886  14.582  0.00  0.00    +0.156 C 
ATOM     13  C   UNL     1     -12.270 -34.014  13.975  0.00  0.00    +0.177 C 
BRANCH   7   9
ATOM      9  C   UNL     1     -16.041 -33.588  13.891  0.00  0.00    +0.196 C 
BRANCH   9  10
ATOM     10  C   UNL     1     -16.783 -34.520  12.922  0.00  0.00    +0.028 C 
ATOM     11  C   UNL     1     -17.285 -34.060  11.794  0.00  0.00    -0.054 C 
ENDBRANCH   9  10
ENDBRANCH   7   9
ENDBRANCH   3   4
BRANCH  14  17
ATOM     17  N   UNL     1     -10.404 -34.151  11.533  0.00  0.00    -0.237 N 
ATOM     18  H   UNL     1     -11.382 -34.086  11.733  0.00  0.00    +0.221 HD
ATOM     19  C   UNL     1     -10.067 -34.997  10.411  0.00  0.00    +0.256 C 
ATOM     20  O   UNL     1      -8.972 -35.213  10.041  0.00  0.00    -0.378 OA
BRANCH  19  21
ATOM     21  C   UNL     1     -11.307 -35.569   9.760  0.00  0.00    +0.193 A 
ATOM     22  O   UNL     1     -12.549 -35.307  10.273  0.00  0.00    -0.242 OA
ATOM     23  C   UNL     1     -13.575 -35.952   9.470  0.00  0.00    +0.158 A 
ATOM     24 BR   UNL     1     -15.521 -35.864   9.806  0.00  0.00    -0.009 Br
ATOM     25  C   UNL     1     -12.842 -36.627   8.431  0.00  0.00    -0.003 A 
ATOM     26  C   UNL     1     -11.465 -36.420   8.568  0.00  0.00    +0.007 A 
ENDBRANCH  19  21
ENDBRANCH  14  17
TORSDOF 5
