REMARK  Name = EJP
REMARK  4 active torsions:
REMARK  status: ('A' for Active; 'I' for Inactive)
REMARK    1  A    between atoms: N3_2  and  C24_15
REMARK    2  A    between atoms: C10_8  and  C1_16
REMARK    3  A    between atoms: C22_14  and  N5_29
REMARK    4  A    between atoms: C24_15  and  C12_21
REMARK                            x       y       z     vdW  Elec       q    Type
REMARK                         _______ _______ _______ _____ _____    ______ ____
ROOT
ATOM     14  N   UNL     1      10.244  -2.457  10.308  0.00  0.00    -0.265 N 
ATOM     15  C   UNL     1      11.590  -2.733  10.768  0.00  0.00    +0.099 C 
ATOM     16  C   UNL     1      12.458  -1.498  10.858  0.00  0.00    +0.052 C 
ATOM     17  C   UNL     1      12.319  -0.773   9.587  0.00  0.00    +0.031 A 
ATOM     18  C   UNL     1      13.110   0.087   8.863  0.00  0.00    +0.133 A 
ATOM     19 CL   UNL     1      14.682   0.712   9.161  0.00  0.00    -0.062 Cl
ATOM     20  N   UNL     1      12.405   0.422   7.745  0.00  0.00    -0.236 N 
ATOM     21  N   UNL     1      11.200  -0.158   7.683  0.00  0.00    -0.164 NA
ATOM     29  C   UNL     1      11.144  -0.888   8.802  0.00  0.00    +0.153 A 
ATOM     30  C   UNL     1      10.020  -1.697   9.178  0.00  0.00    +0.269 C 
ATOM     31  O   UNL     1       8.983  -1.676   8.528  0.00  0.00    -0.268 OA
ENDROOT
BRANCH  14  11
ATOM      3  C   UNL     1       4.855  -5.504  10.804  0.00  0.00    +0.071 A 
ATOM      4  C   UNL     1       4.456  -4.373  11.473  0.00  0.00    +0.012 A 
ATOM      5  C   UNL     1       5.381  -3.602  12.139  0.00  0.00    +0.019 A 
ATOM      6  C   UNL     1       6.717  -3.943  12.154  0.00  0.00    +0.088 A 
ATOM      7  N   UNL     1       7.667  -3.158  12.830  0.00  0.00    -0.253 N 
ATOM      8  C   UNL     1       7.375  -2.860  14.213  0.00  0.00    +0.120 C 
ATOM      9  C   UNL     1       8.887  -2.776  12.308  0.00  0.00    +0.251 C 
ATOM     10  O   UNL     1       9.722  -2.141  12.935  0.00  0.00    -0.273 OA
ATOM     11  C   UNL     1       9.126  -3.183  10.882  0.00  0.00    +0.197 C 
ATOM     12  C   UNL     1       9.290  -4.679  10.690  0.00  0.00    +0.234 C 
ATOM     13  O   UNL     1       8.403  -5.502  11.433  0.00  0.00    -0.472 OA
ATOM     32  C   UNL     1       7.093  -5.082  11.474  0.00  0.00    +0.153 A 
ATOM     33  C   UNL     1       6.182  -5.863  10.804  0.00  0.00    +0.049 A 
BRANCH   3   2
ATOM      1  N   UNL     1       3.103  -6.944   9.561  0.00  0.00    -0.191 NA
ATOM      2  C   UNL     1       3.892  -6.298  10.117  0.00  0.00    +0.101 C 
ENDBRANCH   3   2
ENDBRANCH  14  11
BRANCH  20  22
ATOM     22  C   UNL     1      12.822   1.305   6.677  0.00  0.00    +0.155 C 
BRANCH  22  23
ATOM     23  C   UNL     1      13.437   0.522   5.577  0.00  0.00    +0.002 A 
ATOM     24  C   UNL     1      14.772   0.203   5.640  0.00  0.00    -0.002 A 
ATOM     25  C   UNL     1      15.355  -0.522   4.626  0.00  0.00    -0.000 A 
ATOM     26  C   UNL     1      14.604  -0.927   3.547  0.00  0.00    -0.000 A 
ATOM     27  C   UNL     1      13.268  -0.606   3.485  0.00  0.00    -0.000 A 
ATOM     28  C   UNL     1      12.684   0.117   4.499  0.00  0.00    -0.002 A 
ENDBRANCH  22  23
ENDBRANCH  20  22
TORSDOF 4
