REMARK  Name = 6TX
REMARK  6 active torsions:
REMARK  status: ('A' for Active; 'I' for Inactive)
REMARK    1  A    between atoms: C1_1  and  C2_2
REMARK    2  A    between atoms: C2_2  and  N_16
REMARK    3  A    between atoms: C3_3  and  C4_4
REMARK    4  A    between atoms: C3_3  and  N_16
REMARK    5  A    between atoms: C5_5  and  S_14
REMARK    6  A    between atoms: S_14  and  N_16
REMARK                            x       y       z     vdW  Elec       q    Type
REMARK                         _______ _______ _______ _____ _____    ______ ____
ROOT
ATOM      5  S   UNL     1     -13.848 -25.066  27.474  0.00  0.00    +0.063 S 
ATOM      6  O   UNL     1     -14.602 -25.700  28.509  0.00  0.00    -0.153 OA
ATOM      7  O   UNL     1     -13.058 -25.854  26.587  0.00  0.00    -0.153 OA
ENDROOT
BRANCH   5   8
ATOM      8  C   UNL     1     -14.977 -24.164  26.463  0.00  0.00    +0.122 A 
ATOM      9  C   UNL     1     -14.973 -22.800  26.560  0.00  0.00    +0.020 A 
ATOM     10  C   UNL     1     -15.807 -22.037  25.757  0.00  0.00    +0.001 A 
ATOM     11  C   UNL     1     -16.627 -22.632  24.845  0.00  0.00    +0.002 A 
ATOM     12  C   UNL     1     -16.647 -24.043  24.697  0.00  0.00    +0.021 A 
ATOM     13  C   UNL     1     -17.441 -24.718  23.739  0.00  0.00    +0.099 A 
ATOM     14  N   UNL     1     -17.475 -26.037  23.596  0.00  0.00    -0.242 NA
ATOM     15  C   UNL     1     -16.716 -26.773  24.421  0.00  0.00    +0.099 A 
ATOM     16  C   UNL     1     -15.899 -26.249  25.377  0.00  0.00    +0.022 A 
ATOM     17  C   UNL     1     -15.827 -24.841  25.533  0.00  0.00    +0.022 A 
ENDBRANCH   5   8
BRANCH   5   4
ATOM      4  N   UNL     1     -12.849 -23.995  28.191  0.00  0.00    -0.154 NA
BRANCH   4   3
ATOM      3  C   UNL     1     -13.242 -23.405  29.488  0.00  0.00    +0.096 C 
BRANCH   3   1
ATOM      1  C   UNL     1     -12.176 -23.618  30.530  0.00  0.00    +0.019 C 
ATOM      2  C   UNL     1     -12.636 -22.967  31.818  0.00  0.00    +0.002 C 
ENDBRANCH   3   1
ENDBRANCH   4   3
BRANCH   4  18
ATOM     18  C   UNL     1     -11.951 -23.181  27.342  0.00  0.00    +0.116 C 
BRANCH  18  19
ATOM     19  C   UNL     1     -10.556 -23.762  27.283  0.00  0.00    +0.128 C 
ATOM     20  N   UNL     1      -9.586 -22.768  26.769  0.00  0.00    -0.130 NA
ENDBRANCH  18  19
ENDBRANCH   4  18
ENDBRANCH   5   4
TORSDOF 6
