REMARK  Name = 1YWN
REMARK  8 active torsions:
REMARK  status: ('A' for Active; 'I' for Inactive)
REMARK    1  A    between atoms: C_2  and  C_5
REMARK    2  A    between atoms: C_11  and  N_12
REMARK    3  A    between atoms: N_15  and  C_16
REMARK    4  A    between atoms: C_19  and  C_22
REMARK    5  A    between atoms: C_23  and  C_24
REMARK    6  A    between atoms: C_27  and  O_30
REMARK    7  A    between atoms: O_30  and  C_31
REMARK    8  A    between atoms: C_36  and  N_37
REMARK                            x       y       z     vdW  Elec       q    Type
REMARK                         _______ _______ _______ _____ _____    ______ ____
ROOT
ATOM     13  C   UNL     1       1.330  35.990  14.651  0.00  0.00    +0.035 A 
ATOM     14  C   UNL     1       0.397  35.149  14.051  0.00  0.00    +0.024 A 
ATOM     15  C   UNL     1       0.182  33.844  14.418  0.00  0.00    +0.010 A 
ATOM     16  C   UNL     1       0.903  33.307  15.474  0.00  0.00    -0.013 A 
ATOM     37  C   UNL     1       1.854  34.114  16.097  0.00  0.00    +0.010 A 
ATOM     38  C   UNL     1       2.057  35.430  15.696  0.00  0.00    +0.024 A 
ENDROOT
BRANCH  16  17
ATOM     17  C   UNL     1       0.700  31.951  16.032  0.00  0.00    +0.041 A 
ATOM     18  C   UNL     1       1.669  30.860  16.256  0.00  0.00    +0.088 A 
ATOM     19  C   UNL     1       3.006  30.678  15.911  0.00  0.00    +0.131 A 
ATOM     20  N   UNL     1       3.551  29.497  16.280  0.00  0.00    -0.220 NA
ATOM     21  C   UNL     1       2.846  28.539  16.904  0.00  0.00    +0.227 A 
ATOM     22  N   UNL     1       1.535  28.701  17.219  0.00  0.00    -0.201 NA
ATOM     26  C   UNL     1       0.964  29.856  16.900  0.00  0.00    +0.233 A 
ATOM     27  O   UNL     1      -0.256  30.162  17.117  0.00  0.00    -0.436 OA
ATOM     28  C   UNL     1      -0.442  31.499  16.607  0.00  0.00    +0.146 A 
BRANCH  28  29
ATOM     29  C   UNL     1      -1.818  32.087  16.740  0.00  0.00    +0.018 A 
ATOM     30  C   UNL     1      -2.838  31.159  16.895  0.00  0.00    +0.015 A 
ATOM     31  C   UNL     1      -4.140  31.590  17.017  0.00  0.00    +0.046 A 
ATOM     32  C   UNL     1      -4.426  32.943  16.990  0.00  0.00    +0.120 A 
ATOM     35  C   UNL     1      -3.409  33.881  16.820  0.00  0.00    +0.046 A 
ATOM     36  C   UNL     1      -2.093  33.432  16.694  0.00  0.00    +0.015 A 
BRANCH  32  33
ATOM     33  O   UNL     1      -5.710  33.402  17.122  0.00  0.00    -0.495 OA
ATOM     34  C   UNL     1      -6.784  32.547  17.524  0.00  0.00    +0.277 C 
ENDBRANCH  32  33
ENDBRANCH  28  29
BRANCH  19  23
ATOM     23  N   UNL     1       3.742  31.612  15.269  0.00  0.00    -0.343 N 
ATOM     24  H   UNL     1       4.766  31.415  15.030  0.00  0.00    +0.144 HD
ATOM     25  H   UNL     1       3.301  32.549  15.000  0.00  0.00    +0.144 HD
ENDBRANCH  19  23
ENDBRANCH  16  17
BRANCH  13  11
ATOM      8  N   UNL     1       1.804  39.565  14.313  0.00  0.00    -0.267 N 
ATOM      9  H   UNL     1       1.197  39.622  13.434  0.00  0.00    +0.157 HD
ATOM     10  C   UNL     1       2.004  38.342  14.826  0.00  0.00    +0.308 C 
ATOM     11  N   UNL     1       1.419  37.282  14.199  0.00  0.00    -0.269 N 
ATOM     12  H   UNL     1       0.979  37.481  13.244  0.00  0.00    +0.156 HD
ATOM     39  O   UNL     1       2.638  38.202  15.876  0.00  0.00    -0.252 OA
BRANCH   8   7
ATOM      3  C   UNL     1       3.768  42.130  16.174  0.00  0.00    +0.057 A 
ATOM      4  C   UNL     1       3.015  43.248  15.869  0.00  0.00    +0.015 A 
ATOM      5  C   UNL     1       1.898  43.138  15.030  0.00  0.00    +0.041 A 
ATOM      6  C   UNL     1       1.566  41.897  14.517  0.00  0.00    +0.144 A 
ATOM      7  C   UNL     1       2.298  40.756  14.799  0.00  0.00    +0.071 A 
ATOM     40  F   UNL     1       0.493  41.777  13.713  0.00  0.00    -0.203 F 
ATOM     41  C   UNL     1       3.430  40.883  15.647  0.00  0.00    +0.038 A 
BRANCH   3   2
ATOM      1  F   UNL     1       4.641  41.849  18.298  0.00  0.00    -0.166 F 
ATOM      2  C   UNL     1       4.950  42.266  17.100  0.00  0.00    +0.417 C 
ATOM     42  F   UNL     1       5.944  41.570  16.662  0.00  0.00    -0.166 F 
ATOM     43  F   UNL     1       5.316  43.508  17.192  0.00  0.00    -0.166 F 
ENDBRANCH   3   2
ENDBRANCH   8   7
ENDBRANCH  13  11
TORSDOF 7
