REMARK  Name = 5UGX
REMARK  11 active torsions:
REMARK  status: ('A' for Active; 'I' for Inactive)
REMARK    1  A    between atoms: P_1  and  C_8
REMARK    2  A    between atoms: P_5  and  C_8
REMARK    3  A    between atoms: P_5  and  O_12
REMARK    4  A    between atoms: P_9  and  O_12
REMARK    5  A    between atoms: P_9  and  O_13
REMARK    6  A    between atoms: O_13  and  C_14
REMARK    7  A    between atoms: C_14  and  C_15
REMARK    8  A    between atoms: C_17  and  O_18
REMARK    9  A    between atoms: C_19  and  O_20
REMARK   10  A    between atoms: C_21  and  N_22
REMARK   11  A    between atoms: C_26  and  N_27
REMARK                            x       y       z     vdW  Elec       q    Type
REMARK                         _______ _______ _______ _____ _____    ______ ____
ROOT
ATOM      8  C   UNL     1      23.833  41.945  18.311  0.00  0.00    +0.178 C 
ATOM      9  C   UNL     1      22.813  41.816  19.351  0.00  0.00    +0.178 C 
ATOM     10  C   UNL     1      21.821  42.806  19.044  0.00  0.00    +0.195 C 
ATOM     11  C   UNL     1      21.879  43.057  17.604  0.00  0.00    +0.253 C 
ATOM     28  O   UNL     1      23.153  42.471  17.107  0.00  0.00    -0.346 OA
ENDROOT
BRANCH  11  12
ATOM     12  N   UNL     1      20.738  42.444  17.069  0.00  0.00    -0.285 N 
ATOM     13  C   UNL     1      19.538  43.073  16.781  0.00  0.00    +0.167 A 
ATOM     14  N   UNL     1      19.095  44.354  16.831  0.00  0.00    -0.216 NA
ATOM     15  C   UNL     1      17.828  44.666  16.449  0.00  0.00    +0.225 A 
ATOM     16  N   UNL     1      16.971  43.706  16.010  0.00  0.00    -0.219 NA
ATOM     17  C   UNL     1      17.363  42.429  15.947  0.00  0.00    +0.147 A 
ATOM     21  C   UNL     1      18.663  42.064  16.329  0.00  0.00    +0.147 A 
ATOM     22  N   UNL     1      19.325  40.907  16.374  0.00  0.00    -0.231 NA
ATOM     23  C   UNL     1      20.561  41.130  16.825  0.00  0.00    +0.203 A 
BRANCH  17  18
ATOM     18  N   UNL     1      16.440  41.414  15.483  0.00  0.00    -0.341 N 
ATOM     19  H   UNL     1      15.448  41.687  15.191  0.00  0.00    +0.144 HD
ATOM     20  H   UNL     1      16.750  40.391  15.433  0.00  0.00    +0.144 HD
ENDBRANCH  17  18
ENDBRANCH  11  12
BRANCH  10  24
ATOM     24  O   UNL     1      21.988  44.017  19.818  0.00  0.00    -0.385 OA
ATOM     25  H   UNL     1      21.914  43.792  20.841  0.00  0.00    +0.210 HD
ENDBRANCH  10  24
BRANCH   9  26
ATOM     26  O   UNL     1      23.337  41.937  20.687  0.00  0.00    -0.386 OA
ATOM     27  H   UNL     1      24.051  41.185  20.853  0.00  0.00    +0.210 HD
ENDBRANCH   9  26
BRANCH   8   7
ATOM      7  C   UNL     1      24.493  40.649  18.008  0.00  0.00    +0.202 C 
BRANCH   7   6
ATOM      6  O   UNL     1      23.669  39.790  17.238  0.00  0.00    -0.325 OA
BRANCH   6   5
ATOM      5  P   UNL     1      23.355  38.277  17.748  0.00  0.00    +0.218 P 
ATOM     29  O   UNL     1      23.101  38.332  19.248  0.00  0.00    -0.517 OA
ATOM     30  O   UNL     1      22.098  37.736  17.067  0.00  0.00    -0.437 OA
BRANCH   5   4
ATOM      4  O   UNL     1      24.602  37.345  17.380  0.00  0.00    -0.282 OA
BRANCH   4   3
ATOM      3  P   UNL     1      25.323  36.334  18.399  0.00  0.00    +0.150 P 
ATOM     31  O   UNL     1      24.869  36.492  19.834  0.00  0.00    -0.306 OA
ATOM     32  O   UNL     1      25.004  34.872  17.892  0.00  0.00    -0.781 OA
BRANCH   3   2
ATOM      2  C   UNL     1      27.147  36.654  18.422  0.00  0.00    +0.152 C 
BRANCH   2   1
ATOM      1  P   UNL     1      28.021  35.370  17.422  0.00  0.00    +0.117 P 
ATOM     33  O   UNL     1      29.398  35.929  16.937  0.00  0.00    -0.357 OA
ATOM     34  O   UNL     1      28.237  34.149  18.278  0.00  0.00    -0.460 OA
ATOM     35  O   UNL     1      27.129  34.982  16.180  0.00  0.00    -0.357 OA
ENDBRANCH   2   1
ENDBRANCH   3   2
ENDBRANCH   4   3
ENDBRANCH   5   4
ENDBRANCH   6   5
ENDBRANCH   7   6
ENDBRANCH   8   7
TORSDOF 11
