REMARK  Name = 4ksq_ligand
REMARK  7 active torsions:
REMARK  status: ('A' for Active; 'I' for Inactive)
REMARK    1  A    between atoms: C5_5  and  O6_6
REMARK    2  A    between atoms: O6_6  and  C7_7
REMARK    3  A    between atoms: C14_14  and  C16_16
REMARK    4  A    between atoms: C21_21  and  C22_22
REMARK    5  A    between atoms: C25_25  and  N26_26
REMARK    6  A    between atoms: N29_29  and  C30_30
REMARK    7  A    between atoms: C34_34  and  C36_36
REMARK                            x       y       z     vdW  Elec       q    Type
REMARK                         _______ _______ _______ _____ _____    ______ ____
ROOT
ATOM      1  F   UNL     1      48.097 -33.001   9.715  0.00  0.00    -0.202 F 
ATOM      2  C   UNL     1      47.246 -34.044   9.594  0.00  0.00    +0.140 A 
ATOM      3  C   UNL     1      47.275 -34.786   8.422  0.00  0.00    +0.093 A 
ATOM     20  C   UNL     1      46.409 -35.873   8.289  0.00  0.00    +0.032 A 
ATOM     21  C   UNL     1      45.500 -36.184   9.306  0.00  0.00    +0.101 A 
ATOM     41  C   UNL     1      45.480 -35.432  10.474  0.00  0.00    -0.003 A 
ATOM     42  C   UNL     1      46.351 -34.361  10.610  0.00  0.00    +0.005 A 
ENDROOT
BRANCH   3   4
ATOM      4  N   UNL     1      48.226 -34.417   7.450  0.00  0.00    -0.216 N 
ATOM      5  H   UNL     1      49.162 -34.302   7.781  0.00  0.00    +0.225 HD
ATOM      6  C   UNL     1      48.040 -34.198   6.127  0.00  0.00    +0.316 C 
ATOM      7  N   UNL     1      49.148 -33.866   5.418  0.00  0.00    -0.209 N 
ATOM      8  H   UNL     1      49.992 -33.798   5.951  0.00  0.00    +0.226 HD
ATOM     19  O   UNL     1      46.941 -34.295   5.614  0.00  0.00    -0.381 OA
BRANCH   7   9
ATOM      9  C   UNL     1      49.283 -33.603   4.041  0.00  0.00    +0.096 A 
ATOM     10  C   UNL     1      48.218 -33.245   3.213  0.00  0.00    +0.058 A 
ATOM     11  C   UNL     1      48.447 -32.994   1.865  0.00  0.00    +0.033 A 
ATOM     16  C   UNL     1      49.733 -33.104   1.333  0.00  0.00    +0.029 A 
ATOM     17  C   UNL     1      50.801 -33.466   2.144  0.00  0.00    +0.023 A 
ATOM     18  C   UNL     1      50.568 -33.713   3.489  0.00  0.00    +0.064 A 
BRANCH  11  12
ATOM     12  C   UNL     1      47.290 -32.606   0.975  0.00  0.00    +0.373 C 
ATOM     13  F   UNL     1      46.530 -31.625   1.606  0.00  0.00    -0.221 F 
ATOM     14  F   UNL     1      46.449 -33.708   0.778  0.00  0.00    -0.221 F 
ATOM     15  F   UNL     1      47.770 -32.109  -0.247  0.00  0.00    -0.221 F 
ENDBRANCH  11  12
ENDBRANCH   7   9
ENDBRANCH   3   4
BRANCH  21  22
ATOM     22  O   UNL     1      44.669 -37.250   9.150  0.00  0.00    -0.260 OA
BRANCH  22  23
ATOM     23  C   UNL     1      43.342 -37.300   9.463  0.00  0.00    +0.141 A 
ATOM     24  C   UNL     1      42.794 -38.548   9.782  0.00  0.00    +0.136 A 
ATOM     27  C   UNL     1      41.432 -38.674  10.099  0.00  0.00    +0.076 A 
ATOM     28  S   UNL     1      40.491 -40.071  10.552  0.00  0.00    +0.035 S 
ATOM     29  C   UNL     1      39.006 -39.136  10.670  0.00  0.00    +0.210 A 
ATOM     30  N   UNL     1      37.771 -39.626  11.110  0.00  0.00    -0.191 N 
ATOM     31  H   UNL     1      37.058 -38.953  11.307  0.00  0.00    +0.244 HD
ATOM     32  C   UNL     1      37.452 -40.940  11.295  0.00  0.00    +0.220 C 
ATOM     36  O   UNL     1      38.238 -41.803  10.997  0.00  0.00    -0.379 OA
ATOM     37  N   UNL     1      39.300 -37.903  10.425  0.00  0.00    -0.314 NA
ATOM     38  C   UNL     1      40.580 -37.582  10.090  0.00  0.00    +0.009 A 
ATOM     39  C   UNL     1      41.153 -36.333   9.745  0.00  0.00    -0.001 A 
ATOM     40  C   UNL     1      42.495 -36.196   9.443  0.00  0.00    +0.024 A 
BRANCH  32  33
ATOM     33  C   UNL     1      36.136 -41.393  11.903  0.00  0.00    +0.112 C 
ATOM     34  C   UNL     1      34.789 -41.388  11.190  0.00  0.00    +0.029 C 
ATOM     35  C   UNL     1      35.510 -42.714  11.452  0.00  0.00    +0.029 C 
ENDBRANCH  32  33
BRANCH  24  25
ATOM     25  C   UNL     1      43.627 -39.707   9.810  0.00  0.00    +0.084 C 
ATOM     26  N   UNL     1      44.229 -40.668   9.847  0.00  0.00    -0.345 NA
ENDBRANCH  24  25
ENDBRANCH  22  23
ENDBRANCH  21  22
TORSDOF 7
