REMARK  Name = 4rj5_ligand
REMARK  4 active torsions:
REMARK  status: ('A' for Active; 'I' for Inactive)
REMARK    1  A    between atoms: C3_9  and  O2_11
REMARK    2  A    between atoms: C1_10  and  O2_11
REMARK    3  A    between atoms: N15_15  and  C16_16
REMARK    4  A    between atoms: C21_21  and  C24_23
REMARK                            x       y       z     vdW  Elec       q    Type
REMARK                         _______ _______ _______ _____ _____    ______ ____
ROOT
ATOM      1  C   UNL     1     -47.951  -1.137 -21.236  0.00  0.00    +0.056 C 
ATOM      2  C   UNL     1     -47.099  -2.038 -20.312  0.00  0.00    +0.122 C 
ATOM      5  C   UNL     1     -47.889  -2.666 -19.139  0.00  0.00    +0.056 C 
ATOM      6  C   UNL     1     -48.717  -1.592 -18.410  0.00  0.00    +0.141 C 
ATOM      7  N   UNL     1     -49.569  -0.851 -19.372  0.00  0.00    -0.278 N 
ATOM      8  C   UNL     1     -50.569  -0.052 -18.806  0.00  0.00    +0.177 A 
ATOM      9  N   UNL     1     -51.582   0.354 -19.581  0.00  0.00    -0.238 NA
ATOM     10  C   UNL     1     -52.567   1.140 -19.116  0.00  0.00    +0.134 A 
ATOM     11  N   UNL     1     -53.627   1.595 -19.914  0.00  0.00    -0.249 N 
ATOM     12  H   UNL     1     -54.342   2.159 -19.433  0.00  0.00    +0.217 HD
ATOM     29  C   UNL     1     -52.535   1.517 -17.760  0.00  0.00    +0.056 A 
ATOM     30  C   UNL     1     -51.483   1.071 -16.970  0.00  0.00    +0.085 A 
ATOM     31  N   UNL     1     -50.531   0.307 -17.514  0.00  0.00    -0.273 NA
ATOM     32  C   UNL     1     -48.777  -0.142 -20.404  0.00  0.00    +0.141 C 
ENDROOT
BRANCH  11  13
ATOM     13  C   UNL     1     -53.836   1.378 -21.287  0.00  0.00    +0.118 A 
ATOM     14  N   UNL     1     -54.860   2.003 -21.881  0.00  0.00    -0.299 NA
ATOM     15  C   UNL     1     -55.165   1.839 -23.166  0.00  0.00    +0.058 A 
ATOM     16  C   UNL     1     -54.376   1.009 -23.978  0.00  0.00    -0.015 A 
ATOM     17  C   UNL     1     -54.381   0.594 -25.385  0.00  0.00    -0.040 A 
ATOM     18  C   UNL     1     -53.336  -0.264 -25.552  0.00  0.00    +0.048 A 
ATOM     25  N   UNL     1     -52.678  -0.422 -24.356  0.00  0.00    -0.276 N 
ATOM     26  H   UNL     1     -51.849  -1.016 -24.214  0.00  0.00    +0.224 HD
ATOM     27  C   UNL     1     -53.285   0.325 -23.380  0.00  0.00    +0.068 A 
ATOM     28  C   UNL     1     -53.031   0.514 -22.023  0.00  0.00    +0.055 A 
BRANCH  18  19
ATOM     19  C   UNL     1     -52.888  -0.927 -26.800  0.00  0.00    +0.025 A 
ATOM     20  C   UNL     1     -53.512  -1.999 -27.470  0.00  0.00    +0.168 A 
ATOM     21  N   UNL     1     -52.806  -2.292 -28.529  0.00  0.00    -0.216 N 
ATOM     22  H   UNL     1     -53.030  -3.022 -29.221  0.00  0.00    +0.260 HD
ATOM     23  N   UNL     1     -51.694  -1.445 -28.563  0.00  0.00    -0.215 NA
ATOM     24  C   UNL     1     -51.758  -0.616 -27.502  0.00  0.00    +0.077 A 
ENDBRANCH  18  19
ENDBRANCH  11  13
BRANCH   2   3
ATOM      3  O   UNL     1     -46.223  -2.950 -21.009  0.00  0.00    -0.380 OA
ATOM      4  C   UNL     1     -46.779  -4.013 -21.810  0.00  0.00    +0.194 C 
ENDBRANCH   2   3
TORSDOF 3
