REMARK  Name = 3SXS
REMARK  6 active torsions:
REMARK  status: ('A' for Active; 'I' for Inactive)
REMARK    1  A    between atoms: C_5  and  N_20
REMARK    2  A    between atoms: C_7  and  C_10
REMARK    3  A    between atoms: N_9  and  C_16
REMARK    4  A    between atoms: C_16  and  C_17
REMARK    5  A    between atoms: C_16  and  C_18
REMARK    6  A    between atoms: C_16  and  C_19
REMARK                            x       y       z     vdW  Elec       q    Type
REMARK                         _______ _______ _______ _____ _____    ______ ____
ROOT
ATOM      1  C   UNL     1      20.765  20.507  17.696  0.00  0.00    +0.164 A 
ATOM      2  N   UNL     1      19.988  19.874  18.693  0.00  0.00    -0.240 N 
ATOM      7  N   UNL     1      19.717  18.605  18.229  0.00  0.00    -0.168 NA
ATOM      8  C   UNL     1      20.243  18.390  17.038  0.00  0.00    +0.105 A 
ATOM     16  C   UNL     1      20.967  19.537  16.674  0.00  0.00    +0.086 A 
ATOM     17  C   UNL     1      21.703  20.016  15.511  0.00  0.00    +0.131 A 
ATOM     21  N   UNL     1      22.231  21.270  15.557  0.00  0.00    -0.220 NA
ATOM     22  C   UNL     1      21.963  22.075  16.621  0.00  0.00    +0.225 A 
ATOM     23  N   UNL     1      21.277  21.798  17.741  0.00  0.00    -0.216 NA
ENDROOT
BRANCH   8   9
ATOM      9  C   UNL     1      20.228  17.019  16.395  0.00  0.00    +0.003 A 
ATOM     10  C   UNL     1      21.369  16.220  16.223  0.00  0.00    +0.011 A 
ATOM     11  C   UNL     1      21.308  14.915  15.731  0.00  0.00    +0.020 A 
ATOM     12  C   UNL     1      20.045  14.399  15.455  0.00  0.00    +0.041 A 
ATOM     13 CL   UNL     1      19.959  12.768  14.857  0.00  0.00    -0.084 Cl
ATOM     14  C   UNL     1      18.871  15.139  15.626  0.00  0.00    +0.020 A 
ATOM     15  C   UNL     1      18.960  16.439  16.142  0.00  0.00    +0.011 A 
ENDBRANCH   8   9
BRANCH   2   3
ATOM      3  C   UNL     1      19.518  20.490  19.974  0.00  0.00    +0.058 C 
ATOM      4  C   UNL     1      18.615  19.478  20.711  0.00  0.00    +0.036 C 
ATOM      5  C   UNL     1      20.792  20.768  20.785  0.00  0.00    +0.036 C 
ATOM      6  C   UNL     1      18.690  21.769  19.730  0.00  0.00    +0.036 C 
ENDBRANCH   2   3
BRANCH  17  18
ATOM     18  N   UNL     1      21.854  19.232  14.422  0.00  0.00    -0.343 N 
ATOM     19  H   UNL     1      21.431  18.249  14.407  0.00  0.00    +0.144 HD
ATOM     20  H   UNL     1      22.397  19.593  13.574  0.00  0.00    +0.144 HD
ENDBRANCH  17  18
TORSDOF 3
