REMARK  Name = 5KZ8
REMARK  5 active torsions:
REMARK  status: ('A' for Active; 'I' for Inactive)
REMARK    1  A    between atoms: C_7  and  C_21
REMARK    2  A    between atoms: C_11  and  O_29
REMARK    3  A    between atoms: N_17  and  C_18
REMARK    4  A    between atoms: N_20  and  C_24
REMARK    5  A    between atoms: C_21  and  C_22
REMARK                            x       y       z     vdW  Elec       q    Type
REMARK                         _______ _______ _______ _____ _____    ______ ____
ROOT
ATOM      1  C   UNL     1      45.042  32.243  35.557  0.00  0.00    +0.221 A 
ATOM      2  N   UNL     1      46.352  31.993  35.133  0.00  0.00    -0.284 N 
ATOM      3  H   UNL     1      47.050  31.725  35.899  0.00  0.00    +0.155 HD
ATOM     10  N   UNL     1      44.109  32.538  34.643  0.00  0.00    -0.199 NA
ATOM     11  C   UNL     1      42.888  32.761  35.132  0.00  0.00    +0.137 A 
ATOM     12  N   UNL     1      41.716  33.092  34.432  0.00  0.00    -0.248 N 
ATOM     24  C   UNL     1      40.662  33.319  35.291  0.00  0.00    +0.232 C 
ATOM     25  O   UNL     1      39.548  33.720  34.988  0.00  0.00    -0.274 OA
ATOM     26  C   UNL     1      41.135  33.006  36.693  0.00  0.00    +0.071 C 
ATOM     27  C   UNL     1      40.398  31.798  37.226  0.00  0.00    +0.026 C 
ATOM     28  C   UNL     1      40.922  34.213  37.590  0.00  0.00    +0.026 C 
ATOM     29  C   UNL     1      42.577  32.706  36.459  0.00  0.00    +0.025 A 
ATOM     30  C   UNL     1      43.598  32.400  37.329  0.00  0.00    +0.122 A 
ATOM     31  N   UNL     1      44.839  32.164  36.882  0.00  0.00    -0.222 NA
ENDROOT
BRANCH  12  13
ATOM     13  C   UNL     1      41.672  33.479  33.028  0.00  0.00    +0.114 C 
ATOM     14  C   UNL     1      41.921  32.324  32.145  0.00  0.00    -0.020 A 
ATOM     15  C   UNL     1      41.332  31.079  32.245  0.00  0.00    +0.006 A 
ATOM     16  C   UNL     1      41.692  30.103  31.339  0.00  0.00    +0.004 A 
ATOM     17  C   UNL     1      42.623  30.389  30.357  0.00  0.00    +0.045 A 
ATOM     18  C   UNL     1      43.198  31.643  30.271  0.00  0.00    +0.120 A 
ATOM     21  C   UNL     1      42.841  32.617  31.177  0.00  0.00    -0.001 A 
ATOM     22  C   UNL     1      43.340  34.010  31.274  0.00  0.00    +0.041 C 
ATOM     23  C   UNL     1      42.691  34.517  32.551  0.00  0.00    +0.032 C 
BRANCH  18  19
ATOM     19  O   UNL     1      44.118  31.893  29.274  0.00  0.00    -0.506 OA
ATOM     20  H   UNL     1      43.770  32.673  28.663  0.00  0.00    +0.292 HD
ENDBRANCH  18  19
ENDBRANCH  12  13
BRANCH   2   4
ATOM      4  C   UNL     1      46.870  32.051  33.812  0.00  0.00    +0.034 A 
ATOM      5  C   UNL     1      46.101  31.805  32.679  0.00  0.00    +0.023 A 
ATOM      6  C   UNL     1      46.645  31.864  31.417  0.00  0.00    +0.002 A 
ATOM      7  C   UNL     1      47.981  32.165  31.284  0.00  0.00    +0.000 A 
ATOM      8  C   UNL     1      48.766  32.403  32.397  0.00  0.00    +0.002 A 
ATOM      9  C   UNL     1      48.216  32.347  33.659  0.00  0.00    +0.023 A 
ENDBRANCH   2   4
TORSDOF 3
