REMARK  Name = 2wmr_ligand
REMARK  0 active torsions:
REMARK  status: ('A' for Active; 'I' for Inactive)
REMARK                            x       y       z     vdW  Elec       q    Type
REMARK                         _______ _______ _______ _____ _____    ______ ____
ROOT
ATOM      1  O   UNL     1      13.001   0.190   6.113  0.00  0.00    -0.406 OA
ATOM      2  C   UNL     1      12.062  -0.306   6.729  0.00  0.00    +0.211 A 
ATOM      3  N   UNL     1      10.795   0.257   6.637  0.00  0.00    -0.205 N 
ATOM      4  H   UNL     1      10.640   1.082   6.057  0.00  0.00    +0.256 HD
ATOM      5  C   UNL     1       9.738  -0.314   7.343  0.00  0.00    +0.273 A 
ATOM      6  N   UNL     1       9.933  -1.378   8.091  0.00  0.00    -0.284 NA
ATOM      7  C   UNL     1      11.142  -1.942   8.199  0.00  0.00    +0.076 A 
ATOM      8  S   UNL     1      11.673  -3.276   9.063  0.00  0.00    -0.035 S 
ATOM      9  C   UNL     1      13.259  -3.260   8.566  0.00  0.00    +0.004 A 
ATOM     10  C   UNL     1      14.506  -4.016   8.927  0.00  0.00    +0.064 C 
ATOM     11  C   UNL     1      15.759  -4.017   8.006  0.00  0.00    +0.014 C 
ATOM     12  C   UNL     1      16.081  -2.524   7.916  0.00  0.00    +0.009 C 
ATOM     13  C   UNL     1      14.802  -1.961   7.226  0.00  0.00    +0.032 C 
ATOM     14  C   UNL     1      13.430  -2.130   7.820  0.00  0.00    -0.053 A 
ATOM     15  C   UNL     1      12.251  -1.427   7.523  0.00  0.00    +0.042 A 
ENDROOT
TORSDOF 0
