REMARK  Name = 6BQP
REMARK  7 active torsions:
REMARK  status: ('A' for Active; 'I' for Inactive)
REMARK    1  A    between atoms: C_2  and  N_24
REMARK    2  A    between atoms: C_5  and  O_28
REMARK    3  A    between atoms: C_5  and  C_29
REMARK    4  A    between atoms: C_10  and  N_21
REMARK    5  A    between atoms: C_12  and  O_28
REMARK    6  A    between atoms: C_17  and  N_18
REMARK    7  A    between atoms: C_29  and  C_30
REMARK                            x       y       z     vdW  Elec       q    Type
REMARK                         _______ _______ _______ _____ _____    ______ ____
ROOT
ATOM     17  C   UNL     1      -2.019   5.314  24.119  0.00  0.00    +0.140 A 
ATOM     18  N   UNL     1      -0.792   5.761  24.247  0.00  0.00    -0.227 NA
ATOM     19  C   UNL     1      -0.571   7.030  24.704  0.00  0.00    +0.094 A 
ATOM     20  C   UNL     1       0.749   7.517  24.866  0.00  0.00    +0.056 A 
ATOM     30  C   UNL     1       0.936   8.823  25.316  0.00  0.00    +0.025 A 
ATOM     31  C   UNL     1      -0.154   9.634  25.655  0.00  0.00    +0.003 A 
ATOM     32  C   UNL     1      -1.423   9.179  25.510  0.00  0.00    +0.010 A 
ATOM     33  C   UNL     1      -1.655   7.869  25.041  0.00  0.00    +0.002 A 
ATOM     34  C   UNL     1      -2.951   7.365  24.885  0.00  0.00    +0.013 A 
ATOM     35  C   UNL     1      -3.132   6.101  24.412  0.00  0.00    +0.047 A 
ENDROOT
BRANCH  17  16
ATOM      1  C   UNL     1      -3.350   3.420  23.221  0.00  0.00    +0.206 A 
ATOM      2  N   UNL     1      -3.214   2.148  22.941  0.00  0.00    -0.235 NA
ATOM      3  C   UNL     1      -1.908   1.818  23.273  0.00  0.00    +0.093 A 
ATOM      4  C   UNL     1      -1.237   0.597  23.165  0.00  0.00    +0.075 A 
ATOM      5  C   UNL     1       0.080   0.541  23.573  0.00  0.00    +0.123 A 
ATOM     13  C   UNL     1       0.734   1.685  24.060  0.00  0.00    +0.048 A 
ATOM     14  C   UNL     1       0.083   2.896  24.145  0.00  0.00    +0.032 A 
ATOM     15  C   UNL     1      -1.248   2.941  23.755  0.00  0.00    +0.075 A 
ATOM     16  N   UNL     1      -2.184   3.968  23.696  0.00  0.00    -0.283 N 
BRANCH   5   6
ATOM      6  O   UNL     1       0.828  -0.609  23.523  0.00  0.00    -0.491 OA
BRANCH   6   7
ATOM      7  C   UNL     1       0.131  -1.865  23.548  0.00  0.00    +0.240 C 
BRANCH   7   8
ATOM      8  C   UNL     1       1.103  -2.952  23.921  0.00  0.00    +0.049 C 
ATOM      9  C   UNL     1       2.497  -2.866  23.278  0.00  0.00    +0.172 C 
ATOM     10  O   UNL     1       2.141  -3.913  22.339  0.00  0.00    -0.378 OA
ATOM     11  C   UNL     1       0.962  -4.256  23.123  0.00  0.00    +0.172 C 
ATOM     12  C   UNL     1       1.144  -3.179  25.421  0.00  0.00    +0.019 C 
ENDBRANCH   7   8
ENDBRANCH   6   7
ENDBRANCH   5   6
ENDBRANCH  17  16
BRANCH  20  21
ATOM     21  N   UNL     1       1.851   6.789  24.436  0.00  0.00    -0.328 N 
ATOM     22  C   UNL     1       1.867   6.228  23.054  0.00  0.00    +0.106 C 
ATOM     23  C   UNL     1       2.886   5.137  22.814  0.00  0.00    +0.037 C 
ATOM     24  C   UNL     1       4.239   5.556  23.321  0.00  0.00    +0.054 C 
ATOM     28  C   UNL     1       4.137   5.827  24.804  0.00  0.00    +0.037 C 
ATOM     29  C   UNL     1       3.157   6.938  25.092  0.00  0.00    +0.106 C 
BRANCH  24  25
ATOM     25  N   UNL     1       5.262   4.540  23.016  0.00  0.00    -0.327 NA
ATOM     26  H   UNL     1       6.216   4.880  23.360  0.00  0.00    +0.118 HD
ATOM     27  H   UNL     1       5.012   3.623  23.507  0.00  0.00    +0.118 HD
ENDBRANCH  24  25
ENDBRANCH  20  21
TORSDOF 6
