REMARK  Name = 5L6O
REMARK  3 active torsions:
REMARK  status: ('A' for Active; 'I' for Inactive)
REMARK    1  A    between atoms: C_3  and  N_18
REMARK    2  A    between atoms: C_7  and  C_11
REMARK    3  A    between atoms: C_11  and  C_12
REMARK                            x       y       z     vdW  Elec       q    Type
REMARK                         _______ _______ _______ _____ _____    ______ ____
ROOT
ATOM      6  N   UNL     1      13.290   2.260  -5.668  0.00  0.00    -0.299 N 
ATOM      7  H   UNL     1      12.929   3.010  -6.340  0.00  0.00    +0.154 HD
ATOM      8  C   UNL     1      14.644   2.184  -5.559  0.00  0.00    +0.134 A 
ATOM      9  N   UNL     1      15.181   1.158  -4.885  0.00  0.00    -0.220 NA
ATOM     10  C   UNL     1      16.519   1.123  -4.808  0.00  0.00    +0.224 A 
ATOM     11  N   UNL     1      17.408   1.980  -5.312  0.00  0.00    -0.235 NA
ATOM     12  C   UNL     1      16.870   3.036  -6.000  0.00  0.00    +0.077 A 
ATOM     13  C   UNL     1      17.750   3.991  -6.558  0.00  0.00    +0.040 A 
ATOM     14  C   UNL     1      17.268   5.084  -7.248  0.00  0.00    +0.019 A 
ATOM     18  C   UNL     1      15.887   5.235  -7.415  0.00  0.00    +0.012 A 
ATOM     19  C   UNL     1      15.014   4.334  -6.884  0.00  0.00    +0.014 A 
ATOM     20  C   UNL     1      15.473   3.201  -6.167  0.00  0.00    +0.041 A 
ENDROOT
BRANCH   6   5
ATOM      1  C   UNL     1      10.572  -0.176  -5.130  0.00  0.00    +0.002 A 
ATOM      2  C   UNL     1      10.288   0.024  -3.793  0.00  0.00    +0.000 A 
ATOM      3  C   UNL     1      11.007   0.959  -3.071  0.00  0.00    +0.002 A 
ATOM      4  C   UNL     1      12.004   1.701  -3.683  0.00  0.00    +0.023 A 
ATOM      5  C   UNL     1      12.293   1.499  -5.029  0.00  0.00    +0.032 A 
ATOM     21  C   UNL     1      11.566   0.561  -5.754  0.00  0.00    +0.023 A 
ENDBRANCH   6   5
BRANCH  14  15
ATOM     15  C   UNL     1      18.117   6.145  -7.872  0.00  0.00    +0.160 C 
ATOM     16  O   UNL     1      17.620   7.141  -8.368  0.00  0.00    -0.292 OA
ATOM     17  C   UNL     1      19.617   5.952  -7.890  0.00  0.00    +0.091 C 
ENDBRANCH  14  15
TORSDOF 2
