REMARK  Name = 3mvm_ligand
REMARK  8 active torsions:
REMARK  status: ('A' for Active; 'I' for Inactive)
REMARK    1  A    between atoms: C7_7  and  C16_16
REMARK    2  A    between atoms: C8_8  and  C10_10
REMARK    3  A    between atoms: N12_12  and  C13_13
REMARK    4  A    between atoms: C13_13  and  C14_14
REMARK    5  A    between atoms: C14_14  and  C15_15
REMARK    6  A    between atoms: N17_17  and  C18_18
REMARK    7  A    between atoms: C19_19  and  C32_32
REMARK    8  A    between atoms: C22_22  and  C24_24
REMARK                            x       y       z     vdW  Elec       q    Type
REMARK                         _______ _______ _______ _____ _____    ______ ____
ROOT
ATOM      1  N   UNL     1      -2.340   5.834  36.151  0.00  0.00    -0.165 N 
ATOM      2  C   UNL     1      -2.076   6.898  35.369  0.00  0.00    +0.163 A 
ATOM      3  C   UNL     1      -2.261   8.040  36.066  0.00  0.00    +0.043 A 
ATOM     11  C   UNL     1      -2.679   7.648  37.409  0.00  0.00    -0.021 A 
ATOM     12  C   UNL     1      -3.007   8.588  38.558  0.00  0.00    +0.059 C 
ATOM     13  C   UNL     1      -2.705   6.270  37.381  0.00  0.00    +0.154 A 
ATOM     14  C   UNL     1      -3.036   5.187  38.377  0.00  0.00    +0.167 A 
ATOM     15  N   UNL     1      -3.406   5.517  39.611  0.00  0.00    -0.248 N 
ATOM     16  H   UNL     1      -3.423   6.494  39.903  0.00  0.00    +0.219 HD
ATOM     33  N   UNL     1      -2.972   3.885  38.066  0.00  0.00    -0.278 NA
ATOM     34  C   UNL     1      -2.588   3.483  36.776  0.00  0.00    +0.179 A 
ATOM     35  N   UNL     1      -2.286   4.417  35.861  0.00  0.00    -0.169 NA
ENDROOT
BRANCH  15  17
ATOM     17  C   UNL     1      -3.768   4.512  40.493  0.00  0.00    +0.075 A 
ATOM     18  C   UNL     1      -2.739   3.918  41.223  0.00  0.00    +0.033 A 
ATOM     19  C   UNL     1      -3.031   2.915  42.114  0.00  0.00    +0.039 A 
ATOM     29  C   UNL     1      -4.380   2.477  42.303  0.00  0.00    -0.003 A 
ATOM     30  C   UNL     1      -5.434   3.058  41.583  0.00  0.00    -0.009 A 
ATOM     31  C   UNL     1      -5.157   4.086  40.663  0.00  0.00    -0.016 A 
ATOM     32  C   UNL     1      -6.320   4.697  39.896  0.00  0.00    +0.083 C 
BRANCH  19  20
ATOM     20  C   UNL     1      -1.902   2.342  42.841  0.00  0.00    +0.221 C 
ATOM     21  N   UNL     1      -2.108   1.231  43.581  0.00  0.00    -0.233 N 
ATOM     22  H   UNL     1      -2.980   0.717  43.454  0.00  0.00    +0.220 HD
ATOM     23  C   UNL     1      -1.210   0.767  44.485  0.00  0.00    +0.127 A 
ATOM     24  C   UNL     1      -1.129  -0.617  44.952  0.00  0.00    +0.028 A 
ATOM     25  C   UNL     1      -0.155  -0.693  45.809  0.00  0.00    +0.221 A 
ATOM     26  O   UNL     1       0.417   0.531  45.950  0.00  0.00    -0.193 OA
ATOM     27  N   UNL     1      -0.249   1.448  45.115  0.00  0.00    -0.152 NA
ATOM     28  O   UNL     1      -0.796   2.932  42.728  0.00  0.00    -0.378 OA
ENDBRANCH  19  20
ENDBRANCH  15  17
BRANCH   3   4
ATOM      4  C   UNL     1      -2.068   9.430  35.542  0.00  0.00    +0.180 C 
ATOM      5  N   UNL     1      -1.458   9.522  34.326  0.00  0.00    -0.291 N 
ATOM      6  H   UNL     1      -1.180   8.639  33.898  0.00  0.00    +0.184 HD
ATOM     10  O   UNL     1      -2.465  10.404  36.225  0.00  0.00    -0.399 OA
BRANCH   5   7
ATOM      7  C   UNL     1      -1.151  10.741  33.553  0.00  0.00    +0.133 C 
BRANCH   7   8
ATOM      8  C   UNL     1      -2.363  11.032  32.668  0.00  0.00    +0.021 C 
ATOM      9  C   UNL     1      -2.277  10.143  31.446  0.00  0.00    +0.005 C 
ENDBRANCH   7   8
ENDBRANCH   5   7
ENDBRANCH   3   4
TORSDOF 5
