REMARK  Name = 5TWL
REMARK  7 active torsions:
REMARK  status: ('A' for Active; 'I' for Inactive)
REMARK    1  A    between atoms: N_1  and  C_2
REMARK    2  A    between atoms: N_1  and  C_4
REMARK    3  A    between atoms: N_1  and  C_15
REMARK    4  A    between atoms: C_11  and  C_16
REMARK    5  A    between atoms: C_15  and  C_22
REMARK    6  A    between atoms: C_19  and  O_32
REMARK    7  A    between atoms: C_25  and  N_29
REMARK                            x       y       z     vdW  Elec       q    Type
REMARK                         _______ _______ _______ _____ _____    ______ ____
ROOT
ATOM      7  N   UNL     1      -3.070  11.818  -2.753  0.00  0.00    -0.252 N 
ATOM      8  C   UNL     1      -2.881  12.965  -1.906  0.00  0.00    +0.307 C 
ATOM      9  N   UNL     1      -2.125  12.781  -0.757  0.00  0.00    -0.295 N 
ATOM     10  H   UNL     1      -1.958  13.604  -0.093  0.00  0.00    +0.151 HD
ATOM     11  C   UNL     1      -1.556  11.474  -0.448  0.00  0.00    +0.144 C 
ATOM     12  C   UNL     1      -2.473  10.397  -0.939  0.00  0.00    +0.010 A 
ATOM     13  C   UNL     1      -2.537   9.190  -0.195  0.00  0.00    +0.118 A 
ATOM     14  N   UNL     1      -3.295   8.161  -0.522  0.00  0.00    -0.255 NA
ATOM     15  C   UNL     1      -4.067   8.299  -1.666  0.00  0.00    +0.073 A 
ATOM     16  C   UNL     1      -4.089   9.456  -2.483  0.00  0.00    +0.023 A 
ATOM     17  C   UNL     1      -4.942   9.396  -3.607  0.00  0.00    +0.020 A 
ATOM     18  C   UNL     1      -5.696   8.303  -3.910  0.00  0.00    -0.017 A 
ATOM     29  C   UNL     1      -5.667   7.154  -3.093  0.00  0.00    +0.010 A 
ATOM     30  C   UNL     1      -4.864   7.157  -1.989  0.00  0.00    +0.029 A 
ATOM     31  O   UNL     1      -3.346  14.075  -2.153  0.00  0.00    -0.252 OA
ATOM     32  C   UNL     1      -3.237  10.567  -2.092  0.00  0.00    +0.053 A 
ENDROOT
BRANCH  18  19
ATOM     19  C   UNL     1      -6.518   8.364  -5.113  0.00  0.00    -0.015 A 
ATOM     20  C   UNL     1      -6.907   7.224  -5.802  0.00  0.00    +0.032 A 
ATOM     21  C   UNL     1      -7.676   7.371  -6.947  0.00  0.00    +0.084 A 
ATOM     22 CL   UNL     1      -8.159   5.972  -7.819  0.00  0.00    -0.080 Cl
ATOM     23  C   UNL     1      -8.066   8.626  -7.418  0.00  0.00    +0.153 A 
ATOM     26  C   UNL     1      -7.654   9.756  -6.705  0.00  0.00    +0.084 A 
ATOM     27 CL   UNL     1      -8.085  11.307  -7.247  0.00  0.00    -0.080 Cl
ATOM     28  C   UNL     1      -6.891   9.634  -5.563  0.00  0.00    +0.032 A 
BRANCH  23  24
ATOM     24  O   UNL     1      -8.821   8.843  -8.510  0.00  0.00    -0.504 OA
ATOM     25  H   UNL     1      -9.702   9.342  -8.233  0.00  0.00    +0.292 HD
ENDBRANCH  23  24
ENDBRANCH  18  19
BRANCH   7   6
ATOM      3  C   UNL     1      -2.809  13.387  -6.824  0.00  0.00    +0.003 C 
ATOM      4  C   UNL     1      -1.640  12.615  -6.199  0.00  0.00    +0.006 C 
ATOM      5  C   UNL     1      -1.725  12.706  -4.677  0.00  0.00    +0.023 C 
ATOM      6  C   UNL     1      -3.037  12.032  -4.237  0.00  0.00    +0.083 C 
ATOM     33  C   UNL     1      -4.237  12.826  -4.815  0.00  0.00    +0.023 C 
ATOM     34  C   UNL     1      -4.145  12.805  -6.353  0.00  0.00    +0.006 C 
BRANCH   3   2
ATOM      2  C   UNL     1      -2.658  13.288  -8.363  0.00  0.00    +0.087 C 
BRANCH   2   1
ATOM      1  N   UNL     1      -3.742  14.077  -9.026  0.00  0.00    -0.308 NA
ATOM     35  C   UNL     1      -3.793  13.748 -10.478  0.00  0.00    +0.104 C 
ATOM     36  C   UNL     1      -3.514  15.539  -8.858  0.00  0.00    +0.104 C 
ENDBRANCH   2   1
ENDBRANCH   3   2
ENDBRANCH   7   6
TORSDOF 5
