REMARK  Name = E5T
REMARK  3 active torsions:
REMARK  status: ('A' for Active; 'I' for Inactive)
REMARK    1  A    between atoms: C6_4  and  C2_16
REMARK    2  A    between atoms: C8_7  and  C12_10
REMARK    3  A    between atoms: C12_10  and  C13_11
REMARK                            x       y       z     vdW  Elec       q    Type
REMARK                         _______ _______ _______ _____ _____    ______ ____
ROOT
ATOM      7  C   UNL     1      30.135  16.413  -0.292  0.00  0.00    +0.007 A 
ATOM      8  C   UNL     1      29.319  16.219   0.836  0.00  0.00    +0.042 A 
ATOM      9  C   UNL     1      27.988  15.795   0.719  0.00  0.00    +0.196 A 
ATOM     10  O   UNL     1      27.257  15.636   1.885  0.00  0.00    -0.287 OA
ATOM     11  C   UNL     1      27.500  15.524  -0.548  0.00  0.00    +0.040 A 
ATOM     12  C   UNL     1      28.313  15.767  -1.683  0.00  0.00    +0.011 A 
ATOM     18  C   UNL     1      29.655  16.195  -1.535  0.00  0.00    -0.002 A 
ENDROOT
BRANCH   7   3
ATOM      1  C   UNL     1      32.991  15.312  -1.691  0.00  0.00    +0.075 C 
ATOM      2  C   UNL     1      32.700  16.411  -0.697  0.00  0.00    +0.154 A 
ATOM      3  C   UNL     1      31.535  16.879  -0.117  0.00  0.00    +0.050 A 
ATOM      4  C   UNL     1      31.930  17.898   0.709  0.00  0.00    +0.101 A 
ATOM      5  C   UNL     1      31.051  18.795   1.555  0.00  0.00    +0.056 C 
ATOM      6  N   UNL     1      33.280  18.002   0.602  0.00  0.00    -0.082 NA
ATOM     19  O   UNL     1      33.681  17.083  -0.254  0.00  0.00    -0.358 OA
ENDBRANCH   7   3
BRANCH  12  13
ATOM     13  C   UNL     1      27.810  15.597  -3.051  0.00  0.00    +0.174 C 
ATOM     17  O   UNL     1      28.830  15.135  -3.961  0.00  0.00    -0.218 OA
BRANCH  13  14
ATOM     14  C   UNL     1      27.185  16.885  -3.611  0.00  0.00    +0.035 C 
ATOM     15  C   UNL     1      28.011  17.763  -4.533  0.00  0.00    +0.003 C 
ATOM     16  C   UNL     1      26.862  16.987  -5.103  0.00  0.00    +0.003 C 
ENDBRANCH  13  14
ENDBRANCH  12  13
TORSDOF 3
