REMARK  Name = 3r9d_ligand
REMARK  6 active torsions:
REMARK  status: ('A' for Active; 'I' for Inactive)
REMARK    1  A    between atoms: N02_2  and  C09_9
REMARK    2  A    between atoms: N03_3  and  C16_16
REMARK    3  A    between atoms: N04_4  and  C07_7
REMARK    4  A    between atoms: N05_5  and  S27_27
REMARK    5  A    between atoms: C06_6  and  C10_10
REMARK    6  A    between atoms: C13_13  and  S27_27
REMARK                            x       y       z     vdW  Elec       q    Type
REMARK                         _______ _______ _______ _____ _____    ______ ____
ROOT
ATOM      1  N   UNL     1      65.171  81.983 -14.838  0.00  0.00    -0.273 NA
ATOM      2  C   UNL     1      64.895  81.907 -13.554  0.00  0.00    +0.203 A 
ATOM      3  S   UNL     1      65.959  80.897 -12.628  0.00  0.00    +0.011 S 
ATOM      4  C   UNL     1      66.859  80.540 -14.062  0.00  0.00    +0.113 A 
ATOM     16  N   UNL     1      63.880  82.574 -13.073  0.00  0.00    -0.233 N 
ATOM     17  H   UNL     1      63.604  83.409 -13.609  0.00  0.00    +0.224 HD
ATOM     30  C   UNL     1      66.283  81.212 -15.136  0.00  0.00    +0.085 A 
ENDROOT
BRANCH  16  18
ATOM     18  C   UNL     1      63.166  82.329 -12.007  0.00  0.00    +0.070 A 
ATOM     19  C   UNL     1      63.314  81.152 -11.177  0.00  0.00    +0.019 A 
ATOM     20  C   UNL     1      62.483  80.970 -10.036  0.00  0.00    +0.016 A 
ATOM     21  C   UNL     1      61.506  81.949  -9.715  0.00  0.00    +0.097 A 
ATOM     28  C   UNL     1      61.355  83.108 -10.519  0.00  0.00    +0.016 A 
ATOM     29  C   UNL     1      62.178  83.294 -11.656  0.00  0.00    +0.019 A 
BRANCH  21  22
ATOM     22  S   UNL     1      60.457  81.726  -8.303  0.00  0.00    +0.061 S 
ATOM     23  O   UNL     1      59.875  83.013  -7.938  0.00  0.00    -0.152 OA
ATOM     24  O   UNL     1      59.421  80.818  -8.678  0.00  0.00    -0.152 OA
BRANCH  22  25
ATOM     25  N   UNL     1      61.328  81.064  -7.027  0.00  0.00    -0.262 NA
ATOM     26  H   UNL     1      62.300  80.857  -7.139  0.00  0.00    +0.163 HD
ATOM     27  H   UNL     1      60.874  80.877  -6.156  0.00  0.00    +0.163 HD
ENDBRANCH  22  25
ENDBRANCH  21  22
ENDBRANCH  16  18
BRANCH   4   5
ATOM      5  C   UNL     1      67.966  79.711 -14.090  0.00  0.00    +0.203 C 
ATOM      6  O   UNL     1      68.562  79.486 -15.144  0.00  0.00    -0.403 OA
ATOM      7  N   UNL     1      68.386  79.150 -12.882  0.00  0.00    -0.243 N 
ATOM      8  H   UNL     1      67.848  79.383 -12.072  0.00  0.00    +0.223 HD
BRANCH   7   9
ATOM      9  C   UNL     1      69.459  78.312 -12.686  0.00  0.00    +0.062 A 
ATOM     10  C   UNL     1      70.639  78.371 -13.504  0.00  0.00    +0.040 A 
ATOM     11  C   UNL     1      71.729  77.491 -13.259  0.00  0.00    +0.119 A 
ATOM     12  F   UNL     1      72.811  77.553 -14.023  0.00  0.00    -0.188 F 
ATOM     13  C   UNL     1      71.657  76.552 -12.196  0.00  0.00    +0.004 A 
ATOM     14  C   UNL     1      70.492  76.486 -11.375  0.00  0.00    -0.020 A 
ATOM     15  C   UNL     1      69.395  77.366 -11.624  0.00  0.00    +0.001 A 
ENDBRANCH   7   9
ENDBRANCH   4   5
BRANCH  30  31
ATOM     31  N   UNL     1      66.730  81.138 -16.321  0.00  0.00    -0.333 N 
ATOM     32  H   UNL     1      66.265  81.656 -17.080  0.00  0.00    +0.174 HD
ATOM     33  H   UNL     1      67.558  80.560 -16.524  0.00  0.00    +0.174 HD
ENDBRANCH  30  31
TORSDOF 6
