REMARK  Name = 3l8x_ligand
REMARK  6 active torsions:
REMARK  status: ('A' for Active; 'I' for Inactive)
REMARK    1  A    between atoms: C13_1  and  C19_6
REMARK    2  A    between atoms: C18_2  and  C12_9
REMARK    3  A    between atoms: C17_3  and  N25_25
REMARK    4  A    between atoms: C15_5  and  N25_25
REMARK    5  A    between atoms: C20_7  and  N26_26
REMARK    6  A    between atoms: C14_20  and  N24_24
REMARK                            x       y       z     vdW  Elec       q    Type
REMARK                         _______ _______ _______ _____ _____    ______ ____
ROOT
ATOM     15  C   UNL     1      -3.088  -4.391 -19.737  0.00  0.00    +0.148 A 
ATOM     16  N   UNL     1      -2.822  -3.199 -19.158  0.00  0.00    -0.262 NA
ATOM     17  C   UNL     1      -2.410  -3.187 -17.871  0.00  0.00    +0.161 A 
ATOM     18  N   UNL     1      -2.202  -4.222 -17.040  0.00  0.00    -0.265 NA
ATOM     19  C   UNL     1      -2.454  -5.403 -17.644  0.00  0.00    +0.180 A 
ATOM     20  N   UNL     1      -2.339  -6.684 -17.112  0.00  0.00    -0.138 N 
ATOM     21  N   UNL     1      -2.697  -7.621 -18.032  0.00  0.00    -0.187 NA
ATOM     22  C   UNL     1      -3.017  -6.937 -19.127  0.00  0.00    +0.107 A 
ATOM     29  C   UNL     1      -2.894  -5.548 -18.954  0.00  0.00    +0.086 A 
ENDROOT
BRANCH  20  23
ATOM     23  C   UNL     1      -1.956  -7.091 -15.796  0.00  0.00    +0.110 A 
ATOM     24  C   UNL     1      -2.396  -8.329 -15.306  0.00  0.00    +0.030 A 
ATOM     25  C   UNL     1      -2.051  -8.756 -14.017  0.00  0.00    -0.007 A 
ATOM     26  C   UNL     1      -1.268  -7.959 -13.192  0.00  0.00    -0.015 A 
ATOM     27  C   UNL     1      -0.831  -6.729 -13.669  0.00  0.00    -0.007 A 
ATOM     28  C   UNL     1      -1.173  -6.293 -14.961  0.00  0.00    +0.030 A 
ENDBRANCH  20  23
BRANCH  15  13
ATOM     13  N   UNL     1      -3.520  -4.493 -21.059  0.00  0.00    -0.253 N 
ATOM     14  H   UNL     1      -3.593  -5.453 -21.426  0.00  0.00    +0.218 HD
BRANCH  13  12
ATOM      1  C   UNL     1      -5.215  -3.040 -22.050  0.00  0.00    -0.016 A 
ATOM      2  C   UNL     1      -5.552  -2.029 -22.960  0.00  0.00    -0.009 A 
ATOM      3  C   UNL     1      -4.579  -1.453 -23.779  0.00  0.00    -0.004 A 
ATOM      4  C   UNL     1      -3.249  -1.877 -23.699  0.00  0.00    +0.034 A 
ATOM      5  C   UNL     1      -2.891  -2.889 -22.786  0.00  0.00    +0.033 A 
ATOM     11  C   UNL     1      -6.299  -3.636 -21.191  0.00  0.00    +0.083 C 
ATOM     12  C   UNL     1      -3.869  -3.477 -21.961  0.00  0.00    +0.075 A 
BRANCH   4   6
ATOM      6  C   UNL     1      -2.198  -1.263 -24.553  0.00  0.00    +0.197 C 
ATOM      7  O   UNL     1      -1.038  -1.615 -24.415  0.00  0.00    -0.388 OA
ATOM      8  N   UNL     1      -2.587  -0.307 -25.462  0.00  0.00    -0.290 N 
ATOM      9  H   UNL     1      -3.550  -0.209 -25.713  0.00  0.00    +0.184 HD
ATOM     10  C   UNL     1      -1.587   0.552 -26.048  0.00  0.00    +0.164 C 
ENDBRANCH   4   6
ENDBRANCH  13  12
ENDBRANCH  15  13
TORSDOF 4
