REMARK  Name = 4YFI
REMARK  4 active torsions:
REMARK  status: ('A' for Active; 'I' for Inactive)
REMARK    1  A    between atoms: N_1  and  C_2
REMARK    2  A    between atoms: C_4  and  S_12
REMARK    3  A    between atoms: C_10  and  N_11
REMARK    4  A    between atoms: N_11  and  S_12
REMARK                            x       y       z     vdW  Elec       q    Type
REMARK                         _______ _______ _______ _____ _____    ______ ____
ROOT
ATOM      1  N   UNL     1      11.898  20.157  10.906  0.00  0.00    -0.298 N 
ATOM      2  H   UNL     1      11.217  20.879  11.306  0.00  0.00    +0.154 HD
ATOM      3  C   UNL     1      12.807  20.595   9.926  0.00  0.00    +0.152 A 
ATOM      4  C   UNL     1      12.596  21.865   9.410  0.00  0.00    +0.126 A 
ATOM      5  N   UNL     1      11.631  22.879   9.673  0.00  0.00    -0.340 N 
ATOM      6  H   UNL     1      10.825  22.816  10.374  0.00  0.00    +0.167 HD
ATOM      7  C   UNL     1      11.915  23.934   8.879  0.00  0.00    +0.199 A 
ATOM      8  N   UNL     1      13.072  23.673   8.109  0.00  0.00    -0.216 NA
ATOM      9  C   UNL     1      13.502  22.347   8.449  0.00  0.00    +0.183 A 
ATOM     10  N   UNL     1      14.506  21.550   8.057  0.00  0.00    -0.214 NA
ATOM     11  C   UNL     1      14.667  20.298   8.575  0.00  0.00    +0.225 A 
ATOM     12  N   UNL     1      13.826  19.841   9.532  0.00  0.00    -0.218 NA
ENDROOT
BRANCH   1  13
ATOM     13  C   UNL     1      11.815  18.836  11.403  0.00  0.00    +0.034 A 
ATOM     14  C   UNL     1      10.732  18.612  12.253  0.00  0.00    +0.023 A 
ATOM     15  C   UNL     1      10.547  17.373  12.873  0.00  0.00    +0.004 A 
ATOM     16  C   UNL     1      11.443  16.322  12.616  0.00  0.00    +0.029 A 
ATOM     17  C   UNL     1      12.522  16.580  11.768  0.00  0.00    +0.107 A 
ATOM     24  C   UNL     1      12.749  17.813  11.131  0.00  0.00    +0.052 A 
BRANCH  17  18
ATOM     18  S   UNL     1      13.628  15.196  11.423  0.00  0.00    +0.058 S 
ATOM     19  O   UNL     1      13.462  14.138  12.465  0.00  0.00    -0.153 OA
ATOM     20  O   UNL     1      13.309  14.775  10.065  0.00  0.00    -0.153 OA
BRANCH  18  21
ATOM     21  N   UNL     1      15.232  15.850  11.340  0.00  0.00    -0.193 NA
ATOM     22  H   UNL     1      15.911  15.086  11.025  0.00  0.00    +0.148 HD
ATOM     23  C   UNL     1      15.640  16.350  12.672  0.00  0.00    +0.127 C 
ENDBRANCH  18  21
ENDBRANCH  17  18
ENDBRANCH   1  13
TORSDOF 3
