REMARK  Name = 4o0x_ligand
REMARK  4 active torsions:
REMARK  status: ('A' for Active; 'I' for Inactive)
REMARK    1  A    between atoms: C1_1  and  C2_2
REMARK    2  A    between atoms: C7_7  and  C18_18
REMARK    3  A    between atoms: C19_19  and  C20_20
REMARK    4  A    between atoms: C20_20  and  O26_26
REMARK                            x       y       z     vdW  Elec       q    Type
REMARK                         _______ _______ _______ _____ _____    ______ ____
ROOT
ATOM      1  C   UNL     1     -18.785  -4.139  13.368  0.00  0.00    +0.174 C 
ATOM      2  C   UNL     1     -19.056  -2.690  13.702  0.00  0.00    +0.146 A 
ATOM      3  N   UNL     1     -20.003  -2.189  14.570  0.00  0.00    -0.149 N 
ATOM      4  C   UNL     1     -20.941  -2.891  15.342  0.00  0.00    +0.248 A 
ATOM      5  N   UNL     1     -21.370  -4.093  14.982  0.00  0.00    -0.201 NA
ATOM      6  C   UNL     1     -22.266  -4.752  15.714  0.00  0.00    +0.192 A 
ATOM      7  N   UNL     1     -22.697  -6.007  15.313  0.00  0.00    -0.299 N 
ATOM      8  H   UNL     1     -22.324  -6.428  14.450  0.00  0.00    +0.186 HD
ATOM      9  H   UNL     1     -23.390  -6.518  15.878  0.00  0.00    +0.186 HD
ATOM     10  N   UNL     1     -22.744  -4.197  16.830  0.00  0.00    -0.237 NA
ATOM     11  C   UNL     1     -22.326  -2.995  17.191  0.00  0.00    +0.194 A 
ATOM     12  N   UNL     1     -21.433  -2.350  16.456  0.00  0.00    -0.228 NA
ATOM     13  C   UNL     1     -19.865  -0.800  14.541  0.00  0.00    +0.109 A 
ATOM     14  C   UNL     1     -20.513   0.258  15.175  0.00  0.00    +0.036 A 
ATOM     15  C   UNL     1     -20.121   1.572  14.914  0.00  0.00    +0.012 A 
ATOM     26  C   UNL     1     -19.073   1.823  14.019  0.00  0.00    -0.007 A 
ATOM     27  C   UNL     1     -18.431   0.800  13.395  0.00  0.00    -0.007 A 
ATOM     28  C   UNL     1     -18.817  -0.523  13.642  0.00  0.00    +0.029 A 
ATOM     29  N   UNL     1     -18.374  -1.715  13.177  0.00  0.00    -0.309 NA
ENDROOT
BRANCH  15  16
ATOM     16  C   UNL     1     -20.770   2.685  15.547  0.00  0.00    -0.072 C 
ATOM     17  C   UNL     1     -21.295   3.599  16.068  0.00  0.00    -0.067 C 
BRANCH  17  18
ATOM     18  C   UNL     1     -21.953   4.757  16.702  0.00  0.00    +0.125 C 
ATOM     21  C   UNL     1     -21.503   4.909  18.167  0.00  0.00    +0.048 C 
ATOM     22  C   UNL     1     -22.218   6.137  18.739  0.00  0.00    +0.004 C 
ATOM     23  C   UNL     1     -23.733   5.922  18.683  0.00  0.00    +0.000 C 
ATOM     24  C   UNL     1     -24.177   5.747  17.234  0.00  0.00    +0.004 C 
ATOM     25  C   UNL     1     -23.461   4.530  16.649  0.00  0.00    +0.048 C 
BRANCH  18  19
ATOM     19  O   UNL     1     -21.660   5.958  15.993  0.00  0.00    -0.377 OA
ATOM     20  H   UNL     1     -20.724   6.117  16.015  0.00  0.00    +0.211 HD
ENDBRANCH  18  19
ENDBRANCH  17  18
ENDBRANCH  15  16
TORSDOF 3
