REMARK  Name = 4X7Q
REMARK  4 active torsions:
REMARK  status: ('A' for Active; 'I' for Inactive)
REMARK    1  A    between atoms: C_2  and  C_4
REMARK    2  A    between atoms: C_4  and  N_19
REMARK    3  A    between atoms: O_13  and  C_20
REMARK    4  A    between atoms: O_13  and  C_24
REMARK                            x       y       z     vdW  Elec       q    Type
REMARK                         _______ _______ _______ _____ _____    ______ ____
ROOT
ATOM      1  O   UNL     1      26.788   4.168   5.650  0.00  0.00    -0.267 OA
ATOM      2  C   UNL     1      26.920   4.680   4.546  0.00  0.00    +0.283 C 
ENDROOT
BRANCH   2  17
ATOM     17  C   UNL     1      26.485   3.930   3.376  0.00  0.00    +0.116 C 
ATOM     18  N   UNL     1      26.552   4.541   2.156  0.00  0.00    -0.238 NA
ATOM     19  C   UNL     1      26.119   3.817   1.113  0.00  0.00    +0.110 C 
ATOM     20  S   UNL     1      25.620   2.359   1.787  0.00  0.00    -0.099 S 
ATOM     21  C   UNL     1      26.099   4.161  -0.226  0.00  0.00    +0.076 C 
ATOM     22  C   UNL     1      25.640   3.334  -1.238  0.00  0.00    +0.132 C 
ATOM     23  F   UNL     1      25.212   2.117  -0.934  0.00  0.00    -0.205 F 
ATOM     24  C   UNL     1      25.630   3.758  -2.580  0.00  0.00    +0.016 C 
ATOM     25  C   UNL     1      26.088   5.039  -2.895  0.00  0.00    +0.060 C 
ATOM     26  C   UNL     1      26.530   5.883  -1.874  0.00  0.00    +0.016 C 
ATOM     27  C   UNL     1      26.551   5.432  -0.552  0.00  0.00    +0.132 C 
ATOM     28  F   UNL     1      27.001   6.242   0.424  0.00  0.00    -0.205 F 
ATOM     29  C   UNL     1      25.973   2.652   3.366  0.00  0.00    +0.136 C 
ENDBRANCH   2  17
BRANCH   2   3
ATOM      3  N   UNL     1      27.427   5.892   4.242  0.00  0.00    -0.171 NA
ATOM      4  C   UNL     1      27.962   6.717   5.170  0.00  0.00    +0.116 C 
ATOM      5  C   UNL     1      28.344   7.989   4.736  0.00  0.00    +0.143 C 
ATOM      6  C   UNL     1      28.856   8.928   5.611  0.00  0.00    +0.044 C 
ATOM      7  C   UNL     1      29.021   8.533   6.937  0.00  0.00    +0.172 C 
ATOM      8  N   UNL     1      28.638   7.301   7.344  0.00  0.00    -0.285 NA
ATOM     16  C   UNL     1      28.133   6.371   6.511  0.00  0.00    +0.134 C 
BRANCH   5   9
ATOM      9  O   UNL     1      28.135   8.255   3.430  0.00  0.00    -0.486 OA
BRANCH   9  10
ATOM     10  C   UNL     1      28.402   9.457   2.740  0.00  0.00    +0.188 C 
ATOM     11  C   UNL     1      28.042   9.027   1.340  0.00  0.00    +0.061 C 
ATOM     12  C   UNL     1      26.591   9.469   1.166  0.00  0.00    +0.084 C 
ATOM     13  N   UNL     1      26.518  10.615   2.044  0.00  0.00    -0.312 NA
ATOM     14  H   UNL     1      25.820  11.412   1.898  0.00  0.00    +0.122 HD
ATOM     15  C   UNL     1      27.461  10.596   3.131  0.00  0.00    +0.125 C 
ENDBRANCH   9  10
ENDBRANCH   5   9
ENDBRANCH   2   3
TORSDOF 4
