REMARK  Name = 4uwf_ligand
REMARK  3 active torsions:
REMARK  status: ('A' for Active; 'I' for Inactive)
REMARK    1  A    between atoms: C4_4  and  N20_20
REMARK    2  A    between atoms: C8_8  and  N21_21
REMARK    3  A    between atoms: C17_17  and  C18_18
REMARK                            x       y       z     vdW  Elec       q    Type
REMARK                         _______ _______ _______ _____ _____    ______ ____
ROOT
ATOM      9  N   UNL     1      21.039 -15.532 -23.264  0.00  0.00    -0.249 N 
ATOM     10  C   UNL     1      21.875 -16.676 -23.578  0.00  0.00    +0.222 C 
ATOM     15  C   UNL     1      21.169 -17.969 -23.245  0.00  0.00    +0.066 C 
ATOM     16  C   UNL     1      19.770 -17.955 -23.809  0.00  0.00    +0.139 C 
ATOM     17  N   UNL     1      19.025 -16.795 -23.378  0.00  0.00    -0.228 N 
ATOM     18  C   UNL     1      17.661 -16.931 -23.256  0.00  0.00    +0.273 A 
ATOM     19  O   UNL     1      17.031 -17.957 -23.475  0.00  0.00    -0.342 OA
ATOM     20  C   UNL     1      16.945 -15.716 -22.822  0.00  0.00    +0.334 A 
ATOM     21  C   UNL     1      17.643 -14.596 -22.589  0.00  0.00    +0.297 A 
ATOM     28  N   UNL     1      19.001 -14.554 -22.743  0.00  0.00    -0.191 N 
ATOM     29  H   UNL     1      19.503 -13.674 -22.558  0.00  0.00    +0.246 HD
ATOM     30  C   UNL     1      19.667 -15.598 -23.117  0.00  0.00    +0.226 A 
ENDROOT
BRANCH   9   8
ATOM      1  C   UNL     1      22.157 -14.979 -21.183  0.00  0.00    +0.048 A 
ATOM      2  C   UNL     1      22.832 -14.068 -20.399  0.00  0.00    +0.126 A 
ATOM      3  F   UNL     1      23.233 -14.419 -19.168  0.00  0.00    -0.186 F 
ATOM      4  C   UNL     1      23.099 -12.800 -20.866  0.00  0.00    +0.051 A 
ATOM      5  C   UNL     1      22.680 -12.456 -22.132  0.00  0.00    +0.126 A 
ATOM      6  F   UNL     1      22.929 -11.225 -22.603  0.00  0.00    -0.186 F 
ATOM      7  C   UNL     1      22.003 -13.360 -22.920  0.00  0.00    +0.048 A 
ATOM      8  C   UNL     1      21.743 -14.630 -22.452  0.00  0.00    +0.063 A 
ENDBRANCH   9   8
BRANCH  21  22
ATOM     22  N   UNL     1      16.975 -13.458 -22.185  0.00  0.00    -0.210 N 
ATOM     23  C   UNL     1      17.741 -12.247 -21.934  0.00  0.00    +0.204 C 
ATOM     24  C   UNL     1      16.957 -11.314 -21.041  0.00  0.00    +0.191 C 
ATOM     25  O   UNL     1      15.716 -11.030 -21.673  0.00  0.00    -0.375 OA
ATOM     26  C   UNL     1      14.958 -12.233 -21.706  0.00  0.00    +0.191 C 
ATOM     27  C   UNL     1      15.627 -13.196 -22.660  0.00  0.00    +0.204 C 
ENDBRANCH  21  22
BRANCH  10  11
ATOM     11  C   UNL     1      22.299 -16.607 -25.028  0.00  0.00    +0.417 C 
ATOM     12  F   UNL     1      23.283 -15.682 -25.169  0.00  0.00    -0.168 F 
ATOM     13  F   UNL     1      21.275 -16.241 -25.846  0.00  0.00    -0.168 F 
ATOM     14  F   UNL     1      22.781 -17.803 -25.463  0.00  0.00    -0.168 F 
ENDBRANCH  10  11
TORSDOF 3
