REMARK  Name = N1D
REMARK  5 active torsions:
REMARK  status: ('A' for Active; 'I' for Inactive)
REMARK    1  A    between atoms: O05_2  and  C06_3
REMARK    2  A    between atoms: C11_6  and  C20_11
REMARK    3  A    between atoms: C14_8  and  O15_9
REMARK    4  A    between atoms: C33_19  and  C36_22
REMARK    5  A    between atoms: N45_27  and  S52_30
REMARK                            x       y       z     vdW  Elec       q    Type
REMARK                         _______ _______ _______ _____ _____    ______ ____
ROOT
ATOM      7  C   UNL     1       1.081  14.410  10.588  0.00  0.00    +0.023 C 
ATOM      8  C   UNL     1       0.622  14.879  11.914  0.00  0.00    +0.028 C 
ATOM      9  S   UNL     1       1.535  15.813  13.052  0.00  0.00    -0.105 S 
ATOM     10  C   UNL     1       0.156  15.993  14.088  0.00  0.00    +0.133 C 
ATOM     23  C   UNL     1      -0.845  15.141  13.701  0.00  0.00    +0.052 C 
ATOM     24  C   UNL     1      -0.637  14.554  12.415  0.00  0.00    +0.041 C 
ATOM     25  C   UNL     1      -1.498  13.681  11.592  0.00  0.00    +0.257 C 
ATOM     26  O   UNL     1      -2.601  13.262  11.911  0.00  0.00    -0.267 OA
ATOM     27  N   UNL     1      -1.029  13.357  10.311  0.00  0.00    -0.292 N 
ATOM     28  C   UNL     1      -1.904  12.561   9.450  0.00  0.00    +0.134 C 
ATOM     29  C   UNL     1       0.213  13.660   9.882  0.00  0.00    +0.079 C 
ENDROOT
BRANCH  10  11
ATOM     11  C   UNL     1       0.308  16.608  15.447  0.00  0.00    +0.236 C 
ATOM     12  O   UNL     1       1.371  16.463  16.037  0.00  0.00    -0.274 OA
ATOM     13  N   UNL     1      -0.737  17.289  15.994  0.00  0.00    -0.276 N 
ATOM     14  C   UNL     1      -0.581  17.925  17.314  0.00  0.00    +0.113 C 
ATOM     15  C   UNL     1      -1.739  17.571  18.226  0.00  0.00    +0.117 C 
ATOM     16  N   UNL     1      -2.993  17.965  17.574  0.00  0.00    -0.156 NA
ATOM     21  C   UNL     1      -3.186  17.257  16.298  0.00  0.00    +0.117 C 
ATOM     22  C   UNL     1      -2.039  17.592  15.367  0.00  0.00    +0.113 C 
BRANCH  16  17
ATOM     17  S   UNL     1      -4.313  18.125  18.532  0.00  0.00    +0.046 S 
ATOM     18  O   UNL     1      -3.973  19.058  19.559  0.00  0.00    -0.157 OA
ATOM     19  C   UNL     1      -4.613  16.569  19.275  0.00  0.00    +0.196 C 
ATOM     20  O   UNL     1      -5.415  18.437  17.674  0.00  0.00    -0.157 OA
ENDBRANCH  16  17
ENDBRANCH  10  11
BRANCH   7   6
ATOM      3  C   UNL     1       4.537  15.581   8.431  0.00  0.00    +0.172 A 
ATOM      4  C   UNL     1       3.863  16.522   9.231  0.00  0.00    +0.172 A 
ATOM      5  C   UNL     1       2.776  16.130   9.987  0.00  0.00    +0.040 A 
ATOM      6  C   UNL     1       2.394  14.792  10.025  0.00  0.00    +0.005 A 
ATOM     30  C   UNL     1       3.111  13.864   9.279  0.00  0.00    +0.003 A 
ATOM     33  C   UNL     1       4.151  14.254   8.467  0.00  0.00    +0.040 A 
BRANCH   3   2
ATOM      1  C   UNL     1       6.914  15.390   8.391  0.00  0.00    +0.253 C 
ATOM      2  O   UNL     1       5.722  16.005   7.900  0.00  0.00    -0.468 OA
ENDBRANCH   3   2
BRANCH   4  31
ATOM     31  O   UNL     1       4.385  17.787   9.224  0.00  0.00    -0.468 OA
ATOM     32  C   UNL     1       3.560  18.839   8.733  0.00  0.00    +0.253 C 
ENDBRANCH   4  31
ENDBRANCH   7   6
TORSDOF 5
