REMARK  Name = 4ZZM
REMARK  4 active torsions:
REMARK  status: ('A' for Active; 'I' for Inactive)
REMARK    1  A    between atoms: S_2  and  C_4
REMARK    2  A    between atoms: S_2  and  N_6
REMARK    3  A    between atoms: C_4  and  C_5
REMARK    4  A    between atoms: N_16  and  C_17
REMARK                            x       y       z     vdW  Elec       q    Type
REMARK                         _______ _______ _______ _____ _____    ______ ____
ROOT
ATOM      3  N   UNL     1     -13.574  13.389  40.198  0.00  0.00    -0.175 NA
ATOM      4  C   UNL     1     -14.123  12.403  39.249  0.00  0.00    +0.114 C 
ATOM      5  C   UNL     1     -15.058  11.384  39.872  0.00  0.00    +0.055 C 
ATOM      6  C   UNL     1     -16.076  12.068  40.751  0.00  0.00    -0.007 A 
ATOM      7  C   UNL     1     -17.304  11.536  41.061  0.00  0.00    +0.120 A 
ATOM      8  N   UNL     1     -18.237  12.160  41.792  0.00  0.00    -0.221 NA
ATOM      9  C   UNL     1     -17.893  13.367  42.274  0.00  0.00    +0.224 A 
ATOM     10  N   UNL     1     -18.809  13.994  43.041  0.00  0.00    -0.247 NA
ATOM     17  N   UNL     1     -16.731  14.010  42.060  0.00  0.00    -0.327 N 
ATOM     18  H   UNL     1     -16.544  14.990  42.447  0.00  0.00    +0.169 HD
ATOM     19  C   UNL     1     -15.819  13.345  41.330  0.00  0.00    +0.039 A 
ATOM     20  C   UNL     1     -14.518  14.087  41.102  0.00  0.00    +0.162 C 
ENDROOT
BRANCH  10  11
ATOM     11  C   UNL     1     -18.591  15.279  43.714  0.00  0.00    +0.113 C 
ATOM     12  C   UNL     1     -17.614  15.121  44.880  0.00  0.00    +0.055 C 
ATOM     13  C   UNL     1     -17.480  16.424  45.631  0.00  0.00    +0.162 C 
ATOM     14  O   UNL     1     -18.753  16.878  46.093  0.00  0.00    -0.380 OA
ATOM     15  C   UNL     1     -19.630  17.141  44.982  0.00  0.00    +0.162 C 
ATOM     16  C   UNL     1     -19.908  15.882  44.189  0.00  0.00    +0.055 C 
ENDBRANCH  10  11
BRANCH   3   2
ATOM      1  O   UNL     1     -11.663  14.541  41.270  0.00  0.00    -0.158 OA
ATOM      2  S   UNL     1     -12.006  13.309  40.634  0.00  0.00    +0.032 S 
ATOM     23  O   UNL     1     -11.264  12.886  39.486  0.00  0.00    -0.158 OA
BRANCH   2  21
ATOM     21  C   UNL     1     -11.910  12.019  41.856  0.00  0.00    +0.182 C 
ATOM     22  C   UNL     1     -10.578  11.872  42.581  0.00  0.00    +0.030 C 
ENDBRANCH   2  21
ENDBRANCH   3   2
TORSDOF 3
