REMARK  Name = 4l02_ligand
REMARK  8 active torsions:
REMARK  status: ('A' for Active; 'I' for Inactive)
REMARK    1  A    between atoms: C12_8  and  C11_9
REMARK    2  A    between atoms: N1_14  and  C1_15
REMARK    3  A    between atoms: C6_20  and  C7_21
REMARK    4  A    between atoms: C7_21  and  C8_22
REMARK    5  A    between atoms: C8_22  and  N2_23
REMARK    6  A    between atoms: C20_26  and  O2_27
REMARK    7  A    between atoms: C18_29  and  C23_30
REMARK    8  A    between atoms: C23_30  and  O1_31
REMARK                            x       y       z     vdW  Elec       q    Type
REMARK                         _______ _______ _______ _____ _____    ______ ____
ROOT
ATOM      9  C   UNL     1      49.202  64.165   6.319  0.00  0.00    +0.061 A 
ATOM     10  C   UNL     1      50.316  63.376   6.016  0.00  0.00    +0.008 A 
ATOM     11  C   UNL     1      50.474  62.848   4.732  0.00  0.00    -0.016 A 
ATOM     12  C   UNL     1      49.521  63.107   3.744  0.00  0.00    -0.049 A 
ATOM     27  C   UNL     1      48.416  63.897   4.047  0.00  0.00    -0.016 A 
ATOM     28  C   UNL     1      48.259  64.422   5.326  0.00  0.00    +0.008 A 
ENDROOT
BRANCH   9   7
ATOM      3  C   UNL     1      50.858  63.322  10.224  0.00  0.00    +0.006 A 
ATOM      4  C   UNL     1      50.427  64.321  11.011  0.00  0.00    +0.078 A 
ATOM      5  S   UNL     1      49.437  65.303  10.072  0.00  0.00    +0.021 S 
ATOM      6  C   UNL     1      49.595  64.408   8.681  0.00  0.00    +0.199 A 
ATOM      7  N   UNL     1      48.993  64.713   7.524  0.00  0.00    -0.240 N 
ATOM      8  H   UNL     1      48.284  65.459   7.565  0.00  0.00    +0.220 HD
ATOM     29  N   UNL     1      50.392  63.373   8.954  0.00  0.00    -0.309 NA
BRANCH   3   2
ATOM      1  C   UNL     1      51.939  61.221   9.842  0.00  0.00    +0.016 A 
ATOM      2  C   UNL     1      51.696  62.307  10.675  0.00  0.00    -0.025 A 
ATOM     30  C   UNL     1      52.281  62.358  11.946  0.00  0.00    +0.002 A 
ATOM     31  C   UNL     1      53.113  61.327  12.384  0.00  0.00    +0.011 A 
ATOM     32  C   UNL     1      53.348  60.245  11.539  0.00  0.00    +0.051 A 
ATOM     33 CL   UNL     1      54.367  58.935  12.023  0.00  0.00    -0.072 Cl
ATOM     34  C   UNL     1      52.765  60.198  10.280  0.00  0.00    +0.051 A 
ATOM     35 CL   UNL     1      53.077  58.847   9.255  0.00  0.00    -0.071 Cl
ENDBRANCH   3   2
ENDBRANCH   9   7
BRANCH  12  13
ATOM     13  C   UNL     1      49.664  62.539   2.322  0.00  0.00    +0.107 C 
BRANCH  13  14
ATOM     14  C   UNL     1      49.985  61.036   2.307  0.00  0.00    +0.144 C 
BRANCH  14  15
ATOM     15  N   UNL     1      49.729  60.428   0.985  0.00  0.00    +0.240 N 
ATOM     16  H   UNL     1      48.736  60.415   0.814  0.00  0.00    +0.204 HD
ATOM     17  C   UNL     1      50.233  59.023   0.982  0.00  0.00    +0.093 C 
ATOM     21  C   UNL     1      50.112  58.365  -0.412  0.00  0.00    +0.088 C 
ATOM     22  C   UNL     1      50.795  59.224  -1.481  0.00  0.00    +0.125 C 
ATOM     25  C   UNL     1      50.188  60.629  -1.459  0.00  0.00    +0.082 C 
ATOM     26  C   UNL     1      50.383  61.248  -0.067  0.00  0.00    +0.134 C 
BRANCH  22  23
ATOM     23  O   UNL     1      50.617  58.634  -2.771  0.00  0.00    -0.391 OA
ATOM     24  H   UNL     1      50.997  57.763  -2.775  0.00  0.00    +0.210 HD
ENDBRANCH  22  23
BRANCH  17  18
ATOM     18  C   UNL     1      49.483  58.155   2.013  0.00  0.00    +0.210 C 
BRANCH  18  19
ATOM     19  O   UNL     1      48.126  57.924   1.620  0.00  0.00    -0.390 OA
ATOM     20  H   UNL     1      47.695  57.388   2.275  0.00  0.00    +0.210 HD
ENDBRANCH  18  19
ENDBRANCH  17  18
ENDBRANCH  14  15
ENDBRANCH  13  14
ENDBRANCH  12  13
TORSDOF 8
