REMARK  Name = 3gcp_ligand
REMARK  6 active torsions:
REMARK  status: ('A' for Active; 'I' for Inactive)
REMARK    1  A    between atoms: O2_1  and  S1_3
REMARK    2  A    between atoms: C1_2  and  S1_3
REMARK    3  A    between atoms: S1_3  and  CA3_6
REMARK    4  A    between atoms: CA6_9  and  CC2_17
REMARK    5  A    between atoms: CB4_13  and  CC5_20
REMARK    6  A    between atoms: CC4_19  and  CD6_26
REMARK                            x       y       z     vdW  Elec       q    Type
REMARK                         _______ _______ _______ _____ _____    ______ ____
ROOT
ATOM      8  C   UNL     1      22.295   0.953 -18.415  0.00  0.00    +0.188 A 
ATOM      9  N   UNL     1      22.819  -0.261 -18.579  0.00  0.00    -0.198 N 
ATOM     10  H   UNL     1      23.036  -0.921 -17.819  0.00  0.00    +0.254 HD
ATOM     11  C   UNL     1      23.019  -0.490 -19.870  0.00  0.00    +0.175 A 
ATOM     19  C   UNL     1      22.599   0.672 -20.562  0.00  0.00    +0.131 A 
ATOM     26  N   UNL     1      22.154   1.512 -19.618  0.00  0.00    -0.236 NA
ENDROOT
BRANCH  11  12
ATOM     12  C   UNL     1      23.577  -1.690 -20.324  0.00  0.00    +0.066 A 
ATOM     13  C   UNL     1      24.713  -1.692 -21.140  0.00  0.00    +0.056 A 
ATOM     14  C   UNL     1      25.277  -2.896 -21.539  0.00  0.00    +0.066 A 
ATOM     15  C   UNL     1      24.738  -4.105 -21.108  0.00  0.00    +0.160 A 
ATOM     16  F   UNL     1      25.321  -5.267 -21.523  0.00  0.00    -0.161 F 
ATOM     17  C   UNL     1      23.609  -4.120 -20.272  0.00  0.00    +0.066 A 
ATOM     18  C   UNL     1      23.039  -2.912 -19.866  0.00  0.00    +0.056 A 
ENDBRANCH  11  12
BRANCH   8   7
ATOM      4  C   UNL     1      21.072   2.535 -14.711  0.00  0.00    +0.050 A 
ATOM      5  C   UNL     1      21.529   1.226 -14.815  0.00  0.00    +0.035 A 
ATOM      6  C   UNL     1      21.937   0.707 -16.039  0.00  0.00    +0.042 A 
ATOM      7  C   UNL     1      21.905   1.496 -17.181  0.00  0.00    +0.060 A 
ATOM     27  C   UNL     1      21.426   2.799 -17.084  0.00  0.00    +0.042 A 
ATOM     28  C   UNL     1      21.022   3.317 -15.853  0.00  0.00    +0.035 A 
BRANCH   4   3
ATOM      3  S   UNL     1      20.558   3.232 -13.137  0.00  0.00    -0.025 S 
ATOM     29  C   UNL     1      20.206   1.905 -12.000  0.00  0.00    +0.129 C 
BRANCH   3   1
ATOM      1  O   UNL     1      19.339   4.046 -13.413  0.00  0.00    -0.321 OA
ATOM      2  H   UNL     1      19.019   4.420 -12.601  0.00  0.00    +0.232 HD
ENDBRANCH   3   1
ENDBRANCH   4   3
ENDBRANCH   8   7
BRANCH  19  20
ATOM     20  C   UNL     1      22.577   0.937 -21.959  0.00  0.00    +0.044 A 
ATOM     21  C   UNL     1      22.618   2.264 -22.434  0.00  0.00    +0.067 A 
ATOM     22  C   UNL     1      22.578   2.516 -23.821  0.00  0.00    +0.106 A 
ATOM     23  N   UNL     1      22.474   1.514 -24.693  0.00  0.00    -0.287 NA
ATOM     24  C   UNL     1      22.403   0.261 -24.266  0.00  0.00    +0.106 A 
ATOM     25  C   UNL     1      22.444  -0.075 -22.916  0.00  0.00    +0.067 A 
ENDBRANCH  19  20
TORSDOF 5
