REMARK  Name = 5UYJ
REMARK  6 active torsions:
REMARK  status: ('A' for Active; 'I' for Inactive)
REMARK    1  A    between atoms: C_3  and  C_4
REMARK    2  A    between atoms: C_10  and  C_11
REMARK    3  A    between atoms: O_14  and  C_15
REMARK    4  A    between atoms: C_15  and  C_16
REMARK    5  A    between atoms: C_20  and  O_21
REMARK    6  A    between atoms: O_21  and  C_22
REMARK                            x       y       z     vdW  Elec       q    Type
REMARK                         _______ _______ _______ _____ _____    ______ ____
ROOT
ATOM      1  C   UNL     1     -25.174 -12.271 -11.813  0.00  0.00    +0.009 A 
ATOM      2  C   UNL     1     -24.675 -11.226 -11.056  0.00  0.00    +0.016 A 
ATOM      3  C   UNL     1     -23.434 -11.324 -10.425  0.00  0.00    +0.062 A 
ATOM      8  C   UNL     1     -22.644 -12.458 -10.651  0.00  0.00    -0.030 A 
ATOM      9  C   UNL     1     -23.140 -13.469 -11.481  0.00  0.00    +0.013 A 
ATOM     15  C   UNL     1     -24.432 -13.430 -12.000  0.00  0.00    -0.017 A 
ENDROOT
BRANCH  15  16
ATOM     16  C   UNL     1     -24.934 -14.532 -12.882  0.00  0.00    -0.007 A 
ATOM     17  C   UNL     1     -24.706 -15.915 -12.595  0.00  0.00    +0.008 A 
ATOM     18  C   UNL     1     -24.043 -16.410 -11.438  0.00  0.00    +0.014 A 
ATOM     19  C   UNL     1     -23.856 -17.745 -11.244  0.00  0.00    +0.046 A 
ATOM     20  C   UNL     1     -24.231 -18.661 -12.236  0.00  0.00    +0.122 A 
ATOM     23  C   UNL     1     -24.882 -18.233 -13.365  0.00  0.00    +0.074 A 
ATOM     24  C   UNL     1     -25.122 -16.857 -13.580  0.00  0.00    +0.075 A 
ATOM     25  N   UNL     1     -25.757 -16.490 -14.743  0.00  0.00    -0.255 NA
ATOM     26  C   UNL     1     -26.005 -15.208 -14.927  0.00  0.00    +0.112 A 
ATOM     27  C   UNL     1     -25.593 -14.201 -14.048  0.00  0.00    +0.029 A 
BRANCH  20  21
ATOM     21  O   UNL     1     -23.950 -19.960 -11.913  0.00  0.00    -0.495 OA
ATOM     22  C   UNL     1     -24.485 -20.983 -12.753  0.00  0.00    +0.277 C 
ENDBRANCH  20  21
ENDBRANCH  15  16
BRANCH   8  10
ATOM     10  C   UNL     1     -21.288 -12.689 -10.008  0.00  0.00    +0.020 C 
ATOM     11  C   UNL     1     -20.175 -13.176 -10.951  0.00  0.00    +0.008 C 
ATOM     12  C   UNL     1     -19.655 -14.473 -10.348  0.00  0.00    +0.001 C 
ATOM     13  C   UNL     1     -19.990 -14.399  -8.921  0.00  0.00    +0.001 C 
ATOM     14  C   UNL     1     -21.336 -13.705  -8.883  0.00  0.00    +0.008 C 
ENDBRANCH   8  10
BRANCH   3   4
ATOM      4  C   UNL     1     -23.009 -10.150  -9.611  0.00  0.00    +0.337 C 
ATOM      5  O   UNL     1     -23.141  -9.017 -10.021  0.00  0.00    -0.245 OA
BRANCH   4   6
ATOM      6  O   UNL     1     -22.626 -10.416  -8.397  0.00  0.00    -0.477 OA
ATOM      7  H   UNL     1     -21.769 -10.266  -8.328  0.00  0.00    +0.295 HD
ENDBRANCH   4   6
ENDBRANCH   3   4
TORSDOF 5
