REMARK  Name = 4anb_ligand
REMARK  6 active torsions:
REMARK  status: ('A' for Active; 'I' for Inactive)
REMARK    1  A    between atoms: C13_7  and  C16_8
REMARK    2  A    between atoms: C20_12  and  O23_13
REMARK    3  A    between atoms: C20_12  and  C24_14
REMARK    4  A    between atoms: C24_14  and  N25_15
REMARK    5  A    between atoms: C8_17  and  N7_18
REMARK    6  A    between atoms: N7_18  and  C5_19
REMARK                            x       y       z     vdW  Elec       q    Type
REMARK                         _______ _______ _______ _____ _____    ______ ____
ROOT
ATOM      1  F   UNL     1      25.924 -24.912   3.057  0.00  0.00    -0.191 F 
ATOM      2  C   UNL     1      25.567 -23.658   3.175  0.00  0.00    +0.191 A 
ATOM      3  C   UNL     1      26.221 -22.786   3.994  0.00  0.00    +0.112 A 
ATOM     14  C   UNL     1      25.759 -21.467   4.017  0.00  0.00    +0.066 A 
ATOM     28  C   UNL     1      24.719 -21.065   3.180  0.00  0.00    +0.002 A 
ATOM     29  C   UNL     1      24.143 -21.959   2.296  0.00  0.00    +0.014 A 
ATOM     30  C   UNL     1      24.601 -23.255   2.317  0.00  0.00    +0.161 A 
ATOM     31  F   UNL     1      24.144 -24.227   1.534  0.00  0.00    -0.184 F 
ENDROOT
BRANCH  14  15
ATOM     15  C   UNL     1      26.377 -20.466   4.929  0.00  0.00    +0.197 C 
ATOM     16  N   UNL     1      26.456 -19.186   4.593  0.00  0.00    -0.269 N 
ATOM     17  C   UNL     1      27.004 -18.082   5.367  0.00  0.00    +0.179 C 
ATOM     18  C   UNL     1      26.753 -17.270   4.128  0.00  0.00    +0.145 C 
ATOM     26  C   UNL     1      26.112 -18.446   3.386  0.00  0.00    +0.179 C 
ATOM     27  O   UNL     1      26.851 -20.809   6.012  0.00  0.00    -0.393 OA
BRANCH  18  24
ATOM     24  O   UNL     1      28.059 -16.846   3.745  0.00  0.00    -0.379 OA
ATOM     25  H   UNL     1      28.328 -16.106   4.294  0.00  0.00    +0.211 HD
ENDBRANCH  18  24
BRANCH  18  19
ATOM     19  C   UNL     1      25.776 -16.111   4.193  0.00  0.00    +0.167 C 
BRANCH  19  20
ATOM     20  N   UNL     1      26.338 -15.175   5.104  0.00  0.00    +0.221 N 
ATOM     21  H   UNL     1      27.249 -14.871   4.759  0.00  0.00    +0.200 HD
ATOM     22  H   UNL     1      26.449 -15.616   6.017  0.00  0.00    +0.200 HD
ATOM     23  H   UNL     1      25.718 -14.369   5.187  0.00  0.00    +0.200 HD
ENDBRANCH  19  20
ENDBRANCH  18  19
ENDBRANCH  14  15
BRANCH   3   4
ATOM      4  N   UNL     1      27.240 -23.214   4.788  0.00  0.00    -0.270 N 
ATOM      5  H   UNL     1      27.208 -22.944   5.771  0.00  0.00    +0.209 HD
BRANCH   4   6
ATOM      6  C   UNL     1      28.334 -23.995   4.374  0.00  0.00    +0.096 A 
ATOM      7  C   UNL     1      28.596 -24.489   3.087  0.00  0.00    +0.014 A 
ATOM      8  C   UNL     1      29.749 -25.308   2.898  0.00  0.00    -0.007 A 
ATOM      9  C   UNL     1      30.663 -25.625   3.902  0.00  0.00    -0.005 A 
ATOM     10  I   UNL     1      32.390 -26.913   3.663  0.00  0.00    -0.061 I 
ATOM     11  C   UNL     1      30.399 -25.157   5.146  0.00  0.00    +0.032 A 
ATOM     12  C   UNL     1      29.254 -24.368   5.351  0.00  0.00    +0.156 A 
ATOM     13  F   UNL     1      29.024 -23.920   6.564  0.00  0.00    -0.191 F 
ENDBRANCH   4   6
ENDBRANCH   3   4
TORSDOF 6
