REMARK  Name = 3OXT
REMARK  9 active torsions:
REMARK  status: ('A' for Active; 'I' for Inactive)
REMARK    1  A    between atoms: C_1  and  C_4
REMARK    2  A    between atoms: N_2  and  C_4
REMARK    3  A    between atoms: C_4  and  C_7
REMARK    4  A    between atoms: N_5  and  C_7
REMARK    5  A    between atoms: O_6  and  C_20
REMARK    6  A    between atoms: N_8  and  C_10
REMARK    7  A    between atoms: O_9  and  C_22
REMARK    8  A    between atoms: C_10  and  C_11
REMARK    9  A    between atoms: C_17  and  C_18
REMARK                            x       y       z     vdW  Elec       q    Type
REMARK                         _______ _______ _______ _____ _____    ______ ____
ROOT
ATOM      9  N   UNL     1      27.417  -9.610   1.959  0.00  0.00    -0.083 NA
ATOM     10  N   UNL     1      28.793  -9.510   1.876  0.00  0.00    -0.190 NA
ENDROOT
BRANCH   9   8
ATOM      8  C   UNL     1      26.516  -9.302   0.859  0.00  0.00    +0.275 C 
ATOM     23  O   UNL     1      26.968  -8.936  -0.222  0.00  0.00    -0.270 OA
BRANCH   8   7
ATOM      7  C   UNL     1      25.019  -9.460   1.057  0.00  0.00    +0.172 C 
BRANCH   7   1
ATOM      1  C   UNL     1      24.558 -10.755   0.412  0.00  0.00    -0.022 A 
ATOM      2  C   UNL     1      24.572 -11.953   1.134  0.00  0.00    +0.006 A 
ATOM      3  C   UNL     1      24.154 -13.133   0.522  0.00  0.00    +0.000 A 
ATOM      4  C   UNL     1      23.720 -13.128  -0.795  0.00  0.00    +0.000 A 
ATOM      5  C   UNL     1      23.711 -11.936  -1.521  0.00  0.00    +0.000 A 
ATOM      6  C   UNL     1      24.134 -10.752  -0.913  0.00  0.00    +0.006 A 
ENDBRANCH   7   1
BRANCH   7  24
ATOM     24  N   UNL     1      24.381  -8.321   0.473  0.00  0.00    -0.316 NA
ATOM     25  H   UNL     1      24.613  -8.278  -0.571  0.00  0.00    +0.119 HD
ATOM     26  H   UNL     1      23.322  -8.401   0.600  0.00  0.00    +0.119 HD
ENDBRANCH   7  24
ENDBRANCH   8   7
ENDBRANCH   9   8
BRANCH  10  11
ATOM     11  C   UNL     1      29.478  -9.889   2.959  0.00  0.00    +0.202 C 
BRANCH  11  12
ATOM     12  C   UNL     1      30.989  -9.862   3.059  0.00  0.00    +0.020 A 
ATOM     13  C   UNL     1      31.805  -9.759   1.948  0.00  0.00    +0.126 A 
ATOM     14  C   UNL     1      33.194  -9.746   2.091  0.00  0.00    +0.091 A 
ATOM     15  C   UNL     1      33.765  -9.842   3.356  0.00  0.00    +0.121 A 
ATOM     16  C   UNL     1      32.951  -9.941   4.481  0.00  0.00    +0.049 A 
ATOM     21  C   UNL     1      31.555  -9.959   4.328  0.00  0.00    -0.039 A 
ATOM     22  C   UNL     1      30.611 -10.067   5.513  0.00  0.00    +0.044 C 
BRANCH  15  17
ATOM     17  O   UNL     1      35.148  -9.831   3.469  0.00  0.00    -0.507 OA
ATOM     18  H   UNL     1      35.445  -9.012   4.056  0.00  0.00    +0.292 HD
ENDBRANCH  15  17
BRANCH  13  19
ATOM     19  O   UNL     1      31.254  -9.682   0.689  0.00  0.00    -0.506 OA
ATOM     20  H   UNL     1      30.683 -10.544   0.503  0.00  0.00    +0.292 HD
ENDBRANCH  13  19
ENDBRANCH  11  12
ENDBRANCH  10  11
TORSDOF 8
