REMARK  Name = 3A61
REMARK  5 active torsions:
REMARK  status: ('A' for Active; 'I' for Inactive)
REMARK    1  A    between atoms: C_4  and  N_34
REMARK    2  A    between atoms: C_5  and  O_32
REMARK    3  A    between atoms: C_6  and  C_7
REMARK    4  A    between atoms: O_32  and  C_33
REMARK    5  A    between atoms: N_34  and  C_35
REMARK                            x       y       z     vdW  Elec       q    Type
REMARK                         _______ _______ _______ _____ _____    ______ ____
ROOT
ATOM      1  O   UNL     1      -2.672  15.830  29.690  0.00  0.00    -0.328 OA
ATOM      2  C   UNL     1      -3.165  16.896  30.502  0.00  0.00    +0.174 C 
ATOM      3  N   UNL     1      -3.306  18.158  29.604  0.00  0.00    -0.307 N 
ATOM      4  C   UNL     1      -4.228  19.241  29.653  0.00  0.00    +0.053 A 
ATOM      5  C   UNL     1      -5.335  19.581  30.505  0.00  0.00    +0.026 A 
ATOM      6  C   UNL     1      -6.089  20.764  30.297  0.00  0.00    +0.002 A 
ATOM      7  C   UNL     1      -5.771  21.693  29.200  0.00  0.00    +0.001 A 
ATOM      8  C   UNL     1      -4.656  21.332  28.354  0.00  0.00    +0.010 A 
ATOM      9  C   UNL     1      -3.887  20.142  28.552  0.00  0.00    +0.008 A 
ATOM     10  C   UNL     1      -2.788  19.629  27.857  0.00  0.00    +0.015 A 
ATOM     11  C   UNL     1      -2.026  20.071  26.703  0.00  0.00    -0.008 A 
ATOM     12  C   UNL     1      -2.235  21.328  25.881  0.00  0.00    +0.141 C 
ATOM     13  N   UNL     1      -1.161  21.152  24.920  0.00  0.00    -0.307 N 
ATOM     14  H   UNL     1      -0.988  21.871  24.146  0.00  0.00    +0.149 HD
ATOM     15  C   UNL     1      -0.408  20.080  25.032  0.00  0.00    +0.245 C 
ATOM     16  O   UNL     1       0.527  19.760  24.329  0.00  0.00    -0.270 OA
ATOM     17  C   UNL     1      -0.976  19.367  26.216  0.00  0.00    +0.052 A 
ATOM     18  C   UNL     1      -0.517  18.066  26.828  0.00  0.00    +0.022 A 
ATOM     19  C   UNL     1       0.489  17.115  26.607  0.00  0.00    +0.009 A 
ATOM     20  C   UNL     1       1.563  16.946  25.662  0.00  0.00    +0.010 A 
ATOM     21  C   UNL     1       2.436  15.824  25.720  0.00  0.00    +0.001 A 
ATOM     22  C   UNL     1       2.254  14.809  26.752  0.00  0.00    +0.002 A 
ATOM     23  C   UNL     1       1.205  14.930  27.711  0.00  0.00    +0.026 A 
ATOM     24  C   UNL     1       0.320  16.089  27.637  0.00  0.00    +0.052 A 
ATOM     25  N   UNL     1      -0.735  16.410  28.421  0.00  0.00    -0.312 N 
ATOM     26  C   UNL     1      -1.305  17.628  27.995  0.00  0.00    +0.077 A 
ATOM     27  C   UNL     1      -2.382  18.365  28.484  0.00  0.00    +0.077 A 
ATOM     28  C   UNL     1      -4.526  16.362  31.000  0.00  0.00    +0.069 C 
ATOM     29  C   UNL     1      -2.227  17.227  31.776  0.00  0.00    +0.187 C 
ATOM     32  C   UNL     1      -1.433  15.884  31.989  0.00  0.00    +0.091 C 
ATOM     36  C   UNL     1      -0.548  15.466  30.736  0.00  0.00    +0.076 C 
ATOM     37  C   UNL     1      -1.368  15.434  29.377  0.00  0.00    +0.224 C 
ENDROOT
BRANCH  32  33
ATOM     33  N   UNL     1      -0.456  15.924  33.239  0.00  0.00    -0.314 NA
ATOM     34  H   UNL     1      -0.496  16.889  33.699  0.00  0.00    +0.122 HD
ATOM     35  C   UNL     1      -0.903  14.870  34.225  0.00  0.00    +0.101 C 
ENDBRANCH  32  33
BRANCH  29  30
ATOM     30  O   UNL     1      -1.235  18.254  31.470  0.00  0.00    -0.374 OA
ATOM     31  C   UNL     1      -1.025  19.139  32.562  0.00  0.00    +0.194 C 
ENDBRANCH  29  30
TORSDOF 2
