REMARK  Name = 4hgl_ligand
REMARK  4 active torsions:
REMARK  status: ('A' for Active; 'I' for Inactive)
REMARK    1  A    between atoms: C1_1  and  C5_25
REMARK    2  A    between atoms: C3_3  and  O2_28
REMARK    3  A    between atoms: C14_11  and  C4_22
REMARK    4  A    between atoms: C21_16  and  O2_28
REMARK                            x       y       z     vdW  Elec       q    Type
REMARK                         _______ _______ _______ _____ _____    ______ ____
ROOT
ATOM      1  C   UNL     1      36.782 -15.119  28.333  0.00  0.00    +0.110 A 
ATOM     12  N   UNL     1      36.732 -14.228  29.458  0.00  0.00    -0.281 NA
ATOM     13  C   UNL     1      37.111 -13.037  29.241  0.00  0.00    +0.130 A 
ATOM     14  C   UNL     1      37.580 -12.503  27.973  0.00  0.00    +0.145 A 
ATOM     17  C   UNL     1      37.624 -13.418  26.840  0.00  0.00    +0.104 A 
ATOM     30  N   UNL     1      37.199 -14.782  27.045  0.00  0.00    -0.276 NA
ENDROOT
BRANCH  17  18
ATOM     18  C   UNL     1      38.100 -13.073  25.425  0.00  0.00    +0.078 A 
ATOM     19  N   UNL     1      38.044 -14.079  24.532  0.00  0.00    -0.269 N 
ATOM     20  H   UNL     1      37.728 -15.042  24.649  0.00  0.00    +0.235 HD
ATOM     21  C   UNL     1      38.516 -13.463  23.458  0.00  0.00    +0.073 A 
ATOM     22  C   UNL     1      38.838 -12.134  23.681  0.00  0.00    +0.042 A 
ATOM     23  C   UNL     1      39.322 -11.320  22.669  0.00  0.00    +0.176 C 
ATOM     24  N   UNL     1      39.490 -11.873  21.492  0.00  0.00    -0.290 N 
ATOM     25  H   UNL     1      39.820 -11.231  20.771  0.00  0.00    +0.184 HD
ATOM     26  C   UNL     1      39.293 -13.220  21.036  0.00  0.00    +0.153 C 
ATOM     27  O   UNL     1      39.579 -10.126  22.850  0.00  0.00    -0.404 OA
ATOM     28  C   UNL     1      38.699 -14.172  22.129  0.00  0.00    +0.134 C 
ATOM     29  C   UNL     1      38.561 -11.890  24.985  0.00  0.00    -0.016 A 
ENDBRANCH  17  18
BRANCH   1   2
ATOM      2  C   UNL     1      36.355 -16.461  28.531  0.00  0.00    +0.042 A 
ATOM      3  C   UNL     1      35.696 -16.752  29.784  0.00  0.00    +0.112 A 
ATOM      4  N   UNL     1      35.139 -17.968  30.035  0.00  0.00    -0.293 NA
ATOM      5  C   UNL     1      35.193 -19.000  29.083  0.00  0.00    +0.048 A 
ATOM      6  C   UNL     1      34.645 -20.220  29.334  0.00  0.00    +0.026 A 
ATOM      7  C   UNL     1      34.749 -21.367  28.346  0.00  0.00    +0.010 A 
ATOM      8  C   UNL     1      35.486 -21.151  27.059  0.00  0.00    +0.009 A 
ATOM      9  C   UNL     1      36.081 -19.799  26.753  0.00  0.00    +0.021 A 
ATOM     10  C   UNL     1      35.935 -18.763  27.728  0.00  0.00    +0.010 A 
ATOM     11  C   UNL     1      36.472 -17.480  27.510  0.00  0.00    +0.058 A 
ENDBRANCH   1   2
BRANCH  14  15
ATOM     15  O   UNL     1      37.954 -11.228  27.938  0.00  0.00    -0.308 OA
ATOM     16  C   UNL     1      37.620 -10.341  28.858  0.00  0.00    +0.237 C 
ENDBRANCH  14  15
TORSDOF 3
