REMARK  Name = B5Z
REMARK  6 active torsions:
REMARK  status: ('A' for Active; 'I' for Inactive)
REMARK    1  A    between atoms: CBF_3  and  CAY_4
REMARK    2  A    between atoms: CBB_15  and  CBA_16
REMARK    3  A    between atoms: CAZ_21  and  NAT_22
REMARK    4  A    between atoms: NAS_25  and  CAI_26
REMARK    5  A    between atoms: CAI_26  and  CAN_27
REMARK    6  A    between atoms: CAN_27  and  NBG_28
REMARK                            x       y       z     vdW  Elec       q    Type
REMARK                         _______ _______ _______ _____ _____    ______ ____
ROOT
ATOM     14  C   UNL     1       4.009 -16.109  44.276  0.00  0.00    +0.019 A 
ATOM     15  C   UNL     1       3.502 -17.423  44.144  0.00  0.00    +0.018 A 
ATOM     16  C   UNL     1       2.429 -17.720  43.305  0.00  0.00    +0.075 A 
ATOM     29  C   UNL     1       1.826 -16.680  42.588  0.00  0.00    +0.017 A 
ATOM     30  C   UNL     1       2.311 -15.374  42.711  0.00  0.00    +0.001 A 
ATOM     31  C   UNL     1       3.391 -15.080  43.553  0.00  0.00    +0.002 A 
ENDROOT
BRANCH  14  12
ATOM      4  C   UNL     1      10.708 -17.070  48.955  0.00  0.00    +0.247 C 
ATOM      5  O   UNL     1      10.630 -15.854  49.065  0.00  0.00    -0.273 OA
ATOM      6  N   UNL     1       9.852 -17.792  48.210  0.00  0.00    -0.154 NA
ATOM      7  C   UNL     1       8.824 -17.188  47.594  0.00  0.00    +0.187 A 
ATOM      8  N   UNL     1       8.344 -15.929  47.689  0.00  0.00    -0.221 NA
ATOM      9  C   UNL     1       7.249 -15.739  46.908  0.00  0.00    +0.107 A 
ATOM     10  C   UNL     1       6.481 -14.651  46.704  0.00  0.00    +0.023 A 
ATOM     11  C   UNL     1       5.377 -14.694  45.831  0.00  0.00    +0.021 A 
ATOM     12  C   UNL     1       5.085 -15.893  45.155  0.00  0.00    +0.082 A 
ATOM     13  N   UNL     1       5.884 -16.933  45.407  0.00  0.00    -0.237 NA
ATOM     32  C   UNL     1       6.921 -16.866  46.243  0.00  0.00    +0.131 A 
ATOM     33  S   UNL     1       7.925 -17.993  46.616  0.00  0.00    -0.031 S 
BRANCH   4   3
ATOM      1  C   UNL     1      12.270 -19.145  49.361  0.00  0.00    +0.010 C 
ATOM      2  C   UNL     1      11.442 -18.911  50.488  0.00  0.00    +0.010 C 
ATOM      3  C   UNL     1      11.849 -17.816  49.701  0.00  0.00    +0.079 C 
ENDBRANCH   4   3
ENDBRANCH  14  12
BRANCH  16  17
ATOM     17  N   UNL     1       2.007 -18.998  43.219  0.00  0.00    -0.161 NA
ATOM     18  C   UNL     1       2.138 -19.663  42.043  0.00  0.00    +0.344 C 
ATOM     19  N   UNL     1       1.698 -20.940  41.964  0.00  0.00    -0.185 NA
ATOM     28  O   UNL     1       2.635 -19.126  41.052  0.00  0.00    -0.249 OA
BRANCH  19  20
ATOM     20  C   UNL     1       1.873 -21.699  40.730  0.00  0.00    +0.134 C 
BRANCH  20  21
ATOM     21  C   UNL     1       0.832 -22.796  40.565  0.00  0.00    +0.096 C 
BRANCH  21  22
ATOM     22  N   UNL     1      -0.490 -22.188  40.229  0.00  0.00    -0.267 NA
ATOM     23  C   UNL     1      -1.552 -23.228  40.268  0.00  0.00    +0.105 C 
ATOM     24  C   UNL     1      -2.942 -22.682  39.831  0.00  0.00    +0.160 C 
ATOM     25  O   UNL     1      -2.811 -21.421  39.097  0.00  0.00    -0.351 OA
ATOM     26  C   UNL     1      -1.803 -21.578  38.131  0.00  0.00    +0.160 C 
ATOM     27  C   UNL     1      -0.504 -21.432  38.938  0.00  0.00    +0.105 C 
ENDBRANCH  21  22
ENDBRANCH  20  21
ENDBRANCH  19  20
ENDBRANCH  16  17
TORSDOF 6
