REMARK  Name = 3hec_ligand
REMARK  8 active torsions:
REMARK  status: ('A' for Active; 'I' for Inactive)
REMARK    1  A    between atoms: C5_3  and  C7_7
REMARK    2  A    between atoms: N13_13  and  C14_14
REMARK    3  A    between atoms: C19_15  and  C20_37
REMARK    4  A    between atoms: C16_18  and  N21_20
REMARK    5  A    between atoms: C22_21  and  C23_22
REMARK    6  A    between atoms: C27_25  and  C46_28
REMARK    7  A    between atoms: C46_28  and  N48_29
REMARK    8  A    between atoms: N51_32  and  C54_33
REMARK                            x       y       z     vdW  Elec       q    Type
REMARK                         _______ _______ _______ _____ _____    ______ ____
ROOT
ATOM     11  C   UNL     1      19.722  -2.954 -21.307  0.00  0.00    +0.055 A 
ATOM     12  C   UNL     1      18.712  -3.632 -20.596  0.00  0.00    +0.015 A 
ATOM     13  C   UNL     1      19.042  -4.587 -19.615  0.00  0.00    +0.049 A 
ATOM     32  C   UNL     1      20.415  -4.821 -19.421  0.00  0.00    -0.019 A 
ATOM     33  C   UNL     1      21.441  -4.178 -20.121  0.00  0.00    -0.033 A 
ATOM     34  C   UNL     1      21.147  -3.226 -21.073  0.00  0.00    -0.036 A 
ATOM     35  C   UNL     1      22.208  -2.487 -21.860  0.00  0.00    +0.062 C 
ENDROOT
BRANCH  11   9
ATOM      6  C   UNL     1      18.855   1.375 -22.793  0.00  0.00    +0.062 A 
ATOM      7  N   UNL     1      19.150   0.072 -23.006  0.00  0.00    -0.246 NA
ATOM      8  C   UNL     1      19.155  -0.787 -21.967  0.00  0.00    +0.209 A 
ATOM      9  N   UNL     1      19.462  -2.047 -22.258  0.00  0.00    -0.248 N 
ATOM     10  H   UNL     1      19.501  -2.332 -23.236  0.00  0.00    +0.216 HD
ATOM     36  N   UNL     1      18.850  -0.424 -20.697  0.00  0.00    -0.252 NA
ATOM     37  C   UNL     1      18.540   0.844 -20.439  0.00  0.00    +0.104 A 
ATOM     38  C   UNL     1      18.530   1.762 -21.483  0.00  0.00    +0.052 A 
BRANCH   6   5
ATOM      1  C   UNL     1      18.848   4.655 -24.743  0.00  0.00    +0.042 A 
ATOM      2  C   UNL     1      18.786   4.176 -26.045  0.00  0.00    +0.099 A 
ATOM      3  N   UNL     1      18.759   2.852 -26.274  0.00  0.00    -0.292 NA
ATOM      4  C   UNL     1      18.786   1.945 -25.270  0.00  0.00    +0.111 A 
ATOM      5  C   UNL     1      18.847   2.369 -23.934  0.00  0.00    +0.032 A 
ATOM     39  C   UNL     1      18.875   3.747 -23.680  0.00  0.00    +0.048 A 
ENDBRANCH   6   5
ENDBRANCH  11   9
BRANCH  13  14
ATOM     14  N   UNL     1      18.124  -5.304 -18.848  0.00  0.00    -0.240 N 
ATOM     15  H   UNL     1      18.467  -5.759 -18.002  0.00  0.00    +0.223 HD
ATOM     16  C   UNL     1      16.821  -5.438 -19.143  0.00  0.00    +0.226 C 
ATOM     17  O   UNL     1      16.294  -4.756 -20.007  0.00  0.00    -0.377 OA
BRANCH  16  18
ATOM     18  C   UNL     1      15.797  -6.294 -18.430  0.00  0.00    +0.049 A 
ATOM     19  C   UNL     1      14.718  -6.824 -19.190  0.00  0.00    +0.017 A 
ATOM     20  C   UNL     1      13.674  -7.581 -18.631  0.00  0.00    +0.001 A 
ATOM     21  C   UNL     1      13.712  -7.787 -17.251  0.00  0.00    -0.059 A 
ATOM     30  C   UNL     1      14.794  -7.245 -16.481  0.00  0.00    +0.001 A 
ATOM     31  C   UNL     1      15.841  -6.499 -17.046  0.00  0.00    +0.017 A 
BRANCH  21  22
ATOM     22  C   UNL     1      12.632  -8.605 -16.602  0.00  0.00    -0.036 C 
BRANCH  22  23
ATOM     23  N   UNL     1      12.547  -8.748 -15.339  0.00  0.00    +0.406 NA
ATOM     24  C   UNL     1      11.910  -9.885 -14.658  0.00  0.00    -0.129 C 
ATOM     25  C   UNL     1      11.886  -9.770 -13.111  0.00  0.00    -0.133 C 
ATOM     26  N   UNL     1      11.698  -8.390 -12.671  0.00  0.00    +0.398 NA
ATOM     27  C   UNL     1      11.359  -8.092 -11.285  0.00  0.00    -0.132 C 
ATOM     28  C   UNL     1      11.834  -7.245 -13.595  0.00  0.00    -0.133 C 
ATOM     29  C   UNL     1      12.964  -7.586 -14.559  0.00  0.00    -0.129 C 
ENDBRANCH  22  23
ENDBRANCH  21  22
ENDBRANCH  16  18
ENDBRANCH  13  14
TORSDOF 6
