REMARK  Name = 3W10
REMARK  5 active torsions:
REMARK  status: ('A' for Active; 'I' for Inactive)
REMARK    1  A    between atoms: C_1  and  N_7
REMARK    2  A    between atoms: C_5  and  O_24
REMARK    3  A    between atoms: C_10  and  C_11
REMARK    4  A    between atoms: C_19  and  C_20
REMARK    5  A    between atoms: O_24  and  C_25
REMARK                            x       y       z     vdW  Elec       q    Type
REMARK                         _______ _______ _______ _____ _____    ______ ____
ROOT
ATOM      1  C   UNL     1       8.432 -36.192  -3.531  0.00  0.00    +0.269 A 
ATOM      2  N   UNL     1       7.783 -36.779  -4.537  0.00  0.00    -0.205 NA
ATOM      3  C   UNL     1       7.612 -38.105  -4.649  0.00  0.00    +0.083 A 
ATOM     12  C   UNL     1       8.136 -38.949  -3.664  0.00  0.00    +0.008 A 
ATOM     13  C   UNL     1       8.003 -40.343  -3.729  0.00  0.00    +0.010 A 
ATOM     14  C   UNL     1       8.519 -41.181  -2.750  0.00  0.00    +0.001 A 
ATOM     15  C   UNL     1       9.170 -40.602  -1.683  0.00  0.00    +0.001 A 
ATOM     16  C   UNL     1       9.317 -39.208  -1.614  0.00  0.00    +0.009 A 
ATOM     17  C   UNL     1       8.815 -38.374  -2.606  0.00  0.00    -0.010 A 
ATOM     25  C   UNL     1       8.956 -36.991  -2.519  0.00  0.00    +0.085 A 
ENDROOT
BRANCH   1  18
ATOM     18  N   UNL     1       8.560 -34.851  -3.456  0.00  0.00    -0.013 NA
ATOM     19  C   UNL     1       8.257 -34.013  -4.459  0.00  0.00    +0.396 C 
ATOM     20  N   UNL     1       8.408 -32.698  -4.321  0.00  0.00    +0.086 NA
ATOM     21  N   UNL     1       8.054 -32.102  -5.415  0.00  0.00    -0.040 NA
ATOM     22  C   UNL     1       7.658 -33.061  -6.251  0.00  0.00    +0.093 C 
ATOM     23  C   UNL     1       7.144 -32.771  -7.676  0.00  0.00    +0.070 C 
ATOM     24  C   UNL     1       7.779 -34.267  -5.680  0.00  0.00    +0.135 C 
ENDBRANCH   1  18
BRANCH   3   4
ATOM      4  C   UNL     1       6.887 -38.562  -5.771  0.00  0.00    +0.004 A 
ATOM      5  C   UNL     1       7.245 -38.164  -7.052  0.00  0.00    +0.010 A 
ATOM      6  C   UNL     1       6.490 -38.591  -8.121  0.00  0.00    +0.004 A 
ATOM      7  C   UNL     1       5.372 -39.407  -7.926  0.00  0.00    +0.045 A 
ATOM      8  C   UNL     1       4.989 -39.813  -6.661  0.00  0.00    +0.121 A 
ATOM     11  C   UNL     1       5.758 -39.362  -5.595  0.00  0.00    +0.055 A 
BRANCH   8   9
ATOM      9  O   UNL     1       3.897 -40.625  -6.439  0.00  0.00    -0.495 OA
ATOM     10  C   UNL     1       3.351 -41.384  -7.536  0.00  0.00    +0.277 C 
ENDBRANCH   8   9
ENDBRANCH   3   4
TORSDOF 3
