REMARK  Name = 5MJ
REMARK  4 active torsions:
REMARK  status: ('A' for Active; 'I' for Inactive)
REMARK    1  A    between atoms: C3_1  and  N7_24
REMARK    2  A    between atoms: C4_2  and  O16_25
REMARK    3  A    between atoms: N18_14  and  C15_15
REMARK    4  A    between atoms: C10_21  and  C8_22
REMARK                            x       y       z     vdW  Elec       q    Type
REMARK                         _______ _______ _______ _____ _____    ______ ____
ROOT
ATOM      4  C   UNL     1       9.227  -9.830  -6.444  0.00  0.00    +0.056 A 
ATOM      5  C   UNL     1       8.204  -9.904  -5.475  0.00  0.00    +0.018 A 
ATOM      6  C   UNL     1       8.256  -8.918  -4.428  0.00  0.00    +0.075 A 
ATOM      7 CL   UNL     1       6.973  -9.024  -3.204  0.00  0.00    -0.081 Cl
ATOM      8  C   UNL     1       9.322  -8.092  -4.218  0.00  0.00    +0.091 A 
ATOM     17  C   UNL     1      10.362  -8.085  -5.151  0.00  0.00    +0.020 A 
ATOM     18  C   UNL     1      10.312  -8.963  -6.232  0.00  0.00    +0.006 A 
ENDROOT
BRANCH   8   9
ATOM      9  N   UNL     1       9.307  -7.201  -3.120  0.00  0.00    -0.248 NA
ATOM     10  C   UNL     1      10.314  -6.944  -2.268  0.00  0.00    +0.066 C 
ATOM     11  C   UNL     1      10.230  -5.946  -1.365  0.00  0.00    +0.102 C 
ATOM     12  C   UNL     1      11.454  -5.976  -0.537  0.00  0.00    +0.178 C 
ATOM     13  O   UNL     1      11.752  -5.109   0.327  0.00  0.00    -0.291 OA
ATOM     14  C   UNL     1      12.330  -7.087  -0.998  0.00  0.00    +0.039 C 
ATOM     15  C   UNL     1       9.159  -4.941  -1.131  0.00  0.00    +0.015 C 
ATOM     16  C   UNL     1      11.595  -7.672  -2.218  0.00  0.00    +0.018 C 
ENDBRANCH   8   9
BRANCH   4   3
ATOM      2  N   UNL     1       8.014 -11.245  -8.000  0.00  0.00    -0.175 NA
ATOM      3  C   UNL     1       9.209 -10.766  -7.639  0.00  0.00    +0.269 C 
ATOM     19  O   UNL     1      10.271 -10.965  -8.252  0.00  0.00    -0.268 OA
BRANCH   2   1
ATOM      1  C   UNL     1       7.780 -12.114  -9.064  0.00  0.00    +0.074 A 
ATOM     20  C   UNL     1       6.454 -12.349  -9.443  0.00  0.00    +0.020 A 
ATOM     21  C   UNL     1       6.079 -13.183 -10.484  0.00  0.00    +0.038 A 
ATOM     22  C   UNL     1       7.049 -13.827 -11.183  0.00  0.00    +0.139 A 
ATOM     23  C   UNL     1       8.335 -13.618 -10.818  0.00  0.00    +0.038 A 
ATOM     26  C   UNL     1       8.754 -12.772  -9.763  0.00  0.00    +0.020 A 
BRANCH  22  24
ATOM     24  O   UNL     1       6.741 -14.677 -12.241  0.00  0.00    -0.471 OA
ATOM     25  C   UNL     1       5.392 -14.992 -12.513  0.00  0.00    +0.253 C 
ENDBRANCH  22  24
ENDBRANCH   2   1
ENDBRANCH   4   3
TORSDOF 4
