REMARK  Name = 3P0M
REMARK  11 active torsions:
REMARK  status: ('A' for Active; 'I' for Inactive)
REMARK    1  A    between atoms: C_1  and  N_2
REMARK    2  A    between atoms: C_1  and  C_23
REMARK    3  A    between atoms: O_3  and  C_15
REMARK    4  A    between atoms: C_5  and  C_8
REMARK    5  A    between atoms: N_6  and  C_8
REMARK    6  A    between atoms: N_6  and  N_9
REMARK    7  A    between atoms: C_10  and  C_11
REMARK    8  A    between atoms: C_11  and  C_12
REMARK    9  A    between atoms: C_11  and  C_23
REMARK   10  A    between atoms: C_23  and  C_24
REMARK   11  A    between atoms: C_24  and  N_25
REMARK                            x       y       z     vdW  Elec       q    Type
REMARK                         _______ _______ _______ _____ _____    ______ ____
ROOT
ATOM      7  C   UNL     1      23.630  10.249  -0.080  0.00  0.00    +0.111 C 
ENDROOT
BRANCH   7   8
ATOM      8  C   UNL     1      23.202  11.610   0.152  0.00  0.00    -0.035 A 
ATOM      9  C   UNL     1      22.384  11.951   1.337  0.00  0.00    +0.004 A 
ATOM     10  C   UNL     1      21.976  13.277   1.556  0.00  0.00    +0.000 A 
ATOM     11  C   UNL     1      22.363  14.300   0.602  0.00  0.00    +0.000 A 
ATOM     12  C   UNL     1      23.116  13.953  -0.504  0.00  0.00    +0.000 A 
ATOM     13  C   UNL     1      23.542  12.561  -0.725  0.00  0.00    +0.004 A 
ENDBRANCH   7   8
BRANCH   7  14
ATOM     14  C   UNL     1      25.158  10.208   0.062  0.00  0.00    +0.234 C 
ATOM     15  N   UNL     1      25.884  10.173  -1.052  0.00  0.00    -0.250 N 
ATOM     16  H   UNL     1      25.411  10.180  -2.012  0.00  0.00    +0.169 HD
ATOM     29  O   UNL     1      25.681  10.210   1.061  0.00  0.00    -0.274 OA
BRANCH  15  17
ATOM     17  N   UNL     1      27.320  10.126  -0.941  0.00  0.00    -0.236 NA
ATOM     18  H   UNL     1      27.643  10.986  -0.392  0.00  0.00    +0.145 HD
BRANCH  17  19
ATOM     19  C   UNL     1      27.948  10.115  -2.097  0.00  0.00    +0.137 C 
BRANCH  19  20
ATOM     20  C   UNL     1      29.462  10.126  -2.215  0.00  0.00    -0.031 A 
ATOM     21  C   UNL     1      29.937  10.095  -3.534  0.00  0.00    +0.023 A 
ATOM     22  C   UNL     1      31.280  10.107  -3.777  0.00  0.00    +0.059 A 
ATOM     23  C   UNL     1      32.138  10.134  -2.783  0.00  0.00    +0.131 A 
ATOM     24  C   UNL     1      31.656  10.168  -1.403  0.00  0.00    +0.047 A 
ATOM     27 BR   UNL     1      31.843  10.062  -5.586  0.00  0.00    -0.047 Br
ATOM     28  C   UNL     1      30.331  10.167  -1.151  0.00  0.00    +0.008 A 
BRANCH  23  25
ATOM     25  O   UNL     1      33.518  10.141  -3.108  0.00  0.00    -0.506 OA
ATOM     26  H   UNL     1      33.962  11.015  -2.732  0.00  0.00    +0.292 HD
ENDBRANCH  23  25
ENDBRANCH  19  20
ENDBRANCH  17  19
ENDBRANCH  15  17
ENDBRANCH   7  14
BRANCH   7   2
ATOM      2  C   UNL     1      23.151   9.677  -1.462  0.00  0.00    +0.032 C 
BRANCH   2   1
ATOM      1  C   UNL     1      21.936   8.742  -1.275  0.00  0.00    +0.083 C 
BRANCH   1  30
ATOM     30  N   UNL     1      22.373   7.438  -0.873  0.00  0.00    -0.330 NA
ATOM     31  H   UNL     1      23.017   7.030  -1.624  0.00  0.00    +0.118 HD
ATOM     32  H   UNL     1      22.906   7.509   0.052  0.00  0.00    +0.118 HD
ENDBRANCH   1  30
ENDBRANCH   2   1
BRANCH   2   3
ATOM      3  C   UNL     1      21.702   9.151  -1.327  0.00  0.00    +0.083 C 
BRANCH   3   4
ATOM      4  N   UNL     1      20.926   9.457  -2.497  0.00  0.00    -0.330 NA
ATOM      5  H   UNL     1      20.892  10.518  -2.636  0.00  0.00    +0.118 HD
ATOM      6  H   UNL     1      21.376   9.000  -3.354  0.00  0.00    +0.118 HD
ENDBRANCH   3   4
ENDBRANCH   2   3
ENDBRANCH   7   2
TORSDOF 11
