REMARK  Name = 4RPP
REMARK  9 active torsions:
REMARK  status: ('A' for Active; 'I' for Inactive)
REMARK    1  A    between atoms: P_1  and  O_5
REMARK    2  A    between atoms: O_5  and  C_6
REMARK    3  A    between atoms: C_6  and  C_7
REMARK    4  A    between atoms: C_7  and  O_8
REMARK    5  A    between atoms: C_9  and  O_10
REMARK    6  A    between atoms: C_11  and  O_12
REMARK    7  A    between atoms: C_13  and  C_15
REMARK    8  A    between atoms: C_15  and  O_16
REMARK    9  A    between atoms: O_16  and  P_17
REMARK                            x       y       z     vdW  Elec       q    Type
REMARK                         _______ _______ _______ _____ _____    ______ ____
ROOT
ATOM      4  C   UNL     1       7.893  -6.774  62.205  0.00  0.00    +0.221 C 
ATOM      5  O   UNL     1       7.895  -5.376  61.978  0.00  0.00    -0.336 OA
ATOM      6  C   UNL     1       7.567  -4.669  63.159  0.00  0.00    +0.179 C 
ATOM     13  C   UNL     1       7.764  -5.638  64.312  0.00  0.00    +0.179 C 
ATOM     16  C   UNL     1       7.583  -6.999  63.677  0.00  0.00    +0.207 C 
ENDROOT
BRANCH  13  14
ATOM     14  O   UNL     1       6.797  -5.413  65.310  0.00  0.00    -0.386 OA
ATOM     15  H   UNL     1       5.838  -5.461  64.886  0.00  0.00    +0.210 HD
ENDBRANCH  13  14
BRANCH  16  17
ATOM     17  O   UNL     1       8.475  -7.935  64.229  0.00  0.00    -0.384 OA
ATOM     18  H   UNL     1       8.386  -8.848  63.718  0.00  0.00    +0.210 HD
ENDBRANCH  16  17
BRANCH   4  19
ATOM     19  O   UNL     1       9.208  -7.312  61.913  0.00  0.00    -0.361 OA
ATOM     20  H   UNL     1       9.210  -8.347  62.090  0.00  0.00    +0.213 HD
ENDBRANCH   4  19
BRANCH   4   3
ATOM      3  C   UNL     1       6.865  -7.448  61.306  0.00  0.00    +0.231 C 
BRANCH   3   2
ATOM      2  O   UNL     1       5.598  -7.448  61.924  0.00  0.00    -0.362 OA
BRANCH   2   1
ATOM      1  P   UNL     1       4.265  -7.495  61.022  0.00  0.00    -0.015 P 
ATOM     21  O   UNL     1       3.157  -6.737  61.714  0.00  0.00    -0.577 OA
ATOM     22  O   UNL     1       3.833  -8.930  60.837  0.00  0.00    -0.638 OA
ATOM     23  O   UNL     1       4.564  -6.856  59.686  0.00  0.00    -0.577 OA
ENDBRANCH   2   1
ENDBRANCH   3   2
ENDBRANCH   4   3
BRANCH   6   7
ATOM      7  C   UNL     1       8.423  -3.419  63.312  0.00  0.00    +0.198 C 
BRANCH   7   8
ATOM      8  O   UNL     1       7.559  -2.308  63.393  0.00  0.00    -0.365 OA
BRANCH   8   9
ATOM      9  P   UNL     1       8.130  -0.805  63.450  0.00  0.00    -0.015 P 
ATOM     10  O   UNL     1       8.503  -0.473  64.875  0.00  0.00    -0.577 OA
ATOM     11  O   UNL     1       7.070   0.157  62.966  0.00  0.00    -0.577 OA
ATOM     12  O   UNL     1       9.352  -0.711  62.569  0.00  0.00    -0.638 OA
ENDBRANCH   8   9
ENDBRANCH   7   8
ENDBRANCH   6   7
TORSDOF 9
