REMARK  Name = 3m11_ligand
REMARK  7 active torsions:
REMARK  status: ('A' for Active; 'I' for Inactive)
REMARK    1  A    between atoms: CAC_9  and  CAG_13
REMARK    2  A    between atoms: CAH_14  and  CAL_16
REMARK    3  A    between atoms: CAV_22  and  CAW_23
REMARK    4  A    between atoms: CAV_22  and  NBN_40
REMARK    5  A    between atoms: CAW_23  and  CAX_24
REMARK    6  A    between atoms: CBA_27  and  NBD_30
REMARK    7  A    between atoms: NBF_32  and  CBG_33
REMARK                            x       y       z     vdW  Elec       q    Type
REMARK                         _______ _______ _______ _____ _____    ______ ____
ROOT
ATOM      1  N   UNL     1       3.861  31.356   9.025  0.00  0.00    -0.262 NA
ATOM      2  C   UNL     1       3.778  31.499   7.695  0.00  0.00    +0.201 A 
ATOM      3  O   UNL     1       3.066  32.365   6.897  0.00  0.00    -0.228 OA
ATOM      4  C   UNL     1       3.358  32.064   5.596  0.00  0.00    +0.144 A 
ATOM     11  C   UNL     1       4.253  31.009   5.572  0.00  0.00    +0.022 A 
ATOM     18  C   UNL     1       4.520  30.650   6.883  0.00  0.00    +0.076 A 
ATOM     19  C   UNL     1       5.322  29.685   7.473  0.00  0.00    +0.126 A 
ATOM     20  N   UNL     1       6.045  28.857   6.725  0.00  0.00    -0.299 N 
ATOM     21  H   UNL     1       6.024  28.938   5.708  0.00  0.00    +0.187 HD
ATOM     42  N   UNL     1       5.355  29.601   8.810  0.00  0.00    -0.269 NA
ATOM     43  C   UNL     1       4.636  30.424   9.557  0.00  0.00    +0.155 A 
ENDROOT
BRANCH   4   5
ATOM      5  C   UNL     1       2.841  32.711   4.480  0.00  0.00    +0.019 A 
ATOM      6  C   UNL     1       2.134  33.899   4.631  0.00  0.00    +0.011 A 
ATOM      7  C   UNL     1       1.617  34.546   3.515  0.00  0.00    +0.000 A 
ATOM      8  C   UNL     1       1.807  34.006   2.249  0.00  0.00    -0.001 A 
ATOM      9  C   UNL     1       2.513  32.819   2.098  0.00  0.00    +0.000 A 
ATOM     10  C   UNL     1       3.030  32.171   3.214  0.00  0.00    +0.011 A 
ENDBRANCH   4   5
BRANCH  11  12
ATOM     12  C   UNL     1       4.788  30.416   4.435  0.00  0.00    -0.031 A 
ATOM     13  C   UNL     1       4.633  29.051   4.225  0.00  0.00    -0.003 A 
ATOM     14  C   UNL     1       5.168  28.457   3.087  0.00  0.00    -0.005 A 
ATOM     15  C   UNL     1       5.859  29.229   2.160  0.00  0.00    -0.008 A 
ATOM     16  C   UNL     1       6.014  30.594   2.370  0.00  0.00    -0.005 A 
ATOM     17  C   UNL     1       5.479  31.188   3.508  0.00  0.00    -0.003 A 
ENDBRANCH  11  12
BRANCH  20  22
ATOM     22  C   UNL     1       6.875  27.825   7.363  0.00  0.00    +0.147 C 
BRANCH  22  23
ATOM     23  C   UNL     1       8.260  28.399   7.667  0.00  0.00    +0.078 C 
BRANCH  23  24
ATOM     24  C   UNL     1       9.177  27.331   8.268  0.00  0.00    -0.056 A 
ATOM     25  C   UNL     1      10.292  26.894   7.561  0.00  0.00    -0.021 A 
ATOM     26  C   UNL     1      11.124  25.924   8.107  0.00  0.00    +0.001 A 
ATOM     27  C   UNL     1      10.842  25.391   9.359  0.00  0.00    +0.060 A 
ATOM     40  C   UNL     1       9.728  25.827  10.065  0.00  0.00    +0.001 A 
ATOM     41  C   UNL     1       8.895  26.797   9.520  0.00  0.00    -0.021 A 
BRANCH  27  28
ATOM     28  N   UNL     1      11.639  24.462   9.881  0.00  0.00    -0.218 N 
ATOM     29  H   UNL     1      12.161  24.660  10.734  0.00  0.00    +0.224 HD
ATOM     30  C   UNL     1      11.755  23.276   9.291  0.00  0.00    +0.315 C 
ATOM     31  O   UNL     1      11.140  23.004   8.261  0.00  0.00    -0.381 OA
ATOM     32  N   UNL     1      12.570  22.399   9.870  0.00  0.00    -0.215 N 
ATOM     33  H   UNL     1      13.069  22.652  10.723  0.00  0.00    +0.226 HD
BRANCH  32  34
ATOM     34  C   UNL     1      12.735  21.192   9.337  0.00  0.00    +0.067 A 
ATOM     35  C   UNL     1      11.697  20.594   8.633  0.00  0.00    +0.009 A 
ATOM     36  C   UNL     1      11.870  19.333   8.075  0.00  0.00    -0.018 A 
ATOM     37  C   UNL     1      13.082  18.669   8.222  0.00  0.00    -0.029 A 
ATOM     38  C   UNL     1      14.121  19.266   8.927  0.00  0.00    -0.018 A 
ATOM     39  C   UNL     1      13.948  20.528   9.484  0.00  0.00    +0.009 A 
ENDBRANCH  32  34
ENDBRANCH  27  28
ENDBRANCH  23  24
ENDBRANCH  22  23
ENDBRANCH  20  22
TORSDOF 7
