REMARK  Name = 4XG6
REMARK  8 active torsions:
REMARK  status: ('A' for Active; 'I' for Inactive)
REMARK    1  A    between atoms: C_1  and  N_16
REMARK    2  A    between atoms: C_6  and  C_7
REMARK    3  A    between atoms: C_10  and  C_11
REMARK    4  A    between atoms: C_13  and  N_14
REMARK    5  A    between atoms: C_19  and  C_20
REMARK    6  A    between atoms: C_21  and  C_22
REMARK    7  A    between atoms: C_22  and  N_23
REMARK    8  A    between atoms: C_26  and  O_27
REMARK                            x       y       z     vdW  Elec       q    Type
REMARK                         _______ _______ _______ _____ _____    ______ ____
ROOT
ATOM      1  C   UNL     1       4.600  -2.788   6.541  0.00  0.00    +0.143 A 
ATOM     16  N   UNL     1       3.391  -2.413   6.137  0.00  0.00    -0.198 NA
ATOM     17  C   UNL     1       3.162  -1.533   5.182  0.00  0.00    +0.221 A 
ATOM     18  N   UNL     1       1.874  -1.383   4.876  0.00  0.00    -0.284 N 
ATOM     19  H   UNL     1       1.716  -1.485   3.823  0.00  0.00    +0.155 HD
ATOM     28  N   UNL     1       4.179  -1.108   4.417  0.00  0.00    -0.223 NA
ATOM     29  C   UNL     1       5.430  -1.450   4.755  0.00  0.00    +0.118 A 
ATOM     30  C   UNL     1       5.701  -2.322   5.821  0.00  0.00    +0.065 A 
ENDROOT
BRANCH  18  20
ATOM     20  C   UNL     1       0.724  -1.141   5.512  0.00  0.00    +0.034 A 
ATOM     21  C   UNL     1      -0.172  -0.292   4.869  0.00  0.00    +0.026 A 
ATOM     22  C   UNL     1      -1.440  -0.091   5.395  0.00  0.00    -0.048 A 
ATOM     23  C   UNL     1      -2.375   0.906   4.708  0.00  0.00    +0.044 C 
ATOM     24  C   UNL     1      -1.840  -0.788   6.538  0.00  0.00    +0.006 A 
ATOM     25  C   UNL     1      -0.967  -1.703   7.137  0.00  0.00    -0.048 A 
ATOM     26  C   UNL     1      -1.362  -2.484   8.400  0.00  0.00    +0.044 C 
ATOM     27  C   UNL     1       0.302  -1.900   6.606  0.00  0.00    +0.026 A 
ENDBRANCH  18  20
BRANCH   1   2
ATOM      2  N   UNL     1       4.583  -3.661   7.555  0.00  0.00    -0.233 N 
ATOM      3  N   UNL     1       5.565  -4.302   7.955  0.00  0.00    -0.267 N 
ATOM      4  H   UNL     1       6.565  -4.220   7.583  0.00  0.00    +0.170 HD
ATOM      5  C   UNL     1       5.158  -5.106   8.924  0.00  0.00    +0.021 C 
ATOM      6  C   UNL     1       3.796  -4.937   9.115  0.00  0.00    -0.019 C 
ATOM     14  C   UNL     1       6.057  -6.036   9.713  0.00  0.00    +0.062 C 
ATOM     15  C   UNL     1       3.468  -4.035   8.204  0.00  0.00    +0.163 C 
BRANCH   6   7
ATOM      7  C   UNL     1       2.823  -5.681  10.066  0.00  0.00    +0.118 C 
BRANCH   7   8
ATOM      8  N   UNL     1       2.301  -6.684   9.145  0.00  0.00    -0.293 NA
ATOM      9  C   UNL     1       1.464  -7.716   9.840  0.00  0.00    +0.117 C 
ATOM     10  C   UNL     1       0.792  -7.931   8.482  0.00  0.00    +0.143 C 
ATOM     13  C   UNL     1       1.105  -6.464   8.329  0.00  0.00    +0.117 C 
BRANCH  10  11
ATOM     11  O   UNL     1      -0.611  -8.013   8.587  0.00  0.00    -0.389 OA
ATOM     12  H   UNL     1      -0.933  -7.465   9.423  0.00  0.00    +0.210 HD
ENDBRANCH  10  11
ENDBRANCH   7   8
ENDBRANCH   6   7
ENDBRANCH   1   2
TORSDOF 5
