REMARK  Name = 4d0x_ligand
REMARK  4 active torsions:
REMARK  status: ('A' for Active; 'I' for Inactive)
REMARK    1  A    between atoms: C18_5  and  C19_6
REMARK    2  A    between atoms: C16_11  and  C15_12
REMARK    3  A    between atoms: C11_14  and  C12_15
REMARK    4  A    between atoms: C2_19  and  C3_20
REMARK                            x       y       z     vdW  Elec       q    Type
REMARK                         _______ _______ _______ _____ _____    ______ ____
ROOT
ATOM      4  C   UNL     1      31.360 -13.466   4.325  0.00  0.00    +0.099 A 
ATOM      5  C   UNL     1      30.338 -12.630   4.825  0.00  0.00    +0.054 A 
ATOM      6  C   UNL     1      30.642 -11.310   4.466  0.00  0.00    +0.008 A 
ATOM      7  C   UNL     1      31.868 -11.376   3.754  0.00  0.00    +0.087 A 
ATOM     22  N   UNL     1      32.263 -12.675   3.636  0.00  0.00    -0.267 N 
ATOM     23  H   UNL     1      33.091 -13.010   3.123  0.00  0.00    +0.235 HD
ENDROOT
BRANCH   7   8
ATOM      8  C   UNL     1      32.571 -10.260   3.113  0.00  0.00    +0.066 A 
ATOM      9  N   UNL     1      33.678 -10.620   2.389  0.00  0.00    -0.260 NA
ATOM     10  C   UNL     1      34.352  -9.671   1.707  0.00  0.00    +0.178 A 
ATOM     11  N   UNL     1      35.458 -10.088   1.002  0.00  0.00    -0.305 N 
ATOM     12  H   UNL     1      35.732 -11.081   1.014  0.00  0.00    +0.182 HD
ATOM     13  H   UNL     1      36.012  -9.407   0.463  0.00  0.00    +0.182 HD
ATOM     14  N   UNL     1      33.960  -8.364   1.789  0.00  0.00    -0.264 NA
ATOM     15  C   UNL     1      32.877  -8.009   2.518  0.00  0.00    +0.093 A 
ATOM     16  C   UNL     1      32.147  -8.949   3.197  0.00  0.00    +0.041 A 
ENDBRANCH   7   8
BRANCH   4   3
ATOM      1 CL   UNL     1      30.667 -14.969   1.784  0.00  0.00    -0.040 Cl
ATOM      2  C   UNL     1      31.184 -15.741   3.249  0.00  0.00    +0.082 A 
ATOM      3  C   UNL     1      31.486 -14.933   4.374  0.00  0.00    +0.054 A 
ATOM     24  C   UNL     1      31.999 -15.536   5.493  0.00  0.00    +0.065 A 
ATOM     25  C   UNL     1      32.149 -16.910   5.461  0.00  0.00    +0.048 A 
ATOM     30  C   UNL     1      31.835 -17.696   4.328  0.00  0.00    +0.053 A 
ATOM     31  C   UNL     1      31.333 -17.124   3.227  0.00  0.00    +0.053 A 
BRANCH  25  26
ATOM     26  C   UNL     1      32.704 -17.631   6.652  0.00  0.00    +0.376 C 
ATOM     27  F   UNL     1      31.998 -18.725   6.892  0.00  0.00    -0.221 F 
ATOM     28  F   UNL     1      33.964 -17.947   6.379  0.00  0.00    -0.221 F 
ATOM     29  F   UNL     1      32.854 -16.839   7.695  0.00  0.00    -0.221 F 
ENDBRANCH  25  26
ENDBRANCH   4   3
BRANCH   5  17
ATOM     17  C   UNL     1      29.108 -13.181   5.537  0.00  0.00    +0.183 C 
ATOM     18  O   UNL     1      28.099 -12.459   5.691  0.00  0.00    -0.397 OA
ATOM     19  N   UNL     1      29.052 -14.388   5.974  0.00  0.00    -0.304 N 
ATOM     20  H   UNL     1      29.833 -15.001   5.852  0.00  0.00    +0.180 HD
ATOM     21  H   UNL     1      28.228 -14.715   6.436  0.00  0.00    +0.180 HD
ENDBRANCH   5  17
TORSDOF 4
