REMARK  Name = 3q6w_ligand
REMARK  7 active torsions:
REMARK  status: ('A' for Active; 'I' for Inactive)
REMARK    1  A    between atoms: C8_11  and  C14_17
REMARK    2  A    between atoms: C12_15  and  C15_18
REMARK    3  A    between atoms: C15_18  and  C16_19
REMARK    4  A    between atoms: C16_19  and  C17_20
REMARK    5  A    between atoms: N18_21  and  C30_33
REMARK    6  A    between atoms: N21_24  and  C24_27
REMARK    7  A    between atoms: C30_33  and  C31_34
REMARK                            x       y       z     vdW  Elec       q    Type
REMARK                         _______ _______ _______ _____ _____    ______ ____
ROOT
ATOM      1  C   UNL     1      -5.600  -7.078 -15.223  0.00  0.00    +0.058 A 
ATOM      2  C   UNL     1      -4.301  -7.224 -15.680  0.00  0.00    +0.047 A 
ATOM      3  C   UNL     1      -4.051  -8.054 -16.755  0.00  0.00    -0.003 A 
ATOM     17  C   UNL     1      -5.119  -8.736 -17.305  0.00  0.00    +0.095 A 
ATOM     18  N   UNL     1      -6.386  -8.613 -16.890  0.00  0.00    -0.294 NA
ATOM     19  C   UNL     1      -5.746  -6.218 -14.047  0.00  0.00    +0.155 A 
ATOM     20  C   UNL     1      -6.925  -5.344 -13.759  0.00  0.00    +0.037 A 
ATOM     21  C   UNL     1      -6.557  -4.194 -12.896  0.00  0.00    +0.023 A 
ATOM     22  C   UNL     1      -7.639  -3.265 -12.584  0.00  0.00    -0.032 A 
ATOM     36  C   UNL     1      -8.894  -3.500 -12.999  0.00  0.00    +0.009 A 
ATOM     37  C   UNL     1      -9.233  -4.670 -13.778  0.00  0.00    +0.012 A 
ATOM     38  C   UNL     1      -8.318  -5.575 -14.167  0.00  0.00    -0.006 A 
ATOM     39  C   UNL     1      -8.711  -6.754 -14.889  0.00  0.00    +0.024 A 
ATOM     40  C   UNL     1      -8.034  -7.708 -15.554  0.00  0.00    +0.030 A 
ATOM     41  O   UNL     1      -4.823  -6.197 -13.241  0.00  0.00    -0.384 OA
ATOM     42  C   UNL     1      -6.617  -7.775 -15.856  0.00  0.00    +0.056 A 
ENDROOT
BRANCH   3   4
ATOM      4  C   UNL     1      -2.709  -8.184 -17.286  0.00  0.00    +0.010 A 
ATOM      5  C   UNL     1      -1.495  -7.623 -16.823  0.00  0.00    +0.076 A 
ATOM      6  N   UNL     1      -0.466  -7.900 -17.645  0.00  0.00    -0.212 NA
ATOM      7  N   UNL     1      -1.030  -8.638 -18.610  0.00  0.00    -0.198 N 
ATOM     16  C   UNL     1      -2.380  -8.823 -18.463  0.00  0.00    +0.173 A 
BRANCH   7   8
ATOM      8  C   UNL     1      -0.202  -9.123 -19.707  0.00  0.00    +0.162 C 
ATOM      9  C   UNL     1       0.367  -7.906 -20.413  0.00  0.00    +0.090 C 
ATOM     10  C   UNL     1       1.348  -8.281 -21.500  0.00  0.00    +0.132 C 
ATOM     11  N   UNL     1       2.425  -9.073 -20.847  0.00  0.00    +0.227 N 
ATOM     12  H   UNL     1       2.824  -8.524 -20.101  0.00  0.00    +0.201 HD
ATOM     13  H   UNL     1       3.137  -9.278 -21.531  0.00  0.00    +0.201 HD
ATOM     14  C   UNL     1       1.923 -10.350 -20.284  0.00  0.00    +0.132 C 
ATOM     15  C   UNL     1       0.919 -10.011 -19.188  0.00  0.00    +0.090 C 
ENDBRANCH   7   8
ENDBRANCH   3   4
BRANCH  22  23
ATOM     23  C   UNL     1      -7.168  -2.106 -11.792  0.00  0.00    +0.092 C 
BRANCH  23  24
ATOM     24  C   UNL     1      -6.525  -1.066 -12.694  0.00  0.00    +0.153 C 
BRANCH  24  25
ATOM     25  C   UNL     1      -5.089  -1.360 -13.067  0.00  0.00    +0.180 C 
ATOM     26  O   UNL     1      -4.402  -2.261 -12.590  0.00  0.00    -0.397 OA
ATOM     27  N   UNL     1      -4.647  -0.473 -14.031  0.00  0.00    -0.273 N 
ATOM     28  H   UNL     1      -5.309   0.143 -14.459  0.00  0.00    +0.188 HD
BRANCH  27  29
ATOM     29  C   UNL     1      -3.268  -0.404 -14.441  0.00  0.00    +0.222 C 
BRANCH  29  30
ATOM     30  C   UNL     1      -2.467   0.575 -13.630  0.00  0.00    +0.050 A 
ATOM     31  C   UNL     1      -2.596   0.623 -12.257  0.00  0.00    +0.035 A 
ATOM     32  C   UNL     1      -1.847   1.533 -11.539  0.00  0.00    +0.023 A 
ATOM     33  C   UNL     1      -0.986   2.373 -12.215  0.00  0.00    +0.024 A 
ATOM     34  C   UNL     1      -0.921   2.255 -13.588  0.00  0.00    +0.083 A 
ATOM     35  N   UNL     1      -1.636   1.380 -14.310  0.00  0.00    -0.296 NA
ENDBRANCH  29  30
ENDBRANCH  27  29
ENDBRANCH  24  25
ENDBRANCH  23  24
ENDBRANCH  22  23
TORSDOF 7
