REMARK  Name = 5HHW
REMARK  7 active torsions:
REMARK  status: ('A' for Active; 'I' for Inactive)
REMARK    1  A    between atoms: C_1  and  O_3
REMARK    2  A    between atoms: C_1  and  C_16
REMARK    3  A    between atoms: C_2  and  O_3
REMARK    4  A    between atoms: C_8  and  N_25
REMARK    5  A    between atoms: C_10  and  C_12
REMARK    6  A    between atoms: C_12  and  N_29
REMARK    7  A    between atoms: C_21  and  C_23
REMARK                            x       y       z     vdW  Elec       q    Type
REMARK                         _______ _______ _______ _____ _____    ______ ____
ROOT
ATOM     12  C   UNL     1      -7.962 -21.860  16.930  0.00  0.00    +0.012 A 
ATOM     13  C   UNL     1      -8.143 -22.410  18.153  0.00  0.00    +0.097 A 
ATOM     14  N   UNL     1      -7.051 -22.266  18.863  0.00  0.00    -0.328 N 
ATOM     24  C   UNL     1      -6.114 -21.561  18.178  0.00  0.00    +0.147 A 
ATOM     25  N   UNL     1      -4.866 -21.175  18.537  0.00  0.00    -0.218 NA
ATOM     26  C   UNL     1      -4.116 -20.423  17.686  0.00  0.00    +0.225 A 
ATOM     27  N   UNL     1      -4.580 -20.095  16.438  0.00  0.00    -0.220 NA
ATOM     28  C   UNL     1      -5.800 -20.504  16.001  0.00  0.00    +0.129 A 
ATOM     29  N   UNL     1      -6.188 -20.199  14.733  0.00  0.00    -0.343 N 
ATOM     30  H   UNL     1      -5.530 -19.655  14.088  0.00  0.00    +0.144 HD
ATOM     31  H   UNL     1      -7.151 -20.503  14.381  0.00  0.00    +0.144 HD
ATOM     32  C   UNL     1      -6.606 -21.218  16.916  0.00  0.00    +0.066 A 
ENDROOT
BRANCH  12  11
ATOM      9  C   UNL     1     -10.895 -22.717  14.652  0.00  0.00    +0.121 A 
ATOM     10  C   UNL     1      -9.843 -22.861  15.574  0.00  0.00    +0.054 A 
ATOM     11  C   UNL     1      -9.057 -21.746  15.895  0.00  0.00    -0.012 A 
ATOM     33  C   UNL     1      -9.348 -20.487  15.345  0.00  0.00    +0.009 A 
ATOM     34  C   UNL     1     -10.404 -20.321  14.427  0.00  0.00    +0.004 A 
ATOM     35  C   UNL     1     -11.181 -21.450  14.065  0.00  0.00    +0.045 A 
BRANCH   9   8
ATOM      8  O   UNL     1     -11.642 -23.872  14.409  0.00  0.00    -0.489 OA
BRANCH   8   1
ATOM      1  C   UNL     1     -13.027 -23.771  14.012  0.00  0.00    +0.260 C 
BRANCH   1   2
ATOM      2  C   UNL     1     -13.305 -24.673  12.790  0.00  0.00    +0.156 C 
ATOM      3  C   UNL     1     -12.371 -24.367  11.586  0.00  0.00    +0.035 C 
ATOM      4  C   UNL     1     -12.707 -25.367  10.441  0.00  0.00    +0.005 C 
ATOM      5  C   UNL     1     -12.699 -26.855  10.912  0.00  0.00    +0.028 C 
ATOM      6  C   UNL     1     -13.541 -27.024  12.217  0.00  0.00    +0.160 C 
ATOM      7  O   UNL     1     -13.131 -26.041  13.211  0.00  0.00    -0.373 OA
ENDBRANCH   1   2
ENDBRANCH   8   1
ENDBRANCH   9   8
ENDBRANCH  12  11
BRANCH  14  15
ATOM     15  C   UNL     1      -6.827 -22.738  20.239  0.00  0.00    +0.089 C 
ATOM     16  C   UNL     1      -7.573 -21.979  21.351  0.00  0.00    +0.030 C 
ATOM     17  C   UNL     1      -7.738 -23.347  22.079  0.00  0.00    +0.007 C 
ATOM     23  C   UNL     1      -7.519 -24.039  20.709  0.00  0.00    +0.030 C 
BRANCH  17  18
ATOM     18  C   UNL     1      -9.133 -23.603  22.716  0.00  0.00    +0.088 C 
BRANCH  18  19
ATOM     19  N   UNL     1      -9.319 -22.870  23.994  0.00  0.00    -0.302 NA
ATOM     20  C   UNL     1      -9.686 -21.421  24.000  0.00  0.00    +0.086 C 
ATOM     21  C   UNL     1     -10.918 -21.690  24.896  0.00  0.00    +0.031 C 
ATOM     22  C   UNL     1     -10.581 -23.190  24.723  0.00  0.00    +0.086 C 
ENDBRANCH  18  19
ENDBRANCH  17  18
ENDBRANCH  14  15
TORSDOF 7
