REMARK  Name = 4YPS
REMARK  4 active torsions:
REMARK  status: ('A' for Active; 'I' for Inactive)
REMARK    1  A    between atoms: C_4  and  N_21
REMARK    2  A    between atoms: C_9  and  C_10
REMARK    3  A    between atoms: C_13  and  C_16
REMARK    4  A    between atoms: C_26  and  C_27
REMARK                            x       y       z     vdW  Elec       q    Type
REMARK                         _______ _______ _______ _____ _____    ______ ____
ROOT
ATOM     13  C   UNL     1     -18.165 -44.358 -11.093  0.00  0.00    +0.115 C 
ATOM     14  N   UNL     1     -17.629 -43.850 -12.222  0.00  0.00    -0.278 NA
ATOM     15  H   UNL     1     -17.455 -44.498 -13.055  0.00  0.00    +0.189 HD
ATOM     16  N   UNL     1     -17.296 -42.498 -12.329  0.00  0.00    -0.236 NA
ATOM     17  C   UNL     1     -16.733 -41.834 -13.353  0.00  0.00    +0.089 C 
ATOM     26  C   UNL     1     -16.594 -40.518 -12.981  0.00  0.00    +0.112 C 
ATOM     27  N   UNL     1     -17.071 -40.426 -11.722  0.00  0.00    -0.344 NA
ATOM     28  H   UNL     1     -17.109 -39.533 -11.133  0.00  0.00    +0.167 HD
ATOM     29  C   UNL     1     -17.494 -41.653 -11.327  0.00  0.00    +0.131 C 
ATOM     30  C   UNL     1     -18.053 -42.139 -10.144  0.00  0.00    +0.049 C 
ATOM     31  C   UNL     1     -18.399 -43.478 -10.033  0.00  0.00    +0.047 C 
ENDROOT
BRANCH  13  12
ATOM      7  C   UNL     1     -17.908 -46.654 -12.073  0.00  0.00    +0.131 C 
ATOM      8  C   UNL     1     -17.761 -48.062 -11.496  0.00  0.00    +0.187 C 
ATOM      9  O   UNL     1     -18.119 -48.118 -10.132  0.00  0.00    -0.376 OA
ATOM     10  C   UNL     1     -19.469 -47.740 -10.000  0.00  0.00    +0.178 C 
ATOM     11  C   UNL     1     -19.579 -46.239 -10.211  0.00  0.00    +0.135 C 
ATOM     12  N   UNL     1     -18.519 -45.731 -11.088  0.00  0.00    -0.304 NA
BRANCH   7   4
ATOM      1  C   UNL     1     -20.427 -45.949 -14.848  0.00  0.00    +0.124 A 
ATOM      2  F   UNL     1     -21.460 -45.118 -15.101  0.00  0.00    -0.205 F 
ATOM      3  C   UNL     1     -19.748 -45.862 -13.628  0.00  0.00    +0.043 A 
ATOM      4  C   UNL     1     -18.679 -46.718 -13.359  0.00  0.00    -0.022 A 
ATOM      5  C   UNL     1     -18.313 -47.645 -14.351  0.00  0.00    +0.006 A 
ATOM      6  C   UNL     1     -18.989 -47.739 -15.573  0.00  0.00    +0.003 A 
ATOM     32  C   UNL     1     -20.052 -46.882 -15.813  0.00  0.00    +0.038 A 
ENDBRANCH   7   4
ENDBRANCH  13  12
BRANCH  17  18
ATOM     18  C   UNL     1     -16.388 -42.492 -14.661  0.00  0.00    +0.002 A 
ATOM     19  C   UNL     1     -16.139 -43.866 -14.808  0.00  0.00    +0.011 A 
ATOM     20  C   UNL     1     -15.810 -44.392 -16.059  0.00  0.00    +0.019 A 
ATOM     21  C   UNL     1     -15.722 -43.563 -17.168  0.00  0.00    +0.052 A 
ATOM     24  C   UNL     1     -15.971 -42.206 -17.036  0.00  0.00    +0.019 A 
ATOM     25  C   UNL     1     -16.289 -41.677 -15.783  0.00  0.00    +0.011 A 
BRANCH  21  22
ATOM     22  C   UNL     1     -15.445 -44.060 -18.319  0.00  0.00    +0.099 C 
ATOM     23  N   UNL     1     -15.200 -44.476 -19.369  0.00  0.00    -0.191 NA
ENDBRANCH  21  22
ENDBRANCH  17  18
TORSDOF 4
