REMARK  Name = 5B7V
REMARK  5 active torsions:
REMARK  status: ('A' for Active; 'I' for Inactive)
REMARK    1  A    between atoms: C_4  and  C_27
REMARK    2  A    between atoms: C_12  and  C_20
REMARK    3  A    between atoms: C_15  and  N_26
REMARK    4  A    between atoms: C_16  and  C_20
REMARK    5  A    between atoms: N_19  and  C_22
REMARK                            x       y       z     vdW  Elec       q    Type
REMARK                         _______ _______ _______ _____ _____    ______ ____
ROOT
ATOM      6  N   UNL     1       6.089   2.566  18.137  0.00  0.00    -0.218 N 
ATOM      7  N   UNL     1       6.902   3.610  18.632  0.00  0.00    -0.172 NA
ATOM      8  C   UNL     1       7.293   3.230  19.848  0.00  0.00    +0.148 A 
ATOM      9  C   UNL     1       6.731   1.928  20.214  0.00  0.00    +0.083 A 
ATOM     21  C   UNL     1       5.968   1.520  19.070  0.00  0.00    +0.131 A 
ENDROOT
BRANCH   6   4
ATOM      1  C   UNL     1       4.647   2.579  14.163  0.00  0.00    +0.066 A 
ATOM      2  C   UNL     1       4.018   3.451  15.118  0.00  0.00    +0.030 A 
ATOM      3  C   UNL     1       4.496   3.459  16.433  0.00  0.00    +0.030 A 
ATOM      4  C   UNL     1       5.568   2.572  16.795  0.00  0.00    +0.070 A 
ATOM      5  C   UNL     1       6.220   1.717  15.866  0.00  0.00    +0.057 A 
ATOM     25  N   UNL     1       4.371   2.379  12.803  0.00  0.00    -0.342 N 
ATOM     26  H   UNL     1       3.623   2.873  12.220  0.00  0.00    +0.167 HD
ATOM     27  C   UNL     1       5.249   1.427  12.373  0.00  0.00    +0.105 A 
ATOM     28  C   UNL     1       5.362   0.931  10.976  0.00  0.00    +0.086 C 
ATOM     29  N   UNL     1       6.075   0.965  13.399  0.00  0.00    -0.233 NA
ATOM     30  C   UNL     1       5.727   1.721  14.548  0.00  0.00    +0.091 A 
ENDBRANCH   6   4
BRANCH  21  22
ATOM     22  N   UNL     1       5.276   0.365  18.872  0.00  0.00    -0.343 N 
ATOM     23  H   UNL     1       4.751   0.207  17.953  0.00  0.00    +0.144 HD
ATOM     24  H   UNL     1       5.257  -0.385  19.635  0.00  0.00    +0.144 HD
ENDBRANCH  21  22
BRANCH   9  10
ATOM     10  C   UNL     1       6.875   1.141  21.430  0.00  0.00    +0.216 C 
ATOM     11  O   UNL     1       6.358   0.038  21.522  0.00  0.00    -0.285 OA
BRANCH  10  12
ATOM     12  C   UNL     1       7.751   1.555  22.555  0.00  0.00    +0.112 A 
ATOM     13  C   UNL     1       8.590   2.640  22.728  0.00  0.00    +0.041 A 
ATOM     14  C   UNL     1       9.259   2.462  23.990  0.00  0.00    +0.003 A 
ATOM     15  C   UNL     1      10.200   3.238  24.727  0.00  0.00    +0.010 A 
ATOM     16  C   UNL     1      10.647   2.749  25.957  0.00  0.00    +0.001 A 
ATOM     17  C   UNL     1      10.189   1.499  26.480  0.00  0.00    +0.002 A 
ATOM     18  C   UNL     1       9.275   0.716  25.788  0.00  0.00    +0.028 A 
ATOM     19  C   UNL     1       8.826   1.209  24.526  0.00  0.00    +0.072 A 
ATOM     20  N   UNL     1       7.932   0.674  23.625  0.00  0.00    -0.243 NA
ENDBRANCH  10  12
ENDBRANCH   9  10
TORSDOF 4
