REMARK  Name = 3d7z_ligand
REMARK  7 active torsions:
REMARK  status: ('A' for Active; 'I' for Inactive)
REMARK    1  A    between atoms: C9_1  and  C4_8
REMARK    2  A    between atoms: C18_4  and  N15_14
REMARK    3  A    between atoms: C24_7  and  C23_26
REMARK    4  A    between atoms: C7_11  and  C12_12
REMARK    5  A    between atoms: C1_16  and  C2_17
REMARK    6  A    between atoms: C14_20  and  C17_23
REMARK    7  A    between atoms: N19_25  and  C23_26
REMARK                            x       y       z     vdW  Elec       q    Type
REMARK                         _______ _______ _______ _____ _____    ______ ____
ROOT
ATOM      1  C   UNL     1      39.630  32.309  30.181  0.00  0.00    +0.095 C 
ATOM      2  C   UNL     1      39.547  31.335  31.353  0.00  0.00    -0.031 A 
ATOM      3  C   UNL     1      40.610  31.227  32.226  0.00  0.00    -0.007 A 
ATOM     18  C   UNL     1      40.506  30.325  33.311  0.00  0.00    +0.028 A 
ATOM     19  C   UNL     1      39.381  29.509  33.571  0.00  0.00    +0.044 A 
ATOM     27  C   UNL     1      38.312  29.639  32.665  0.00  0.00    +0.018 A 
ATOM     28  C   UNL     1      38.408  30.525  31.589  0.00  0.00    +0.004 A 
ENDROOT
BRANCH   3   4
ATOM      4  C   UNL     1      41.911  31.977  32.176  0.00  0.00    -0.016 A 
ATOM      5  C   UNL     1      42.099  33.092  32.956  0.00  0.00    +0.012 A 
ATOM      6  C   UNL     1      43.317  33.773  33.010  0.00  0.00    +0.024 A 
ATOM      7  C   UNL     1      44.400  33.346  32.242  0.00  0.00    +0.048 A 
ATOM     16  C   UNL     1      44.212  32.192  31.466  0.00  0.00    +0.024 A 
ATOM     17  C   UNL     1      42.987  31.506  31.448  0.00  0.00    +0.012 A 
BRANCH   7   8
ATOM      8  C   UNL     1      45.691  34.092  32.392  0.00  0.00    +0.204 C 
ATOM      9  N   UNL     1      46.791  33.299  32.265  0.00  0.00    -0.286 N 
ATOM     10  H   UNL     1      46.669  32.417  31.809  0.00  0.00    +0.184 HD
ATOM     15  O   UNL     1      45.788  35.270  32.745  0.00  0.00    -0.386 OA
BRANCH   9  11
ATOM     11  C   UNL     1      48.144  33.629  32.742  0.00  0.00    +0.146 C 
BRANCH  11  12
ATOM     12  C   UNL     1      48.811  34.530  31.723  0.00  0.00    +0.056 C 
ATOM     13  C   UNL     1      50.185  34.214  31.283  0.00  0.00    -0.021 C 
ATOM     14  C   UNL     1      49.027  33.927  30.393  0.00  0.00    -0.021 C 
ENDBRANCH  11  12
ENDBRANCH   9  11
ENDBRANCH   7   8
ENDBRANCH   3   4
BRANCH  19  20
ATOM     20  C   UNL     1      39.405  28.585  34.764  0.00  0.00    +0.201 C 
ATOM     21  N   UNL     1      38.417  27.623  34.905  0.00  0.00    -0.277 N 
ATOM     22  H   UNL     1      37.692  27.588  34.217  0.00  0.00    +0.185 HD
ATOM     26  O   UNL     1      40.286  28.721  35.631  0.00  0.00    -0.388 OA
BRANCH  21  23
ATOM     23  C   UNL     1      38.373  26.666  35.990  0.00  0.00    +0.143 C 
ATOM     24  C   UNL     1      38.058  27.405  37.255  0.00  0.00    +0.003 C 
ATOM     25  C   UNL     1      36.971  26.719  36.516  0.00  0.00    +0.003 C 
ENDBRANCH  21  23
ENDBRANCH  19  20
TORSDOF 6
