REMARK  Name = 5TBE
REMARK  7 active torsions:
REMARK  status: ('A' for Active; 'I' for Inactive)
REMARK    1  A    between atoms: N_6  and  C_7
REMARK    2  A    between atoms: C_8  and  N_9
REMARK    3  A    between atoms: C_10  and  C_12
REMARK    4  A    between atoms: C_27  and  N_28
REMARK    5  A    between atoms: N_28  and  C_29
REMARK    6  A    between atoms: C_36  and  N_37
REMARK    7  A    between atoms: C_38  and  C_40
REMARK                            x       y       z     vdW  Elec       q    Type
REMARK                         _______ _______ _______ _____ _____    ______ ____
ROOT
ATOM      8  C   UNL     1      18.814   5.924 -26.593  0.00  0.00    +0.038 A 
ATOM      9  C   UNL     1      17.725   6.323 -25.806  0.00  0.00    +0.013 A 
ATOM     10  C   UNL     1      17.017   5.396 -25.031  0.00  0.00    +0.005 A 
ATOM     11  C   UNL     1      17.348   4.029 -25.018  0.00  0.00    -0.036 A 
ATOM     12  C   UNL     1      16.604   3.195 -24.138  0.00  0.00    +0.040 C 
ATOM     13  C   UNL     1      17.606   2.731 -22.987  0.00  0.00    +0.040 C 
ATOM     14  C   UNL     1      18.340   1.590 -23.405  0.00  0.00    -0.035 A 
ATOM     15  C   UNL     1      18.861   1.347 -24.671  0.00  0.00    +0.026 A 
ATOM     16  C   UNL     1      19.531   0.130 -24.905  0.00  0.00    +0.014 A 
ATOM     17  C   UNL     1      19.684  -0.834 -23.895  0.00  0.00    +0.024 A 
ATOM     18  C   UNL     1      19.201  -0.592 -22.603  0.00  0.00    +0.032 A 
ATOM     38  C   UNL     1      18.809   2.191 -25.799  0.00  0.00    +0.194 C 
ATOM     39  O   UNL     1      19.132   1.701 -26.898  0.00  0.00    -0.287 OA
ATOM     40  C   UNL     1      18.531   0.633 -22.385  0.00  0.00    +0.027 A 
ATOM     41  C   UNL     1      18.407   3.563 -25.756  0.00  0.00    +0.026 A 
ATOM     42  C   UNL     1      19.113   4.512 -26.534  0.00  0.00    +0.025 A 
ENDROOT
BRANCH   8   7
ATOM      5  N   UNL     1      19.773   8.128 -27.208  0.00  0.00    -0.287 N 
ATOM      6  H   UNL     1      20.450   8.613 -27.880  0.00  0.00    +0.155 HD
ATOM      7  C   UNL     1      19.631   6.779 -27.415  0.00  0.00    +0.248 C 
ATOM     43  O   UNL     1      20.377   6.265 -28.257  0.00  0.00    -0.270 OA
BRANCH   5   4
ATOM      3  C   UNL     1      19.460  10.122 -26.225  0.00  0.00    +0.085 C 
ATOM      4  C   UNL     1      19.135   9.043 -26.191  0.00  0.00    +0.090 C 
BRANCH   3   2
ATOM      1  C   UNL     1      20.444  11.521 -27.997  0.00  0.00    +0.132 C 
ATOM      2  N   UNL     1      20.708  10.513 -26.946  0.00  0.00    -0.330 N 
ATOM     44  C   UNL     1      21.693  11.108 -26.003  0.00  0.00    +0.132 C 
ATOM     45  C   UNL     1      22.992  11.449 -26.719  0.00  0.00    +0.178 C 
ATOM     46  O   UNL     1      22.753  12.364 -27.790  0.00  0.00    -0.377 OA
ATOM     47  C   UNL     1      21.735  11.930 -28.730  0.00  0.00    +0.178 C 
ENDBRANCH   3   2
ENDBRANCH   5   4
ENDBRANCH   8   7
BRANCH  18  19
ATOM     19  N   UNL     1      19.319  -1.427 -21.540  0.00  0.00    -0.312 N 
ATOM     20  H   UNL     1      18.731  -1.168 -20.684  0.00  0.00    +0.152 HD
BRANCH  19  21
ATOM     21  C   UNL     1      20.082  -2.550 -21.410  0.00  0.00    +0.069 A 
ATOM     22  C   UNL     1      21.435  -2.644 -21.817  0.00  0.00    +0.147 A 
ATOM     23  C   UNL     1      22.110  -3.825 -21.619  0.00  0.00    +0.080 A 
ATOM     24  C   UNL     1      21.480  -4.907 -21.000  0.00  0.00    +0.147 A 
ATOM     25  C   UNL     1      20.148  -4.827 -20.569  0.00  0.00    +0.071 A 
ATOM     35  F   UNL     1      22.226  -6.107 -20.823  0.00  0.00    -0.203 F 
ATOM     36  F   UNL     1      22.059  -1.765 -22.387  0.00  0.00    -0.203 F 
ATOM     37  C   UNL     1      19.484  -3.620 -20.760  0.00  0.00    +0.052 A 
BRANCH  25  26
ATOM     26  N   UNL     1      19.635  -5.943 -19.945  0.00  0.00    -0.279 N 
ATOM     27  H   UNL     1      20.289  -6.536 -19.340  0.00  0.00    +0.155 HD
ATOM     28  C   UNL     1      18.320  -6.330 -20.064  0.00  0.00    +0.255 C 
ATOM     34  O   UNL     1      17.452  -5.708 -20.699  0.00  0.00    -0.269 OA
BRANCH  28  29
ATOM     29  C   UNL     1      17.910  -7.444 -19.384  0.00  0.00    +0.074 A 
ATOM     30  C   UNL     1      18.352  -7.914 -18.192  0.00  0.00    +0.020 A 
ATOM     31  C   UNL     1      17.758  -9.019 -17.739  0.00  0.00    +0.008 A 
ATOM     32  C   UNL     1      16.790  -9.491 -18.540  0.00  0.00    +0.046 A 
ATOM     33  S   UNL     1      16.653  -8.459 -19.924  0.00  0.00    -0.092 S 
ENDBRANCH  28  29
ENDBRANCH  25  26
ENDBRANCH  19  21
ENDBRANCH  18  19
TORSDOF 7
