REMARK  Name = 2xf0_ligand
REMARK  2 active torsions:
REMARK  status: ('A' for Active; 'I' for Inactive)
REMARK    1  A    between atoms: C13_10  and  C14_11
REMARK    2  A    between atoms: C20_16  and  CAO_17
REMARK                            x       y       z     vdW  Elec       q    Type
REMARK                         _______ _______ _______ _____ _____    ______ ____
ROOT
ATOM      3  C   UNL     1      14.331  -2.712   6.832  0.00  0.00    +0.103 A 
ATOM      4  N   UNL     1      13.016  -2.793   7.260  0.00  0.00    -0.195 N 
ATOM      5  C   UNL     1      12.366  -1.728   6.670  0.00  0.00    +0.172 A 
ATOM      6  C   UNL     1      11.014  -1.539   6.907  0.00  0.00    +0.163 A 
ATOM      7  N   UNL     1      10.353  -2.369   7.692  0.00  0.00    -0.292 NA
ATOM      8  C   UNL     1      10.951  -3.418   8.272  0.00  0.00    +0.064 A 
ATOM     15  N   UNL     1      13.258  -1.061   5.944  0.00  0.00    -0.321 NA
ATOM     16  C   UNL     1      12.304  -3.660   8.080  0.00  0.00    +0.210 A 
ATOM     17  C   UNL     1      14.447  -1.651   6.044  0.00  0.00    +0.049 A 
ENDROOT
BRANCH   3   2
ATOM      1  C   UNL     1      15.025  -4.619   8.119  0.00  0.00    +0.000 A 
ATOM      2  C   UNL     1      15.317  -3.603   7.223  0.00  0.00    +0.001 A 
ATOM     18  C   UNL     1      16.607  -3.456   6.737  0.00  0.00    +0.000 A 
ATOM     19  C   UNL     1      17.607  -4.335   7.133  0.00  0.00    -0.006 A 
ATOM     20  C   UNL     1      17.313  -5.358   8.024  0.00  0.00    -0.008 A 
ATOM     21  C   UNL     1      16.023  -5.497   8.516  0.00  0.00    -0.006 A 
ENDBRANCH   3   2
BRANCH   8   9
ATOM      9  C   UNL     1      10.198  -4.248   9.088  0.00  0.00    +0.012 A 
ATOM     10  C   UNL     1       8.920  -4.092   9.397  0.00  0.00    +0.159 A 
ATOM     11  N   UNL     1       8.589  -5.087  10.210  0.00  0.00    -0.219 N 
ATOM     12  H   UNL     1       7.664  -5.234  10.614  0.00  0.00    +0.259 HD
ATOM     13  N   UNL     1       9.571  -5.805  10.401  0.00  0.00    -0.217 NA
ATOM     14  C   UNL     1      10.613  -5.328   9.728  0.00  0.00    +0.072 A 
ENDBRANCH   8   9
TORSDOF 2
