REMARK  Name = 4RSS
REMARK  9 active torsions:
REMARK  status: ('A' for Active; 'I' for Inactive)
REMARK    1  A    between atoms: C_1  and  N_2
REMARK    2  A    between atoms: C_3  and  C_4
REMARK    3  A    between atoms: C_5  and  C_6
REMARK    4  A    between atoms: C_12  and  N_13
REMARK    5  A    between atoms: C_19  and  N_20
REMARK    6  A    between atoms: C_23  and  C_24
REMARK    7  A    between atoms: C_25  and  C_26
REMARK    8  A    between atoms: C_26  and  N_27
REMARK    9  A    between atoms: C_30  and  O_31
REMARK                            x       y       z     vdW  Elec       q    Type
REMARK                         _______ _______ _______ _____ _____    ______ ____
ROOT
ATOM      7  N   UNL     1     -17.132  -4.904 -15.494  0.00  0.00    -0.213 NA
ATOM      8  C   UNL     1     -16.065  -5.585 -15.132  0.00  0.00    +0.230 A 
ATOM      9  N   UNL     1     -14.962  -5.372 -15.847  0.00  0.00    -0.331 N 
ATOM     10  H   UNL     1     -15.001  -4.697 -16.677  0.00  0.00    +0.168 HD
ATOM     11  C   UNL     1     -13.823  -5.971 -15.559  0.00  0.00    +0.089 A 
ATOM     12  C   UNL     1     -13.748  -6.848 -14.460  0.00  0.00    +0.063 A 
ATOM     13  C   UNL     1     -14.872  -7.006 -13.703  0.00  0.00    +0.143 A 
ATOM     28  N   UNL     1     -16.022  -6.374 -14.035  0.00  0.00    -0.196 NA
ENDROOT
BRANCH   7   6
ATOM      1  C   UNL     1     -23.466  -4.373 -13.821  0.00  0.00    +0.149 C 
ATOM      2  N   UNL     1     -22.207  -5.125 -13.487  0.00  0.00    -0.347 N 
ATOM      3  C   UNL     1     -21.022  -4.944 -14.072  0.00  0.00    +0.049 A 
ATOM      4  C   UNL     1     -20.629  -4.094 -15.098  0.00  0.00    +0.028 A 
ATOM      5  C   UNL     1     -19.319  -4.102 -15.529  0.00  0.00    +0.030 A 
ATOM      6  C   UNL     1     -18.370  -4.969 -14.948  0.00  0.00    +0.068 A 
ATOM     29  C   UNL     1     -18.777  -5.831 -13.919  0.00  0.00    +0.038 A 
ATOM     30  C   UNL     1     -20.103  -5.797 -13.491  0.00  0.00    +0.005 A 
ATOM     31  C   UNL     1     -20.814  -6.492 -12.525  0.00  0.00    -0.022 A 
ATOM     32  C   UNL     1     -20.279  -7.571 -11.613  0.00  0.00    +0.046 C 
ATOM     33  C   UNL     1     -22.116  -6.042 -12.549  0.00  0.00    +0.019 A 
ATOM     34  C   UNL     1     -23.258  -6.522 -11.666  0.00  0.00    +0.064 C 
ENDBRANCH   7   6
BRANCH  13  14
ATOM     14  N   UNL     1     -14.880  -7.892 -12.683  0.00  0.00    -0.233 N 
ATOM     15  N   UNL     1     -13.881  -8.545 -12.329  0.00  0.00    -0.267 N 
ATOM     16  H   UNL     1     -12.893  -8.456 -12.730  0.00  0.00    +0.170 HD
ATOM     17  C   UNL     1     -14.266  -9.376 -11.358  0.00  0.00    +0.021 C 
ATOM     18  C   UNL     1     -15.650  -9.240 -11.173  0.00  0.00    -0.019 C 
ATOM     26  C   UNL     1     -13.297 -10.315 -10.646  0.00  0.00    +0.062 C 
ATOM     27  C   UNL     1     -15.995  -8.296 -12.054  0.00  0.00    +0.163 C 
BRANCH  18  19
ATOM     19  C   UNL     1     -16.662  -9.973 -10.213  0.00  0.00    +0.118 C 
BRANCH  19  20
ATOM     20  N   UNL     1     -17.136 -11.117 -10.993  0.00  0.00    -0.293 NA
ATOM     21  C   UNL     1     -18.284 -11.843 -10.313  0.00  0.00    +0.117 C 
ATOM     22  C   UNL     1     -18.768 -12.219 -11.691  0.00  0.00    +0.143 C 
ATOM     25  C   UNL     1     -18.082 -10.949 -12.081  0.00  0.00    +0.117 C 
BRANCH  22  23
ATOM     23  O   UNL     1     -20.181 -11.983 -11.939  0.00  0.00    -0.389 OA
ATOM     24  H   UNL     1     -20.509 -11.174 -11.356  0.00  0.00    +0.210 HD
ENDBRANCH  22  23
ENDBRANCH  19  20
ENDBRANCH  18  19
ENDBRANCH  13  14
TORSDOF 5
