REMARK  Name = 4alu_ligand
REMARK  1 active torsions:
REMARK  status: ('A' for Active; 'I' for Inactive)
REMARK    1  A    between atoms: C4_7  and  C3_8
REMARK                            x       y       z     vdW  Elec       q    Type
REMARK                         _______ _______ _______ _____ _____    ______ ____
ROOT
ATOM      4  C   UNL     1      21.425  31.848  -2.538  0.00  0.00    +0.155 A 
ATOM      5  N   UNL     1      21.316  30.975  -1.394  0.00  0.00    -0.204 N 
ATOM      6  H   UNL     1      21.045  30.021  -1.523  0.00  0.00    +0.248 HD
ATOM      7  C   UNL     1      21.599  31.475  -0.044  0.00  0.00    +0.257 A 
ATOM      8  O   UNL     1      21.543  30.826   1.011  0.00  0.00    -0.398 OA
ATOM      9  C   UNL     1      21.980  32.792   0.104  0.00  0.00    +0.203 A 
ATOM     10  O   UNL     1      22.306  33.483   1.239  0.00  0.00    -0.246 OA
ATOM     11  C   UNL     1      22.618  34.734   0.873  0.00  0.00    +0.130 A 
ATOM     12  C   UNL     1      22.999  35.806   1.644  0.00  0.00    +0.031 A 
ATOM     13  C   UNL     1      23.259  37.008   1.022  0.00  0.00    -0.002 A 
ATOM     14  C   UNL     1      23.126  37.134  -0.368  0.00  0.00    +0.001 A 
ATOM     15 BR   UNL     1      23.505  38.828  -1.209  0.00  0.00    -0.059 Br
ATOM     16  C   UNL     1      22.735  36.055  -1.140  0.00  0.00    +0.007 A 
ATOM     17  C   UNL     1      22.479  34.843  -0.516  0.00  0.00    +0.019 A 
ATOM     18  C   UNL     1      22.075  33.608  -1.029  0.00  0.00    +0.051 A 
ATOM     19  N   UNL     1      21.804  33.144  -2.296  0.00  0.00    -0.306 NA
ENDROOT
BRANCH   4   3
ATOM      1 CL   UNL     1      18.572  32.174  -3.543  0.00  0.00    -0.064 Cl
ATOM      2  C   UNL     1      19.882  31.471  -4.422  0.00  0.00    +0.060 A 
ATOM      3  C   UNL     1      21.153  31.375  -3.852  0.00  0.00    +0.054 A 
ATOM     20  C   UNL     1      22.194  30.799  -4.582  0.00  0.00    +0.025 A 
ATOM     21  C   UNL     1      21.970  30.323  -5.873  0.00  0.00    +0.007 A 
ATOM     22  C   UNL     1      20.701  30.419  -6.439  0.00  0.00    +0.009 A 
ATOM     23  C   UNL     1      19.658  30.992  -5.713  0.00  0.00    +0.022 A 
ENDBRANCH   4   3
TORSDOF 1
