REMARK  Name = I05
REMARK  8 active torsions:
REMARK  status: ('A' for Active; 'I' for Inactive)
REMARK    1  A    between atoms: C75_3  and  O95_4
REMARK    2  A    between atoms: C71_10  and  C61_11
REMARK    3  A    between atoms: C61_11  and  C54_13
REMARK    4  A    between atoms: C51_18  and  C42_19
REMARK    5  A    between atoms: C42_19  and  O41_20
REMARK    6  A    between atoms: O41_20  and  C37_21
REMARK    7  A    between atoms: C31_27  and  N23_28
REMARK    8  A    between atoms: C21_29  and  C14_31
REMARK                            x       y       z     vdW  Elec       q    Type
REMARK                         _______ _______ _______ _____ _____    ______ ____
ROOT
ATOM      5  C   UNL     1      13.803  12.501  -1.347  0.00  0.00    +0.039 A 
ATOM      6  C   UNL     1      13.468  13.467  -0.418  0.00  0.00    +0.003 A 
ATOM      7  C   UNL     1      12.801  13.111   0.752  0.00  0.00    -0.002 A 
ATOM      8  C   UNL     1      12.468  11.782   1.027  0.00  0.00    +0.007 A 
ATOM     27  C   UNL     1      12.831  10.832   0.081  0.00  0.00    -0.002 A 
ATOM     28  C   UNL     1      13.501  11.189  -1.102  0.00  0.00    +0.003 A 
ENDROOT
BRANCH   5   4
ATOM      4  C   UNL     1      14.543  12.890  -2.559  0.00  0.00    +0.201 C 
ATOM     29  O   UNL     1      15.252  13.879  -2.484  0.00  0.00    -0.286 OA
BRANCH   4   3
ATOM      1  F   UNL     1      16.824  11.977  -3.302  0.00  0.00    -0.201 F 
ATOM      2  C   UNL     1      15.853  11.729  -4.169  0.00  0.00    +0.180 A 
ATOM      3  C   UNL     1      14.596  12.143  -3.854  0.00  0.00    +0.108 A 
ATOM     30  C   UNL     1      13.557  11.893  -4.748  0.00  0.00    +0.201 A 
ATOM     31  O   UNL     1      12.311  12.292  -4.470  0.00  0.00    -0.286 OA
ATOM     32  C   UNL     1      13.839  11.211  -5.947  0.00  0.00    +0.045 A 
ATOM     33  C   UNL     1      15.136  10.791  -6.230  0.00  0.00    +0.043 A 
ATOM     34  C   UNL     1      16.150  11.057  -5.314  0.00  0.00    +0.166 A 
BRANCH  34  35
ATOM     35  O   UNL     1      17.469  10.710  -5.462  0.00  0.00    -0.469 OA
ATOM     36  C   UNL     1      18.056  10.645  -6.756  0.00  0.00    +0.253 C 
ENDBRANCH  34  35
ENDBRANCH   4   3
ENDBRANCH   5   4
BRANCH   8   9
ATOM      9  C   UNL     1      11.744  11.402   2.316  0.00  0.00    +0.169 C 
BRANCH   9  10
ATOM     10  O   UNL     1      11.154  10.124   2.215  0.00  0.00    -0.350 OA
BRANCH  10  11
ATOM     11  C   UNL     1      10.481   9.631   3.364  0.00  0.00    +0.137 C 
ATOM     12  C   UNL     1      11.512   9.152   4.361  0.00  0.00    +0.033 C 
ATOM     13  C   UNL     1      12.682   8.387   3.770  0.00  0.00    +0.021 C 
ATOM     14  C   UNL     1      12.373   6.923   3.602  0.00  0.00    +0.089 C 
ATOM     15  N   UNL     1      11.248   6.747   2.722  0.00  0.00    -0.216 NA
ATOM     16  C   UNL     1       9.962   7.079   3.288  0.00  0.00    +0.113 C 
ATOM     17  C   UNL     1       9.522   8.509   2.942  0.00  0.00    +0.140 C 
BRANCH  17  18
ATOM     18  N   UNL     1       8.178   8.721   3.478  0.00  0.00    -0.199 NA
ATOM     19  C   UNL     1       7.159   8.987   2.659  0.00  0.00    +0.265 C 
ATOM     26  O   UNL     1       7.367   9.161   1.462  0.00  0.00    -0.268 OA
BRANCH  19  20
ATOM     20  C   UNL     1       5.740   9.083   3.180  0.00  0.00    +0.058 A 
ATOM     21  C   UNL     1       5.444   8.978   4.536  0.00  0.00    +0.025 A 
ATOM     22  C   UNL     1       4.120   9.044   4.954  0.00  0.00    +0.099 A 
ATOM     23  N   UNL     1       3.144   9.217   4.074  0.00  0.00    -0.242 NA
ATOM     24  C   UNL     1       3.377   9.333   2.779  0.00  0.00    +0.099 A 
ATOM     25  C   UNL     1       4.672   9.263   2.301  0.00  0.00    +0.025 A 
ENDBRANCH  19  20
ENDBRANCH  17  18
ENDBRANCH  10  11
ENDBRANCH   9  10
ENDBRANCH   8   9
TORSDOF 8
