REMARK  Name = 3GQL
REMARK  5 active torsions:
REMARK  status: ('A' for Active; 'I' for Inactive)
REMARK    1  A    between atoms: C_2  and  C_3
REMARK    2  A    between atoms: C_8  and  C_9
REMARK    3  A    between atoms: C_9  and  C_10
REMARK    4  A    between atoms: C_13  and  O_14
REMARK    5  A    between atoms: O_14  and  C_15
REMARK                            x       y       z     vdW  Elec       q    Type
REMARK                         _______ _______ _______ _____ _____    ______ ____
ROOT
ATOM      1  C   UNL     1      49.445  -6.089  -0.386  0.00  0.00    +0.039 A 
ATOM      2  C   UNL     1      48.238  -5.691  -0.955  0.00  0.00    +0.052 A 
ATOM     13  C   UNL     1      48.433  -4.591  -1.673  0.00  0.00    +0.125 A 
ATOM     14  N   UNL     1      49.717  -4.254  -1.583  0.00  0.00    -0.235 NA
ATOM     15  C   UNL     1      50.360  -5.130  -0.813  0.00  0.00    +0.161 A 
ATOM     16  N   UNL     1      51.644  -5.198  -0.431  0.00  0.00    -0.236 NA
ATOM     17  C   UNL     1      52.087  -6.163   0.356  0.00  0.00    +0.114 A 
ATOM     18  C   UNL     1      51.222  -7.154   0.811  0.00  0.00    +0.029 A 
ATOM     19  C   UNL     1      49.882  -7.126   0.433  0.00  0.00    -0.005 A 
ENDROOT
BRANCH  19  20
ATOM     20  C   UNL     1      49.065  -8.184   0.827  0.00  0.00    -0.012 A 
ATOM     21  C   UNL     1      48.629  -9.132  -0.097  0.00  0.00    +0.047 A 
ATOM     22  C   UNL     1      47.840 -10.203   0.313  0.00  0.00    +0.127 A 
ATOM     23  F   UNL     1      47.422 -11.141  -0.558  0.00  0.00    -0.205 F 
ATOM     24  C   UNL     1      47.479 -10.336   1.649  0.00  0.00    +0.076 A 
ATOM     25  C   UNL     1      47.915  -9.394   2.571  0.00  0.00    +0.127 A 
ATOM     26  F   UNL     1      47.570  -9.546   3.864  0.00  0.00    -0.205 F 
ATOM     27  C   UNL     1      48.702  -8.319   2.164  0.00  0.00    +0.047 A 
ENDBRANCH  19  20
BRANCH   2   3
ATOM      3  C   UNL     1      46.860  -6.324  -0.745  0.00  0.00    +0.195 C 
ATOM      4  O   UNL     1      46.673  -7.145   0.152  0.00  0.00    -0.287 OA
BRANCH   3   5
ATOM      5  C   UNL     1      45.692  -5.870  -1.624  0.00  0.00    +0.026 A 
ATOM      6  C   UNL     1      44.830  -4.875  -1.172  0.00  0.00    +0.057 A 
ATOM      7  C   UNL     1      43.788  -4.430  -1.984  0.00  0.00    +0.121 A 
ATOM      8  C   UNL     1      43.611  -4.984  -3.249  0.00  0.00    +0.045 A 
ATOM      9  C   UNL     1      44.472  -5.982  -3.702  0.00  0.00    +0.004 A 
ATOM     12  C   UNL     1      45.512  -6.424  -2.890  0.00  0.00    +0.012 A 
BRANCH   7  10
ATOM     10  O   UNL     1      42.926  -3.485  -1.518  0.00  0.00    -0.495 OA
ATOM     11  C   UNL     1      43.327  -2.157  -1.868  0.00  0.00    +0.277 C 
ENDBRANCH   7  10
ENDBRANCH   3   5
ENDBRANCH   2   3
TORSDOF 4
