REMARK  Name = 3pp0_ligand
REMARK  11 active torsions:
REMARK  status: ('A' for Active; 'I' for Inactive)
REMARK    1  A    between atoms: O1_1  and  C2_2
REMARK    2  A    between atoms: C2_2  and  C3_3
REMARK    3  A    between atoms: C3_3  and  O4_4
REMARK    4  A    between atoms: O4_4  and  C5_5
REMARK    5  A    between atoms: C5_5  and  C6_6
REMARK    6  A    between atoms: C6_6  and  N7_7
REMARK    7  A    between atoms: C14_14  and  N15_15
REMARK    8  A    between atoms: N15_15  and  C16_16
REMARK    9  A    between atoms: C19_19  and  O20_20
REMARK   10  A    between atoms: O20_20  and  C21_21
REMARK   11  A    between atoms: C25_25  and  C27_27
REMARK                            x       y       z     vdW  Elec       q    Type
REMARK                         _______ _______ _______ _____ _____    ______ ____
ROOT
ATOM     11  N   UNL     1      16.633  14.129  27.253  0.00  0.00    -0.253 N 
ATOM     12  H   UNL     1      15.726  13.670  27.418  0.00  0.00    +0.215 HD
ENDROOT
BRANCH  11  10
ATOM      8  N   UNL     1      16.711  11.455  28.835  0.00  0.00    -0.251 N 
ATOM      9  C   UNL     1      17.710  12.358  28.525  0.00  0.00    +0.140 A 
ATOM     10  C   UNL     1      17.778  13.583  27.824  0.00  0.00    +0.169 A 
ATOM     31  N   UNL     1      18.965  14.211  27.729  0.00  0.00    -0.270 NA
ATOM     32  C   UNL     1      20.073  13.702  28.276  0.00  0.00    +0.142 A 
ATOM     33  N   UNL     1      20.060  12.566  28.947  0.00  0.00    -0.313 NA
ATOM     34  C   UNL     1      18.915  11.871  29.091  0.00  0.00    +0.039 A 
ATOM     35  C   UNL     1      18.570  10.621  29.744  0.00  0.00    -0.013 A 
ATOM     36  C   UNL     1      17.248  10.426  29.552  0.00  0.00    +0.136 A 
BRANCH   8   7
ATOM      7  C   UNL     1      15.287  11.504  28.425  0.00  0.00    +0.204 C 
BRANCH   7   6
ATOM      6  C   UNL     1      14.386  12.236  29.415  0.00  0.00    +0.192 C 
BRANCH   6   5
ATOM      5  O   UNL     1      14.282  13.578  28.949  0.00  0.00    -0.375 OA
BRANCH   5   4
ATOM      4  C   UNL     1      13.642  14.488  29.843  0.00  0.00    +0.188 C 
BRANCH   4   3
ATOM      3  C   UNL     1      12.701  15.432  29.083  0.00  0.00    +0.184 C 
BRANCH   3   1
ATOM      1  O   UNL     1      12.904  15.416  27.666  0.00  0.00    -0.393 OA
ATOM      2  H   UNL     1      12.756  14.538  27.336  0.00  0.00    +0.209 HD
ENDBRANCH   3   1
ENDBRANCH   4   3
ENDBRANCH   5   4
ENDBRANCH   6   5
ENDBRANCH   7   6
ENDBRANCH   8   7
ENDBRANCH  11  10
BRANCH  11  13
ATOM     13  C   UNL     1      16.674  15.283  26.461  0.00  0.00    +0.082 A 
ATOM     14  C   UNL     1      17.530  15.411  25.373  0.00  0.00    +0.052 A 
ATOM     15  C   UNL     1      17.491  16.602  24.657  0.00  0.00    +0.093 A 
ATOM     16 CL   UNL     1      18.530  16.801  23.292  0.00  0.00    -0.070 Cl
ATOM     17  C   UNL     1      16.613  17.627  25.038  0.00  0.00    +0.193 A 
ATOM     29  N   UNL     1      15.816  17.460  26.065  0.00  0.00    -0.281 NA
ATOM     30  C   UNL     1      15.830  16.347  26.775  0.00  0.00    +0.095 A 
BRANCH  17  18
ATOM     18  O   UNL     1      16.547  18.810  24.362  0.00  0.00    -0.238 OA
BRANCH  18  19
ATOM     19  C   UNL     1      17.383  19.853  24.657  0.00  0.00    +0.146 A 
ATOM     20  C   UNL     1      17.194  21.064  24.014  0.00  0.00    +0.078 A 
ATOM     21  C   UNL     1      18.032  22.139  24.278  0.00  0.00    +0.040 A 
ATOM     26  C   UNL     1      19.083  22.033  25.177  0.00  0.00    +0.037 A 
ATOM     27  C   UNL     1      19.283  20.819  25.810  0.00  0.00    +0.029 A 
ATOM     28  C   UNL     1      18.444  19.738  25.553  0.00  0.00    +0.082 A 
BRANCH  21  22
ATOM     22  C   UNL     1      17.817  23.452  23.592  0.00  0.00    +0.374 C 
ATOM     23  F   UNL     1      17.330  24.362  24.497  0.00  0.00    -0.221 F 
ATOM     24  F   UNL     1      19.036  23.876  23.071  0.00  0.00    -0.221 F 
ATOM     25  F   UNL     1      16.867  23.402  22.593  0.00  0.00    -0.221 F 
ENDBRANCH  21  22
ENDBRANCH  18  19
ENDBRANCH  17  18
ENDBRANCH  11  13
TORSDOF 11
