REMARK  Name = 3at3_ligand
REMARK  5 active torsions:
REMARK  status: ('A' for Active; 'I' for Inactive)
REMARK    1  A    between atoms: C14_6  and  N15_8
REMARK    2  A    between atoms: C36_14  and  C66_29
REMARK    3  A    between atoms: N44_18  and  C46_20
REMARK    4  A    between atoms: N44_18  and  C48_22
REMARK    5  A    between atoms: C66_29  and  C68_30
REMARK                            x       y       z     vdW  Elec       q    Type
REMARK                         _______ _______ _______ _____ _____    ______ ____
ROOT
ATOM      1  N   UNL     1      50.707   9.077  10.308  0.00  0.00    -0.285 NA
ATOM      2  C   UNL     1      50.722   8.500  11.498  0.00  0.00    +0.147 A 
ATOM      3  C   UNL     1      50.965   9.295  12.654  0.00  0.00    +0.186 A 
ATOM     13  N   UNL     1      51.182  10.595  12.527  0.00  0.00    -0.216 NA
ATOM     14  C   UNL     1      51.161  11.171  11.337  0.00  0.00    +0.198 A 
ATOM     15  N   UNL     1      51.389  12.524  11.258  0.00  0.00    -0.139 N 
ATOM     16  N   UNL     1      51.559  13.089  10.169  0.00  0.00    -0.193 NA
ATOM     17  C   UNL     1      51.703  14.410  10.308  0.00  0.00    +0.091 A 
ATOM     18  C   UNL     1      51.637  14.715  11.676  0.00  0.00    +0.005 A 
ATOM     19  C   UNL     1      51.728  15.916  12.367  0.00  0.00    -0.011 A 
ATOM     20  C   UNL     1      51.627  15.827  13.767  0.00  0.00    -0.002 A 
ATOM     21  C   UNL     1      51.450  14.570  14.404  0.00  0.00    +0.032 A 
ATOM     22  C   UNL     1      51.344  13.355  13.651  0.00  0.00    +0.029 A 
ATOM     30  C   UNL     1      51.441  13.450  12.246  0.00  0.00    +0.101 A 
ATOM     31  C   UNL     1      50.909  10.379  10.185  0.00  0.00    +0.147 A 
ENDROOT
BRANCH   3   4
ATOM      4  N   UNL     1      50.980   8.784  13.916  0.00  0.00    -0.229 N 
ATOM      5  C   UNL     1      50.586   7.471  14.401  0.00  0.00    +0.112 A 
ATOM      6  C   UNL     1      51.145   7.080  15.613  0.00  0.00    -0.048 A 
ATOM      7  C   UNL     1      51.535   8.286  16.200  0.00  0.00    -0.052 A 
ATOM     12  C   UNL     1      51.411   9.264  15.211  0.00  0.00    +0.102 A 
BRANCH   7   8
ATOM      8  C   UNL     1      51.982   8.447  17.622  0.00  0.00    +0.118 C 
BRANCH   8   9
ATOM      9  C   UNL     1      50.888   8.068  18.645  0.00  0.00    +0.041 C 
ATOM     10  O   UNL     1      50.108   7.147  18.380  0.00  0.00    -0.567 OA
ATOM     11  O   UNL     1      50.826   8.691  19.696  0.00  0.00    -0.567 OA
ENDBRANCH   8   9
ENDBRANCH   7   8
ENDBRANCH   3   4
BRANCH  21  23
ATOM     23  N   UNL     1      51.381  14.597  15.750  0.00  0.00    -0.321 N 
ATOM     24  H   UNL     1      51.151  15.473  16.220  0.00  0.00    +0.176 HD
BRANCH  23  25
ATOM     25  C   UNL     1      51.630  13.394  16.555  0.00  0.00    +0.090 C 
ATOM     26  C   UNL     1      52.576  13.726  17.725  0.00  0.00    +0.027 C 
ATOM     27  C   UNL     1      51.665  14.502  18.643  0.00  0.00    +0.002 C 
ATOM     28  C   UNL     1      50.365  13.685  18.553  0.00  0.00    +0.002 C 
ATOM     29  C   UNL     1      50.300  12.986  17.194  0.00  0.00    +0.027 C 
ENDBRANCH  23  25
ENDBRANCH  21  23
TORSDOF 5
