REMARK  Name = 3r7q_ligand
REMARK  3 active torsions:
REMARK  status: ('A' for Active; 'I' for Inactive)
REMARK    1  A    between atoms: N1_2  and  C13_17
REMARK    2  A    between atoms: N1_2  and  C19_23
REMARK    3  A    between atoms: C11_15  and  C12_16
REMARK                            x       y       z     vdW  Elec       q    Type
REMARK                         _______ _______ _______ _____ _____    ______ ____
ROOT
ATOM      1  C   UNL     1      16.488  62.554  21.242  0.00  0.00    -0.023 A 
ATOM      2  C   UNL     1      17.833  62.272  21.052  0.00  0.00    -0.007 A 
ATOM      3  C   UNL     1      18.464  61.291  21.822  0.00  0.00    +0.019 A 
ATOM      4  C   UNL     1      19.901  60.985  21.684  0.00  0.00    +0.040 A 
ATOM      5  C   UNL     1      20.578  60.206  22.631  0.00  0.00    -0.011 A 
ATOM      6  C   UNL     1      21.908  60.059  22.354  0.00  0.00    +0.005 A 
ATOM      7  C   UNL     1      22.346  60.686  21.220  0.00  0.00    +0.102 A 
ATOM     19  C   UNL     1      19.834  59.609  23.816  0.00  0.00    +0.246 C 
ATOM     20  O   UNL     1      18.419  59.639  23.571  0.00  0.00    -0.307 OA
ATOM     21  S   UNL     1      20.995  61.542  20.441  0.00  0.00    -0.033 S 
ATOM     22  C   UNL     1      17.780  60.583  22.815  0.00  0.00    +0.102 A 
ATOM     23  C   UNL     1      16.432  60.867  22.993  0.00  0.00    +0.020 A 
ATOM     24  C   UNL     1      15.793  61.834  22.212  0.00  0.00    -0.016 A 
ENDROOT
BRANCH   7   8
ATOM      8  C   UNL     1      23.754  60.632  20.807  0.00  0.00    +0.236 C 
ATOM      9  O   UNL     1      24.525  60.065  21.554  0.00  0.00    -0.380 OA
ATOM     10  N   UNL     1      24.244  61.212  19.684  0.00  0.00    -0.223 N 
ATOM     11  C   UNL     1      25.677  61.103  19.419  0.00  0.00    +0.209 C 
BRANCH  10  12
ATOM     12  C   UNL     1      23.444  61.934  18.780  0.00  0.00    +0.082 A 
ATOM     13  C   UNL     1      22.702  61.348  17.739  0.00  0.00    +0.059 A 
ATOM     14 CL   UNL     1      22.689  59.635  17.468  0.00  0.00    -0.083 Cl
ATOM     15  C   UNL     1      21.948  62.165  16.898  0.00  0.00    -0.003 A 
ATOM     16  C   UNL     1      21.918  63.547  17.075  0.00  0.00    -0.028 A 
ATOM     17  C   UNL     1      22.649  64.127  18.093  0.00  0.00    -0.017 A 
ATOM     18  C   UNL     1      23.406  63.320  18.934  0.00  0.00    +0.010 A 
ENDBRANCH  10  12
ENDBRANCH   7   8
TORSDOF 2
