REMARK  Name = 2xh5_ligand
REMARK  7 active torsions:
REMARK  status: ('A' for Active; 'I' for Inactive)
REMARK    1  A    between atoms: C4_4  and  N5_5
REMARK    2  A    between atoms: C4_4  and  C9_6
REMARK    3  A    between atoms: C9_6  and  C10_7
REMARK    4  A    between atoms: C13_10  and  C16_13
REMARK    5  A    between atoms: C16_13  and  C17_14
REMARK    6  A    between atoms: C16_13  and  C18_15
REMARK    7  A    between atoms: C16_13  and  C19_16
REMARK                            x       y       z     vdW  Elec       q    Type
REMARK                         _______ _______ _______ _____ _____    ______ ____
ROOT
ATOM      1  N   UNL     1      44.602  33.727 113.939  0.00  0.00    -0.287 N 
ATOM      2  C   UNL     1      44.868  35.033 114.392  0.00  0.00    +0.121 A 
ATOM      3  C   UNL     1      43.882  36.029 114.537  0.00  0.00    +0.043 A 
ATOM      4  C   UNL     1      42.529  36.161 114.353  0.00  0.00    -0.023 A 
ATOM      5  C   UNL     1      42.161  37.419 114.680  0.00  0.00    +0.117 A 
ATOM      6  N   UNL     1      43.265  38.088 115.068  0.00  0.00    -0.267 N 
ATOM      7  H   UNL     1      43.289  39.061 115.373  0.00  0.00    +0.232 HD
ATOM      8  C   UNL     1      44.341  37.261 114.988  0.00  0.00    +0.136 A 
ATOM      9  N   UNL     1      45.595  37.547 115.275  0.00  0.00    -0.277 NA
ATOM     10  C   UNL     1      46.436  36.533 115.098  0.00  0.00    +0.148 A 
ATOM     11  N   UNL     1      46.155  35.300 114.673  0.00  0.00    -0.273 NA
ATOM     12  C   UNL     1      45.618  32.671 114.037  0.00  0.00    +0.145 C 
ATOM     13  C   UNL     1      45.468  31.918 115.341  0.00  0.00    +0.086 C 
ATOM     14  C   UNL     1      44.016  31.490 115.639  0.00  0.00    +0.004 C 
ATOM     30  C   UNL     1      42.934  32.490 115.199  0.00  0.00    +0.086 C 
ATOM     31  C   UNL     1      43.255  33.168 113.892  0.00  0.00    +0.145 C 
ENDROOT
BRANCH  14  26
ATOM     26  N   UNL     1      43.925  31.436 117.144  0.00  0.00    +0.225 N 
ATOM     27  H   UNL     1      44.133  32.357 117.529  0.00  0.00    +0.200 HD
ATOM     28  H   UNL     1      44.598  30.758 117.500  0.00  0.00    +0.200 HD
ATOM     29  H   UNL     1      42.983  31.157 117.417  0.00  0.00    +0.200 HD
ENDBRANCH  14  26
BRANCH  14  15
ATOM     15  C   UNL     1      43.736  30.026 115.258  0.00  0.00    +0.154 C 
BRANCH  15  16
ATOM     16  C   UNL     1      43.293  29.680 113.856  0.00  0.00    -0.006 A 
ATOM     17  C   UNL     1      44.225  29.342 112.876  0.00  0.00    +0.037 A 
ATOM     18  C   UNL     1      43.814  29.003 111.603  0.00  0.00    +0.038 A 
ATOM     19  C   UNL     1      42.454  28.982 111.272  0.00  0.00    -0.057 A 
ATOM     24  C   UNL     1      41.527  29.311 112.262  0.00  0.00    +0.038 A 
ATOM     25  C   UNL     1      41.942  29.647 113.534  0.00  0.00    +0.037 A 
BRANCH  19  20
ATOM     20  C   UNL     1      41.985  28.595 109.846  0.00  0.00    -0.052 C 
ATOM     21  C   UNL     1      43.044  27.733 109.146  0.00  0.00    -0.050 C 
ATOM     22  C   UNL     1      41.719  29.838 108.993  0.00  0.00    -0.050 C 
ATOM     23  C   UNL     1      40.698  27.784 109.902  0.00  0.00    -0.050 C 
ENDBRANCH  19  20
ENDBRANCH  15  16
ENDBRANCH  14  15
TORSDOF 4
