REMARK  Name = 3RM7
REMARK  6 active torsions:
REMARK  status: ('A' for Active; 'I' for Inactive)
REMARK    1  A    between atoms: N_1  and  C_6
REMARK    2  A    between atoms: N_1  and  C_11
REMARK    3  A    between atoms: N_3  and  C_9
REMARK    4  A    between atoms: C_5  and  C_10
REMARK    5  A    between atoms: C_11  and  C_12
REMARK    6  A    between atoms: C_15  and  O_19
REMARK                            x       y       z     vdW  Elec       q    Type
REMARK                         _______ _______ _______ _____ _____    ______ ____
ROOT
ATOM     12  C   UNL     1     -65.103 -45.648 -47.980  0.00  0.00    +0.040 A 
ATOM     13  C   UNL     1     -65.348 -45.012 -46.703  0.00  0.00    +0.026 A 
ATOM     14  C   UNL     1     -66.629 -44.495 -46.379  0.00  0.00    +0.034 A 
ATOM     15  C   UNL     1     -67.705 -44.592 -47.310  0.00  0.00    +0.127 A 
ATOM     16  C   UNL     1     -67.474 -45.217 -48.573  0.00  0.00    +0.047 A 
ATOM     20  C   UNL     1     -66.194 -45.745 -48.924  0.00  0.00    +0.059 A 
ENDROOT
BRANCH  20  21
ATOM     21  C   UNL     1     -66.044 -46.328 -50.170  0.00  0.00    +0.243 C 
ATOM     22  O   UNL     1     -65.247 -47.222 -50.361  0.00  0.00    -0.270 OA
ATOM     23  N   UNL     1     -66.805 -45.872 -51.224  0.00  0.00    -0.325 N 
ATOM     24  H   UNL     1     -66.698 -46.315 -52.192  0.00  0.00    +0.145 HD
ATOM     25  H   UNL     1     -67.503 -45.075 -51.075  0.00  0.00    +0.145 HD
ENDBRANCH  20  21
BRANCH  15  17
ATOM     17  N   UNL     1     -68.866 -44.125 -47.020  0.00  0.00    +0.056 N 
ATOM     18  O   UNL     1     -69.086 -43.544 -45.852  0.00  0.00    -0.126 OA
ATOM     19  O   UNL     1     -69.873 -44.215 -47.886  0.00  0.00    -0.126 OA
ENDBRANCH  15  17
BRANCH  12   1
ATOM      1  N   UNL     1     -63.922 -46.128 -48.290  0.00  0.00    -0.339 N 
ATOM      2  H   UNL     1     -63.837 -46.701 -49.190  0.00  0.00    +0.146 HD
BRANCH   1   3
ATOM      3  C   UNL     1     -62.685 -45.929 -47.470  0.00  0.00    +0.137 C 
BRANCH   3   4
ATOM      4  C   UNL     1     -62.585 -46.990 -46.404  0.00  0.00    -0.030 A 
ATOM      5  C   UNL     1     -62.548 -46.608 -45.031  0.00  0.00    +0.009 A 
ATOM      6  C   UNL     1     -62.466 -47.601 -44.020  0.00  0.00    +0.045 A 
ATOM      7  C   UNL     1     -62.419 -48.981 -44.379  0.00  0.00    +0.117 A 
ATOM     10  C   UNL     1     -62.454 -49.364 -45.748  0.00  0.00    +0.045 A 
ATOM     11  C   UNL     1     -62.537 -48.371 -46.761  0.00  0.00    +0.009 A 
BRANCH   7   8
ATOM      8  O   UNL     1     -62.343 -49.927 -43.418  0.00  0.00    -0.507 OA
ATOM      9  H   UNL     1     -63.177 -50.561 -43.484  0.00  0.00    +0.292 HD
ENDBRANCH   7   8
ENDBRANCH   3   4
ENDBRANCH   1   3
ENDBRANCH  12   1
TORSDOF 6
