REMARK  Name = 2QSZ
REMARK  7 active torsions:
REMARK  status: ('A' for Active; 'I' for Inactive)
REMARK    1  A    between atoms: P_2  and  O_5
REMARK    2  A    between atoms: O_5  and  C_6
REMARK    3  A    between atoms: C_6  and  C_7
REMARK    4  A    between atoms: C_9  and  O_10
REMARK    5  A    between atoms: C_11  and  O_12
REMARK    6  A    between atoms: C_13  and  N_14
REMARK    7  A    between atoms: C_16  and  C_17
REMARK                            x       y       z     vdW  Elec       q    Type
REMARK                         _______ _______ _______ _____ _____    ______ ____
ROOT
ATOM      5  C   UNL     1      10.137 -16.435  -0.335  0.00  0.00    +0.178 C 
ATOM      6  C   UNL     1      10.936 -15.611   0.685  0.00  0.00    +0.178 C 
ATOM      7  C   UNL     1       9.918 -14.531   1.164  0.00  0.00    +0.193 C 
ATOM      8  C   UNL     1       8.679 -14.777   0.283  0.00  0.00    +0.241 C 
ATOM     24  O   UNL     1       8.744 -16.180  -0.060  0.00  0.00    -0.348 OA
ENDROOT
BRANCH   8   9
ATOM      9  N   UNL     1       7.358 -14.443   0.872  0.00  0.00    -0.285 N 
ATOM     10  C   UNL     1       7.003 -13.110   1.169  0.00  0.00    +0.073 C 
ATOM     11  C   UNL     1       5.751 -12.823   1.714  0.00  0.00    -0.007 C 
ATOM     12  C   UNL     1       4.847 -13.845   1.971  0.00  0.00    +0.070 C 
ATOM     13  C   UNL     1       5.187 -15.175   1.666  0.00  0.00    +0.032 C 
ATOM     19  C   UNL     1       6.437 -15.453   1.120  0.00  0.00    +0.086 C 
BRANCH  13  14
ATOM     14  C   UNL     1       4.185 -16.332   1.942  0.00  0.00    +0.239 C 
ATOM     15  N   UNL     1       4.403 -17.464   1.285  0.00  0.00    -0.326 N 
ATOM     16  H   UNL     1       3.751 -18.300   1.429  0.00  0.00    +0.145 HD
ATOM     17  H   UNL     1       5.231 -17.541   0.612  0.00  0.00    +0.145 HD
ATOM     18  O   UNL     1       3.235 -16.186   2.721  0.00  0.00    -0.271 OA
ENDBRANCH  13  14
ENDBRANCH   8   9
BRANCH   7  20
ATOM     20  O   UNL     1      10.366 -13.187   0.948  0.00  0.00    -0.385 OA
ATOM     21  H   UNL     1      11.262 -13.028   1.472  0.00  0.00    +0.210 HD
ENDBRANCH   7  20
BRANCH   6  22
ATOM     22  O   UNL     1      12.095 -15.107  -0.006  0.00  0.00    -0.386 OA
ATOM     23  H   UNL     1      12.666 -15.912  -0.365  0.00  0.00    +0.210 HD
ENDBRANCH   6  22
BRANCH   5   4
ATOM      4  C   UNL     1      10.440 -17.934  -0.174  0.00  0.00    +0.198 C 
BRANCH   4   3
ATOM      3  O   UNL     1       9.619 -18.625  -1.106  0.00  0.00    -0.365 OA
BRANCH   3   2
ATOM      1  O   UNL     1       9.185 -19.894  -3.254  0.00  0.00    -0.638 OA
ATOM      2  P   UNL     1      10.212 -19.093  -2.578  0.00  0.00    -0.015 P 
ATOM     25  O   UNL     1      11.545 -19.907  -2.279  0.00  0.00    -0.577 OA
ATOM     26  O   UNL     1      10.649 -17.795  -3.371  0.00  0.00    -0.577 OA
ENDBRANCH   3   2
ENDBRANCH   4   3
ENDBRANCH   5   4
TORSDOF 7
