REMARK  Name = 4a4x_ligand
REMARK  12 active torsions:
REMARK  status: ('A' for Active; 'I' for Inactive)
REMARK    1  A    between atoms: C01_1  and  C02_2
REMARK    2  A    between atoms: C02_2  and  O03_3
REMARK    3  A    between atoms: C02_2  and  C29_29
REMARK    4  A    between atoms: O03_3  and  C04_4
REMARK    5  A    between atoms: C06_6  and  C07_7
REMARK    6  A    between atoms: C09_9  and  C10_10
REMARK    7  A    between atoms: C12_12  and  C13_13
REMARK    8  A    between atoms: C13_13  and  N14_14
REMARK    9  A    between atoms: N14_14  and  C15_15
REMARK   10  A    between atoms: N14_14  and  C16_16
REMARK   11  A    between atoms: C25_25  and  C26_26
REMARK   12  A    between atoms: C34_34  and  C35_35
REMARK                            x       y       z     vdW  Elec       q    Type
REMARK                         _______ _______ _______ _____ _____    ______ ____
ROOT
ATOM     14  C   UNL     1       3.598  -9.170  14.216  0.00  0.00    +0.116 A 
ATOM     15  C   UNL     1       4.914  -8.691  14.389  0.00  0.00    +0.077 A 
ATOM     21  C   UNL     1       5.542  -7.943  13.375  0.00  0.00    +0.013 A 
ATOM     22  C   UNL     1       4.864  -7.681  12.169  0.00  0.00    -0.008 A 
ATOM     23  C   UNL     1       3.550  -8.144  11.982  0.00  0.00    -0.021 A 
ATOM     43  C   UNL     1       2.898  -8.890  13.013  0.00  0.00    +0.033 A 
ENDROOT
BRANCH  23  24
ATOM     24  C   UNL     1       2.864  -7.873  10.777  0.00  0.00    +0.028 A 
ATOM     25  C   UNL     1       2.765  -6.540  10.286  0.00  0.00    +0.120 A 
ATOM     26  N   UNL     1       3.389  -5.435  10.996  0.00  0.00    -0.320 N 
ATOM     27  H   UNL     1       3.911  -5.611  11.866  0.00  0.00    +0.179 HD
ATOM     28  H   UNL     1       3.309  -4.476  10.629  0.00  0.00    +0.179 HD
ATOM     29  N   UNL     1       2.090  -6.292   9.131  0.00  0.00    -0.283 NA
ATOM     30  C   UNL     1       1.510  -7.286   8.446  0.00  0.00    +0.083 A 
ATOM     31  C   UNL     1       1.569  -8.645   8.894  0.00  0.00    +0.004 A 
ATOM     42  C   UNL     1       2.265  -8.938  10.087  0.00  0.00    +0.031 A 
BRANCH  31  32
ATOM     32  C   UNL     1       0.968  -9.648   8.150  0.00  0.00    +0.031 A 
ATOM     33  S   UNL     1       0.749 -11.270   8.611  0.00  0.00    -0.053 S 
ATOM     34  C   UNL     1      -0.060 -11.890   7.233  0.00  0.00    +0.051 A 
ATOM     35  C   UNL     1      -0.101 -10.766   6.391  0.00  0.00    -0.016 A 
ATOM     41  C   UNL     1       0.432  -9.610   6.868  0.00  0.00    -0.020 A 
BRANCH  35  36
ATOM     36  C   UNL     1      -0.706 -10.909   4.966  0.00  0.00    +0.176 C 
BRANCH  36  37
ATOM     37  N   UNL     1      -2.126 -10.463   4.830  0.00  0.00    +0.240 N 
ATOM     38  H   UNL     1      -2.480 -10.127   5.712  0.00  0.00    +0.204 HD
ATOM     39  C   UNL     1      -2.919 -11.610   4.357  0.00  0.00    +0.191 C 
ATOM     40  C   UNL     1      -2.177  -9.420   3.833  0.00  0.00    +0.191 C 
ENDBRANCH  36  37
ENDBRANCH  35  36
ENDBRANCH  31  32
ENDBRANCH  23  24
BRANCH  15  16
ATOM     16  C   UNL     1       5.636  -8.964  15.641  0.00  0.00    +0.196 C 
ATOM     17  O   UNL     1       6.715  -8.476  15.810  0.00  0.00    -0.392 OA
ATOM     18  N   UNL     1       5.029  -9.818  16.644  0.00  0.00    -0.302 N 
ATOM     19  H   UNL     1       4.126 -10.216  16.482  0.00  0.00    +0.180 HD
ATOM     20  H   UNL     1       5.513 -10.009  17.498  0.00  0.00    +0.180 HD
ENDBRANCH  15  16
BRANCH  14  13
ATOM     13  O   UNL     1       2.976  -9.942  15.264  0.00  0.00    -0.291 OA
BRANCH  13   2
ATOM      1  C   UNL     1       1.224 -11.285  16.251  0.00  0.00    +0.069 C 
ATOM      2  C   UNL     1       1.889 -10.792  14.979  0.00  0.00    +0.218 C 
BRANCH   2   3
ATOM      3  C   UNL     1       2.138 -11.904  13.975  0.00  0.00    +0.024 A 
ATOM      4  C   UNL     1       1.137 -12.241  13.024  0.00  0.00    +0.052 A 
ATOM      9  C   UNL     1       1.385 -13.265  12.110  0.00  0.00    +0.044 A 
ATOM     10  C   UNL     1       2.638 -13.978  12.133  0.00  0.00    +0.026 A 
ATOM     11  C   UNL     1       3.615 -13.656  13.094  0.00  0.00    +0.043 A 
ATOM     12  C   UNL     1       3.350 -12.622  14.018  0.00  0.00    +0.037 A 
BRANCH   4   5
ATOM      5  C   UNL     1      -0.185 -11.483  12.927  0.00  0.00    +0.371 C 
ATOM      6  F   UNL     1      -0.908 -12.114  12.024  0.00  0.00    -0.226 F 
ATOM      7  F   UNL     1       0.031 -10.192  12.551  0.00  0.00    -0.226 F 
ATOM      8  F   UNL     1      -0.875 -11.433  14.088  0.00  0.00    -0.226 F 
ENDBRANCH   4   5
ENDBRANCH   2   3
ENDBRANCH  13   2
ENDBRANCH  14  13
TORSDOF 9
