REMARK  Name = 2r3f_ligand
REMARK  4 active torsions:
REMARK  status: ('A' for Active; 'I' for Inactive)
REMARK    1  A    between atoms: C07_7  and  C11_11
REMARK    2  A    between atoms: C09_9  and  N10_10
REMARK    3  A    between atoms: N10_10  and  C12_12
REMARK    4  A    between atoms: C12_12  and  C13_13
REMARK                            x       y       z     vdW  Elec       q    Type
REMARK                         _______ _______ _______ _____ _____    ______ ____
ROOT
ATOM      1  C   UNL     1      -0.543  31.288   8.050  0.00  0.00    -0.025 A 
ATOM      2  C   UNL     1       0.414  31.919   7.188  0.00  0.00    +0.041 A 
ATOM      3  N   UNL     1       1.475  31.112   6.918  0.00  0.00    -0.215 NA
ATOM      4  N   UNL     1       1.275  29.983   7.651  0.00  0.00    -0.114 N 
ATOM      5  C   UNL     1       2.109  28.899   7.778  0.00  0.00    +0.222 A 
ATOM     15  C   UNL     1       1.669  27.832   8.588  0.00  0.00    +0.064 A 
ATOM     16  C   UNL     1       0.385  27.927   9.236  0.00  0.00    +0.028 A 
ATOM     25  N   UNL     1      -0.414  28.993   9.166  0.00  0.00    -0.294 NA
ATOM     26  C   UNL     1       0.022  30.020   8.379  0.00  0.00    +0.145 A 
ENDROOT
BRANCH  16  17
ATOM     17  C   UNL     1      -0.033  26.845  10.161  0.00  0.00    +0.015 A 
ATOM     18  C   UNL     1      -0.237  25.521   9.747  0.00  0.00    +0.069 A 
ATOM     19 CL   UNL     1       0.040  25.055   8.162  0.00  0.00    -0.064 Cl
ATOM     20  C   UNL     1      -0.671  24.583  10.674  0.00  0.00    +0.059 A 
ATOM     21 CL   UNL     1      -0.948  22.979  10.206  0.00  0.00    -0.069 Cl
ATOM     22  C   UNL     1      -0.908  24.943  12.001  0.00  0.00    +0.022 A 
ATOM     23  C   UNL     1      -0.730  26.258  12.402  0.00  0.00    +0.007 A 
ATOM     24  C   UNL     1      -0.280  27.201  11.494  0.00  0.00    +0.019 A 
ENDBRANCH  16  17
BRANCH   5   6
ATOM      6  N   UNL     1       3.324  28.941   7.136  0.00  0.00    -0.257 N 
ATOM      7  H   UNL     1       3.504  29.625   6.388  0.00  0.00    +0.197 HD
BRANCH   6   8
ATOM      8  C   UNL     1       4.345  27.996   7.541  0.00  0.00    +0.221 C 
BRANCH   8   9
ATOM      9  C   UNL     1       4.469  26.860   6.588  0.00  0.00    +0.000 A 
ATOM     10  C   UNL     1       4.654  27.098   5.227  0.00  0.00    +0.035 A 
ATOM     11  C   UNL     1       4.757  25.995   4.360  0.00  0.00    +0.083 A 
ATOM     12  N   UNL     1       4.646  24.711   4.781  0.00  0.00    -0.307 NA
ATOM     13  C   UNL     1       4.481  24.502   6.100  0.00  0.00    +0.083 A 
ATOM     14  C   UNL     1       4.376  25.544   7.044  0.00  0.00    +0.035 A 
ENDBRANCH   8   9
ENDBRANCH   6   8
ENDBRANCH   5   6
TORSDOF 4
