REMARK  Name = 3LM0
REMARK  6 active torsions:
REMARK  status: ('A' for Active; 'I' for Inactive)
REMARK    1  A    between atoms: C_5  and  C_24
REMARK    2  A    between atoms: N_7  and  C_8
REMARK    3  A    between atoms: N_9  and  C_10
REMARK    4  A    between atoms: C_13  and  C_22
REMARK    5  A    between atoms: C_18  and  C_20
REMARK    6  A    between atoms: C_22  and  C_25
REMARK                            x       y       z     vdW  Elec       q    Type
REMARK                         _______ _______ _______ _____ _____    ______ ____
ROOT
ATOM      1  N   UNL     1      25.250  39.642   3.125  0.00  0.00    -0.334 N 
ATOM      2  H   UNL     1      25.951  39.082   2.542  0.00  0.00    +0.168 HD
ATOM      3  C   UNL     1      25.719  40.587   3.935  0.00  0.00    +0.092 A 
ATOM      4  C   UNL     1      24.822  41.311   4.730  0.00  0.00    +0.010 A 
ATOM      5  C   UNL     1      25.431  42.377   5.642  0.00  0.00    +0.049 C 
ATOM      6  C   UNL     1      23.434  41.032   4.609  0.00  0.00    +0.163 A 
ATOM      7  N   UNL     1      22.503  41.703   5.304  0.00  0.00    -0.209 NA
ATOM     17  N   UNL     1      23.045  40.057   3.729  0.00  0.00    -0.196 NA
ATOM     18  C   UNL     1      23.933  39.350   2.998  0.00  0.00    +0.199 A 
ATOM     19  N   UNL     1      23.589  38.356   2.124  0.00  0.00    -0.285 N 
ATOM     20  H   UNL     1      24.405  37.763   1.766  0.00  0.00    +0.155 HD
ENDROOT
BRANCH   7   8
ATOM      8  C   UNL     1      21.143  41.507   5.196  0.00  0.00    +0.151 A 
ATOM      9  C   UNL     1      20.358  40.910   4.252  0.00  0.00    +0.073 A 
ATOM     10  C   UNL     1      19.082  41.042   4.755  0.00  0.00    +0.068 A 
ATOM     14  N   UNL     1      19.126  41.703   5.914  0.00  0.00    -0.177 NA
ATOM     15  N   UNL     1      20.324  41.968   6.144  0.00  0.00    -0.260 N 
ATOM     16  H   UNL     1      20.658  42.506   7.007  0.00  0.00    +0.191 HD
BRANCH  10  11
ATOM     11  C   UNL     1      17.739  40.564   4.153  0.00  0.00    +0.040 C 
ATOM     12  C   UNL     1      17.803  40.297   2.635  0.00  0.00    +0.010 C 
ATOM     13  C   UNL     1      17.620  39.138   3.586  0.00  0.00    +0.010 C 
ENDBRANCH  10  11
ENDBRANCH   7   8
BRANCH  19  21
ATOM     21  C   UNL     1      22.377  38.011   1.646  0.00  0.00    +0.034 A 
ATOM     22  C   UNL     1      21.449  38.926   1.146  0.00  0.00    +0.023 A 
ATOM     23  C   UNL     1      20.219  38.466   0.657  0.00  0.00    +0.006 A 
ATOM     24  C   UNL     1      19.874  37.102   0.638  0.00  0.00    -0.034 A 
ATOM     28  C   UNL     1      20.820  36.170   1.095  0.00  0.00    +0.006 A 
ATOM     29  C   UNL     1      22.047  36.647   1.598  0.00  0.00    +0.023 A 
BRANCH  24  25
ATOM     25  C   UNL     1      18.516  36.613   0.054  0.00  0.00    +0.153 C 
BRANCH  25  26
ATOM     26  C   UNL     1      17.352  37.385   0.490  0.00  0.00    +0.067 C 
ATOM     27  N   UNL     1      16.440  37.966   0.877  0.00  0.00    -0.196 NA
ENDBRANCH  25  26
ENDBRANCH  24  25
ENDBRANCH  19  21
TORSDOF 5
