REMARK  Name = 6QHO
REMARK  2 active torsions:
REMARK  status: ('A' for Active; 'I' for Inactive)
REMARK    1  A    between atoms: C10_7  and  C11_8
REMARK    2  A    between atoms: C5_11  and  N2_17
REMARK                            x       y       z     vdW  Elec       q    Type
REMARK                         _______ _______ _______ _____ _____    ______ ____
ROOT
ATOM      1  C   UNL     1      85.100  76.443   4.814  0.00  0.00    +0.550 A 
ATOM      2  N   UNL     1      85.738  77.304   5.610  0.00  0.00    -0.250 N 
ATOM      3  N   UNL     1      86.308  76.669   6.740  0.00  0.00    -0.100 NA
ATOM      4  C   UNL     1      86.048  75.330   6.705  0.00  0.00    -0.050 A 
ATOM     15  N   UNL     1      84.407  76.512   3.654  0.00  0.00    -0.730 NA
ATOM     16  C   UNL     1      83.878  75.400   3.116  0.00  0.00    +0.630 A 
ATOM     17  N   UNL     1      83.998  74.181   3.672  0.00  0.00    -0.760 NA
ATOM     18  C   UNL     1      84.666  73.983   4.833  0.00  0.00    +0.430 A 
ATOM     19  N   UNL     1      84.772  72.742   5.367  0.00  0.00    -0.550 NA
ATOM     20  C   UNL     1      85.284  75.158   5.501  0.00  0.00    +0.050 A 
ENDROOT
BRANCH   2   5
ATOM      5  C   UNL     1      85.945  78.774   5.518  0.00  0.00    +0.000 C 
ATOM      6  C   UNL     1      85.091  79.499   6.558  0.00  0.00    +0.000 C 
ATOM      7  N   UNL     1      85.434  80.905   6.398  0.00  0.00    -0.250 N 
ATOM      8  C   UNL     1      86.784  81.252   6.799  0.00  0.00    +0.000 C 
ATOM      9  C   UNL     1      87.638  80.602   5.722  0.00  0.00    -0.100 C 
ATOM     10  C   UNL     1      84.605  81.826   5.916  0.00  0.00    +0.600 C 
ATOM     13  O   UNL     1      85.007  82.820   5.338  0.00  0.00    -0.550 OA
ATOM     14  C   UNL     1      87.420  79.095   5.732  0.00  0.00    -0.100 C 
BRANCH  10  11
ATOM     11  C   UNL     1      83.127  81.633   6.135  0.00  0.00    -0.100 C 
ATOM     12  C   UNL     1      82.622  82.889   6.812  0.00  0.00    -0.100 C 
ENDBRANCH  10  11
ENDBRANCH   2   5
TORSDOF 2
