REMARK  Name = 5IA4
REMARK  13 active torsions:
REMARK  status: ('A' for Active; 'I' for Inactive)
REMARK    1  A    between atoms: C_1  and  O_11
REMARK    2  A    between atoms: C_2  and  O_13
REMARK    3  A    between atoms: C_10  and  O_14
REMARK    4  A    between atoms: O_11  and  C_12
REMARK    5  A    between atoms: O_13  and  C_23
REMARK    6  A    between atoms: O_14  and  C_15
REMARK    7  A    between atoms: C_18  and  N_22
REMARK    8  A    between atoms: C_23  and  C_24
REMARK    9  A    between atoms: C_24  and  C_25
REMARK   10  A    between atoms: C_25  and  N_26
REMARK   11  A    between atoms: C_32  and  C_33
REMARK   12  A    between atoms: C_33  and  C_34
REMARK   13  A    between atoms: N_35  and  C_38
REMARK                            x       y       z     vdW  Elec       q    Type
REMARK                         _______ _______ _______ _____ _____    ______ ____
ROOT
ATOM      8  C   UNL     1      18.143  -7.098 104.054  0.00  0.00    +0.164 A 
ATOM      9  C   UNL     1      18.611  -8.388 104.300  0.00  0.00    +0.167 A 
ATOM     10  F   UNL     1      18.277  -9.356 103.405  0.00  0.00    -0.202 F 
ATOM     11  C   UNL     1      19.381  -8.669 105.445  0.00  0.00    +0.065 A 
ATOM     12  C   UNL     1      19.703  -7.644 106.354  0.00  0.00    +0.036 A 
ATOM     31  C   UNL     1      19.216  -6.358 106.080  0.00  0.00    +0.027 A 
ATOM     32  C   UNL     1      18.461  -6.089 104.945  0.00  0.00    +0.051 A 
ENDROOT
BRANCH  12  13
ATOM     13  N   UNL     1      20.423  -7.770 107.496  0.00  0.00    -0.285 N 
ATOM     14  H   UNL     1      20.248  -7.066 108.283  0.00  0.00    +0.155 HD
ATOM     15  C   UNL     1      21.353  -8.737 107.698  0.00  0.00    +0.232 C 
ATOM     16  O   UNL     1      21.696  -9.569 106.863  0.00  0.00    -0.274 OA
BRANCH  15  17
ATOM     17  C   UNL     1      22.047  -8.732 109.070  0.00  0.00    +0.123 C 
ATOM     18  C   UNL     1      22.472 -10.098 109.633  0.00  0.00    +0.027 C 
ATOM     19  C   UNL     1      23.539  -9.145 109.076  0.00  0.00    +0.027 C 
BRANCH  17  20
ATOM     20  C   UNL     1      21.538  -7.676 110.084  0.00  0.00    +0.232 C 
ATOM     21  O   UNL     1      20.680  -6.833 109.764  0.00  0.00    -0.274 OA
ATOM     22  N   UNL     1      22.098  -7.766 111.322  0.00  0.00    -0.285 N 
ATOM     23  H   UNL     1      22.821  -8.527 111.529  0.00  0.00    +0.155 HD
BRANCH  22  24
ATOM     24  C   UNL     1      21.739  -6.894 112.286  0.00  0.00    +0.034 A 
ATOM     25  C   UNL     1      22.722  -6.309 113.074  0.00  0.00    +0.026 A 
ATOM     26  C   UNL     1      22.354  -5.413 114.069  0.00  0.00    +0.040 A 
ATOM     27  C   UNL     1      21.016  -5.091 114.291  0.00  0.00    +0.124 A 
ATOM     28  F   UNL     1      20.638  -4.178 115.282  0.00  0.00    -0.205 F 
ATOM     29  C   UNL     1      20.033  -5.678 113.523  0.00  0.00    +0.040 A 
ATOM     30  C   UNL     1      20.404  -6.584 112.538  0.00  0.00    +0.026 A 
ENDBRANCH  22  24
ENDBRANCH  17  20
ENDBRANCH  15  17
ENDBRANCH  12  13
BRANCH   8   7
ATOM      7  O   UNL     1      17.374  -6.897 102.918  0.00  0.00    -0.452 OA
BRANCH   7   6
ATOM      1  C   UNL     1      15.184  -4.989  99.978  0.00  0.00    +0.162 A 
ATOM      4  C   UNL     1      15.947  -5.635 100.957  0.00  0.00    +0.063 A 
ATOM      5  C   UNL     1      15.296  -6.046 102.129  0.00  0.00    +0.046 A 
ATOM      6  C   UNL     1      16.027  -6.690 103.144  0.00  0.00    +0.139 A 
ATOM     33  C   UNL     1      15.364  -7.108 104.299  0.00  0.00    +0.066 A 
ATOM     34  C   UNL     1      13.991  -6.868 104.417  0.00  0.00    +0.115 A 
ATOM     35  N   UNL     1      13.279  -6.221 103.397  0.00  0.00    -0.255 NA
ATOM     36  C   UNL     1      13.920  -5.826 102.292  0.00  0.00    +0.078 A 
ATOM     37  C   UNL     1      13.168  -5.176 101.312  0.00  0.00    +0.077 A 
ATOM     38  C   UNL     1      13.828  -4.768 100.159  0.00  0.00    +0.164 A 
BRANCH   1   2
ATOM      2  O   UNL     1      15.665  -4.534  98.792  0.00  0.00    -0.491 OA
ATOM      3  C   UNL     1      17.046  -4.779  98.501  0.00  0.00    +0.277 C 
ENDBRANCH   1   2
BRANCH  38  39
ATOM     39  O   UNL     1      13.215  -4.125  99.130  0.00  0.00    -0.488 OA
BRANCH  39  40
ATOM     40  C   UNL     1      11.785  -3.973  99.270  0.00  0.00    +0.230 C 
BRANCH  40  41
ATOM     41  C   UNL     1      11.288  -3.405  97.936  0.00  0.00    +0.056 C 
BRANCH  41  42
ATOM     42  C   UNL     1      11.734  -1.936  97.875  0.00  0.00    +0.088 C 
BRANCH  42  43
ATOM     43  N   UNL     1      11.250  -1.264  96.660  0.00  0.00    -0.298 NA
ATOM     44  C   UNL     1      11.182   0.185  96.893  0.00  0.00    +0.112 C 
ATOM     45  C   UNL     1      10.705   0.900  95.629  0.00  0.00    +0.175 C 
ATOM     46  O   UNL     1      11.623   0.627  94.558  0.00  0.00    -0.377 OA
ATOM     47  C   UNL     1      11.640  -0.785  94.280  0.00  0.00    +0.175 C 
ATOM     48  C   UNL     1      12.137  -1.534  95.518  0.00  0.00    +0.112 C 
ENDBRANCH  42  43
ENDBRANCH  41  42
ENDBRANCH  40  41
ENDBRANCH  39  40
ENDBRANCH  38  39
ENDBRANCH   7   6
ENDBRANCH   8   7
TORSDOF 12
