REMARK  Name = 57C
REMARK  7 active torsions:
REMARK  status: ('A' for Active; 'I' for Inactive)
REMARK    1  A    between atoms: C4_4  and  C27_11
REMARK    2  A    between atoms: C3_5  and  C2_18
REMARK    3  A    between atoms: C11_6  and  N10_22
REMARK    4  A    between atoms: C13_8  and  S18_28
REMARK    5  A    between atoms: C7_9  and  C8_12
REMARK    6  A    between atoms: C1_15  and  C2_18
REMARK    7  A    between atoms: N21_23  and  S18_28
REMARK                            x       y       z     vdW  Elec       q    Type
REMARK                         _______ _______ _______ _____ _____    ______ ____
ROOT
ATOM      1  C   UNL     1      18.149  -4.827  -3.950  0.00  0.00    +0.003 A 
ATOM      2  C   UNL     1      17.432  -5.914  -4.447  0.00  0.00    +0.017 A 
ATOM      3  C   UNL     1      16.771  -5.842  -5.683  0.00  0.00    +0.075 A 
ATOM     19  C   UNL     1      16.846  -4.638  -6.417  0.00  0.00    +0.036 A 
ATOM     20  C   UNL     1      17.570  -3.549  -5.922  0.00  0.00    +0.124 A 
ATOM     31  C   UNL     1      18.214  -3.647  -4.686  0.00  0.00    +0.020 A 
ENDROOT
BRANCH   3   4
ATOM      4  N   UNL     1      16.099  -6.966  -6.084  0.00  0.00    -0.174 NA
ATOM      5  C   UNL     1      15.470  -7.106  -7.259  0.00  0.00    +0.286 C 
ATOM     18  O   UNL     1      15.382  -6.196  -8.072  0.00  0.00    -0.266 OA
BRANCH   5   6
ATOM      6  C   UNL     1      14.852  -8.407  -7.671  0.00  0.00    +0.132 A 
ATOM      7  C   UNL     1      15.322  -9.755  -7.220  0.00  0.00    +0.004 A 
ATOM     11  C   UNL     1      14.464 -10.640  -7.863  0.00  0.00    +0.046 A 
ATOM     15  C   UNL     1      13.524  -9.850  -8.692  0.00  0.00    +0.062 A 
ATOM     16  C   UNL     1      12.419 -10.338  -9.582  0.00  0.00    +0.052 C 
ATOM     17  N   UNL     1      13.825  -8.554  -8.519  0.00  0.00    -0.245 NA
BRANCH  11  12
ATOM     12  C   UNL     1      14.478 -12.134  -7.787  0.00  0.00    +0.174 C 
ATOM     13  C   UNL     1      15.783 -12.811  -7.512  0.00  0.00    +0.077 C 
ATOM     14  O   UNL     1      13.471 -12.798  -7.979  0.00  0.00    -0.291 OA
ENDBRANCH  11  12
BRANCH   7   8
ATOM      8  C   UNL     1      16.446 -10.064  -6.262  0.00  0.00    +0.028 C 
BRANCH   8   9
ATOM      9  C   UNL     1      15.836 -10.309  -4.882  0.00  0.00    +0.005 C 
ATOM     10  C   UNL     1      16.632 -11.298  -4.052  0.00  0.00    +0.000 C 
ENDBRANCH   8   9
ENDBRANCH   7   8
ENDBRANCH   5   6
ENDBRANCH   3   4
BRANCH  20  21
ATOM     21  S   UNL     1      17.651  -2.166  -6.740  0.00  0.00    +0.063 S 
ATOM     22  O   UNL     1      17.557  -1.090  -5.791  0.00  0.00    -0.153 OA
ATOM     30  O   UNL     1      16.555  -2.056  -7.667  0.00  0.00    -0.153 OA
BRANCH  21  23
ATOM     23  N   UNL     1      18.923  -2.013  -7.556  0.00  0.00    -0.156 NA
ATOM     24  C   UNL     1      20.088  -1.350  -6.986  0.00  0.00    +0.096 C 
ATOM     25  C   UNL     1      21.057  -2.451  -6.585  0.00  0.00    +0.019 C 
ATOM     26  C   UNL     1      22.049  -2.826  -7.683  0.00  0.00    +0.002 C 
ATOM     27  C   UNL     1      21.432  -2.808  -9.075  0.00  0.00    +0.002 C 
ATOM     28  C   UNL     1      20.066  -3.478  -9.090  0.00  0.00    +0.019 C 
ATOM     29  C   UNL     1      18.927  -2.480  -8.937  0.00  0.00    +0.096 C 
ENDBRANCH  21  23
ENDBRANCH  20  21
TORSDOF 7
