REMARK  Name = 4LUD
REMARK  2 active torsions:
REMARK  status: ('A' for Active; 'I' for Inactive)
REMARK    1  A    between atoms: C_6  and  C_7
REMARK    2  A    between atoms: C_8  and  C_15
REMARK                            x       y       z     vdW  Elec       q    Type
REMARK                         _______ _______ _______ _____ _____    ______ ____
ROOT
ATOM      3  C   UNL     1      10.487   3.417  76.585  0.00  0.00    +0.098 A 
ATOM      4  N   UNL     1      10.029   4.710  76.239  0.00  0.00    -0.221 NA
ATOM      5  C   UNL     1      11.131   5.434  75.958  0.00  0.00    +0.178 A 
ATOM      6  S   UNL     1      11.358   7.082  75.466  0.00  0.00    -0.058 S 
ATOM      7  C   UNL     1      13.145   6.918  75.253  0.00  0.00    +0.067 A 
ATOM      8  C   UNL     1      13.566   5.521  75.777  0.00  0.00    +0.101 A 
ATOM      9  N   UNL     1      12.326   4.702  76.089  0.00  0.00    -0.293 N 
ATOM     10  C   UNL     1      11.906   3.391  76.498  0.00  0.00    +0.082 A 
ENDROOT
BRANCH   3   2
ATOM      1  C   UNL     1       9.535   1.681  78.198  0.00  0.00    +0.013 A 
ATOM      2  C   UNL     1       9.509   2.338  76.956  0.00  0.00    +0.003 A 
ATOM     17  C   UNL     1       8.491   1.922  76.082  0.00  0.00    +0.013 A 
ATOM     18  C   UNL     1       7.563   0.927  76.401  0.00  0.00    +0.039 A 
ATOM     19  C   UNL     1       7.647   0.314  77.643  0.00  0.00    +0.123 A 
ATOM     20  F   UNL     1       6.760  -0.649  77.969  0.00  0.00    -0.205 F 
ATOM     21  C   UNL     1       8.628   0.678  78.555  0.00  0.00    +0.039 A 
ENDBRANCH   3   2
BRANCH  10  11
ATOM     11  C   UNL     1      12.831   2.272  76.766  0.00  0.00    +0.004 A 
ATOM     12  C   UNL     1      12.577   0.939  76.449  0.00  0.00    +0.029 A 
ATOM     13  C   UNL     1      13.541  -0.040  76.753  0.00  0.00    +0.111 A 
ATOM     14  N   UNL     1      14.725   0.222  77.353  0.00  0.00    -0.263 NA
ATOM     15  C   UNL     1      14.960   1.521  77.660  0.00  0.00    +0.111 A 
ATOM     16  C   UNL     1      14.053   2.554  77.390  0.00  0.00    +0.029 A 
ENDBRANCH  10  11
TORSDOF 2
