REMARK  Name = 4JT6
REMARK  6 active torsions:
REMARK  status: ('A' for Active; 'I' for Inactive)
REMARK    1  A    between atoms: C_8  and  C_10
REMARK    2  A    between atoms: C_10  and  N_11
REMARK    3  A    between atoms: C_10  and  N_17
REMARK    4  A    between atoms: N_17  and  C_18
REMARK    5  A    between atoms: C_18  and  C_19
REMARK    6  A    between atoms: C_23  and  O_24
REMARK                            x       y       z     vdW  Elec       q    Type
REMARK                         _______ _______ _______ _____ _____    ______ ____
ROOT
ATOM      5  C   UNL     1      51.731  -0.032 -48.166  0.00  0.00    +0.189 C 
ENDROOT
BRANCH   5   4
ATOM      1  N   UNL     1      47.430  -1.804 -46.861  0.00  0.00    -0.221 NA
ATOM      2  C   UNL     1      48.696  -1.298 -46.884  0.00  0.00    +0.228 A 
ATOM      3  O   UNL     1      49.445  -0.973 -47.956  0.00  0.00    -0.438 OA
ATOM      4  C   UNL     1      50.618  -0.517 -47.483  0.00  0.00    +0.148 A 
ATOM     22  C   UNL     1      50.617  -0.555 -46.100  0.00  0.00    +0.058 A 
ATOM     23  C   UNL     1      49.398  -1.047 -45.709  0.00  0.00    +0.040 A 
ATOM     24  C   UNL     1      48.886  -1.285 -44.442  0.00  0.00    +0.015 A 
ATOM     25  C   UNL     1      47.587  -1.807 -44.438  0.00  0.00    +0.020 A 
ATOM     26  C   UNL     1      46.889  -2.054 -45.646  0.00  0.00    +0.114 A 
ENDBRANCH   5   4
BRANCH   5  16
ATOM     16  N   UNL     1      51.791   0.009 -49.571  0.00  0.00    -0.270 NA
ATOM     17  C   UNL     1      52.917   0.812 -50.058  0.00  0.00    +0.115 C 
ATOM     18  C   UNL     1      53.109   0.439 -51.528  0.00  0.00    +0.175 C 
ATOM     19  O   UNL     1      51.899   0.624 -52.275  0.00  0.00    -0.377 OA
ATOM     20  C   UNL     1      50.704   0.089 -51.682  0.00  0.00    +0.175 C 
ATOM     21  C   UNL     1      50.582   0.520 -50.223  0.00  0.00    +0.115 C 
ENDBRANCH   5  16
BRANCH   5   6
ATOM      6  N   UNL     1      52.788   0.363 -47.407  0.00  0.00    -0.198 NA
BRANCH   6   7
ATOM      7  C   UNL     1      52.747   0.318 -46.039  0.00  0.00    +0.129 C 
BRANCH   7   8
ATOM      8  C   UNL     1      53.927   0.737 -45.224  0.00  0.00    -0.024 A 
ATOM      9  C   UNL     1      55.104   1.126 -45.851  0.00  0.00    +0.050 A 
ATOM     10  C   UNL     1      56.204   1.490 -45.077  0.00  0.00    +0.117 A 
ATOM     13  C   UNL     1      56.128   1.452 -43.679  0.00  0.00    +0.045 A 
ATOM     14  C   UNL     1      54.949   1.045 -43.054  0.00  0.00    +0.004 A 
ATOM     15  C   UNL     1      53.851   0.682 -43.830  0.00  0.00    +0.005 A 
BRANCH  10  11
ATOM     11  O   UNL     1      57.357   1.886 -45.690  0.00  0.00    -0.507 OA
ATOM     12  H   UNL     1      57.590   2.867 -45.398  0.00  0.00    +0.292 HD
ENDBRANCH  10  11
ENDBRANCH   7   8
ENDBRANCH   6   7
ENDBRANCH   5   6
TORSDOF 6
