REMARK  Name = 5NKB
REMARK  12 active torsions:
REMARK  status: ('A' for Active; 'I' for Inactive)
REMARK    1  A    between atoms: N_6  and  C_7
REMARK    2  A    between atoms: C_10  and  N_11
REMARK    3  A    between atoms: C_18  and  N_19
REMARK    4  A    between atoms: C_24  and  C_25
REMARK    5  A    between atoms: N_27  and  C_28
REMARK    6  A    between atoms: C_34  and  C_35
REMARK    7  A    between atoms: N_41  and  C_42
REMARK    8  A    between atoms: C_45  and  N_46
REMARK    9  A    between atoms: C_53  and  N_54
REMARK   10  A    between atoms: C_59  and  C_60
REMARK   11  A    between atoms: N_62  and  C_63
REMARK   12  A    between atoms: C_69  and  C_70
REMARK                            x       y       z     vdW  Elec       q    Type
REMARK                         _______ _______ _______ _____ _____    ______ ____
ROOT
ATOM      8  N   UNL     1     -86.873 -15.951   5.249  0.00  0.00    -0.294 N 
ATOM      9  H   UNL     1     -87.004 -15.503   4.286  0.00  0.00    +0.154 HD
ATOM     10  C   UNL     1     -87.955 -16.467   5.853  0.00  0.00    +0.163 A 
ATOM     11  N   UNL     1     -89.210 -16.330   5.373  0.00  0.00    -0.232 NA
ATOM     12  C   UNL     1     -90.157 -16.887   6.177  0.00  0.00    +0.133 A 
ATOM     13  C   UNL     1     -89.742 -17.460   7.344  0.00  0.00    +0.095 A 
ATOM     26  S   UNL     1     -88.061 -17.271   7.373  0.00  0.00    -0.048 S 
ENDROOT
BRANCH   8   7
ATOM      3  C   UNL     1     -83.252 -15.845   5.230  0.00  0.00    +0.033 A 
ATOM      4  C   UNL     1     -82.978 -15.941   6.581  0.00  0.00    +0.046 A 
ATOM      5  C   UNL     1     -83.973 -16.025   7.548  0.00  0.00    +0.033 A 
ATOM      6  C   UNL     1     -85.290 -16.035   7.136  0.00  0.00    +0.046 A 
ATOM      7  C   UNL     1     -85.614 -15.960   5.784  0.00  0.00    +0.036 A 
ATOM     33  C   UNL     1     -84.590 -15.840   4.813  0.00  0.00    +0.046 A 
BRANCH   3   2
ATOM      1  C   UNL     1     -82.411 -14.939   3.125  0.00  0.00    +0.133 C 
ATOM      2  N   UNL     1     -82.222 -15.707   4.330  0.00  0.00    -0.325 N 
ATOM     34  C   UNL     1     -80.852 -16.078   4.732  0.00  0.00    +0.133 C 
ATOM     35  C   UNL     1     -79.920 -16.252   3.523  0.00  0.00    +0.178 C 
ATOM     36  O   UNL     1     -80.065 -15.092   2.657  0.00  0.00    -0.377 OA
ATOM     37  C   UNL     1     -81.362 -15.243   2.042  0.00  0.00    +0.178 C 
ENDBRANCH   3   2
BRANCH   5  27
ATOM     27  N   UNL     1     -83.698 -16.133   8.871  0.00  0.00    -0.325 N 
ATOM     28  C   UNL     1     -84.715 -15.651   9.802  0.00  0.00    +0.133 C 
ATOM     29  C   UNL     1     -84.202 -15.544  11.232  0.00  0.00    +0.178 C 
ATOM     30  O   UNL     1     -83.367 -16.689  11.550  0.00  0.00    -0.377 OA
ATOM     31  C   UNL     1     -82.193 -16.736  10.719  0.00  0.00    +0.178 C 
ATOM     32  C   UNL     1     -82.586 -16.967   9.300  0.00  0.00    +0.133 C 
ENDBRANCH   5  27
ENDBRANCH   8   7
BRANCH  13  14
ATOM     14  C   UNL     1     -90.439 -18.095   8.359  0.00  0.00    +0.256 C 
ATOM     15  N   UNL     1     -91.728 -18.503   8.199  0.00  0.00    -0.280 N 
ATOM     16  H   UNL     1     -92.215 -18.358   7.257  0.00  0.00    +0.155 HD
ATOM     25  O   UNL     1     -89.864 -18.251   9.441  0.00  0.00    -0.269 OA
BRANCH  15  17
ATOM     17  C   UNL     1     -92.427 -19.111   9.253  0.00  0.00    +0.055 A 
ATOM     18  C   UNL     1     -92.634 -20.491   9.212  0.00  0.00    -0.028 A 
ATOM     19  C   UNL     1     -92.123 -21.220   8.120  0.00  0.00    +0.046 C 
ATOM     20  C   UNL     1     -93.351 -21.180  10.211  0.00  0.00    +0.005 A 
ATOM     21  C   UNL     1     -93.844 -20.413  11.286  0.00  0.00    +0.002 A 
ATOM     22  C   UNL     1     -93.665 -19.027  11.309  0.00  0.00    +0.022 A 
ATOM     23  C   UNL     1     -92.957 -18.360  10.296  0.00  0.00    +0.062 A 
ATOM     24 CL   UNL     1     -92.740 -16.635  10.410  0.00  0.00    -0.082 Cl
ENDBRANCH  15  17
ENDBRANCH  13  14
TORSDOF 5
