REMARK  Name = RMR
REMARK  7 active torsions:
REMARK  status: ('A' for Active; 'I' for Inactive)
REMARK    1  A    between atoms: C2_2  and  C7_7
REMARK    2  A    between atoms: C4_4  and  O20_20
REMARK    3  A    between atoms: C5_5  and  O18_18
REMARK    4  A    between atoms: C6_6  and  O16_16
REMARK    5  A    between atoms: N8_8  and  C9_9
REMARK    6  A    between atoms: C9_9  and  C10_10
REMARK    7  A    between atoms: C10_10  and  C11_11
REMARK                            x       y       z     vdW  Elec       q    Type
REMARK                         _______ _______ _______ _____ _____    ______ ____
ROOT
ATOM      1  C   UNL     1     -22.897  -6.027  80.229  0.00  0.00    +0.045 A 
ATOM      2  C   UNL     1     -21.627  -5.525  80.437  0.00  0.00    +0.176 A 
ATOM      5  C   UNL     1     -20.572  -6.003  79.703  0.00  0.00    +0.206 A 
ATOM      8  C   UNL     1     -20.751  -6.989  78.732  0.00  0.00    +0.176 A 
ATOM      9  C   UNL     1     -22.021  -7.486  78.511  0.00  0.00    +0.045 A 
ATOM     12  C   UNL     1     -23.076  -7.009  79.276  0.00  0.00    +0.061 A 
ENDROOT
BRANCH  12  13
ATOM     13  C   UNL     1     -24.458  -7.541  78.986  0.00  0.00    +0.265 C 
ATOM     14  O   UNL     1     -25.408  -7.127  79.561  0.00  0.00    -0.268 OA
ATOM     15  N   UNL     1     -24.545  -8.512  77.918  0.00  0.00    -0.202 NA
BRANCH  15  16
ATOM     16  C   UNL     1     -25.812  -9.071  77.501  0.00  0.00    +0.116 C 
BRANCH  16  17
ATOM     17  C   UNL     1     -25.805  -9.091  75.970  0.00  0.00    +0.034 C 
BRANCH  17  18
ATOM     18  C   UNL     1     -25.039  -7.894  75.393  0.00  0.00    +0.049 C 
ATOM     19  S   UNL     1     -25.549  -6.151  75.575  0.00  0.00    -0.141 S 
ATOM     20  C   UNL     1     -24.738  -5.671  74.228  0.00  0.00    +0.058 C 
ATOM     21  C   UNL     1     -23.745  -6.749  73.819  0.00  0.00    +0.013 C 
ATOM     22  C   UNL     1     -23.973  -8.000  74.565  0.00  0.00    +0.012 C 
ENDBRANCH  17  18
ENDBRANCH  16  17
ENDBRANCH  15  16
ENDBRANCH  12  13
BRANCH   2   3
ATOM      3  O   UNL     1     -21.382  -4.546  81.397  0.00  0.00    -0.468 OA
ATOM      4  C   UNL     1     -22.491  -4.097  82.124  0.00  0.00    +0.253 C 
ENDBRANCH   2   3
BRANCH   5   6
ATOM      6  O   UNL     1     -19.324  -5.448  79.951  0.00  0.00    -0.465 OA
ATOM      7  C   UNL     1     -18.603  -6.274  80.801  0.00  0.00    +0.253 C 
ENDBRANCH   5   6
BRANCH   8  10
ATOM     10  O   UNL     1     -19.662  -7.470  77.983  0.00  0.00    -0.468 OA
ATOM     11  C   UNL     1     -19.960  -8.490  77.069  0.00  0.00    +0.253 C 
ENDBRANCH   8  10
TORSDOF 7
