REMARK  Name = 4BC6
REMARK  13 active torsions:
REMARK  status: ('A' for Active; 'I' for Inactive)
REMARK    1  A    between atoms: C_1  and  O_20
REMARK    2  A    between atoms: O_2  and  C_22
REMARK    3  A    between atoms: O_2  and  C_35
REMARK    4  A    between atoms: C_3  and  C_11
REMARK    5  A    between atoms: C_3  and  N_32
REMARK    6  A    between atoms: C_7  and  C_25
REMARK    7  A    between atoms: C_11  and  C_12
REMARK    8  A    between atoms: C_12  and  O_21
REMARK    9  A    between atoms: C_13  and  N_34
REMARK   10  A    between atoms: N_19  and  C_26
REMARK   11  A    between atoms: N_19  and  C_29
REMARK   12  A    between atoms: O_20  and  C_27
REMARK   13  A    between atoms: O_21  and  C_28
REMARK                            x       y       z     vdW  Elec       q    Type
REMARK                         _______ _______ _______ _____ _____    ______ ____
ROOT
ATOM      3  C   UNL     1      -4.667 -18.781  20.913  0.00  0.00    +0.162 A 
ATOM      4  C   UNL     1      -4.505 -18.944  22.394  0.00  0.00    +0.164 A 
ATOM     16  C   UNL     1      -5.658 -18.999  23.188  0.00  0.00    +0.077 A 
ATOM     17  C   UNL     1      -6.925 -18.978  22.605  0.00  0.00    +0.073 A 
ATOM     18  C   UNL     1      -7.079 -18.853  21.206  0.00  0.00    +0.009 A 
ATOM     19  C   UNL     1      -8.374 -18.806  20.658  0.00  0.00    +0.112 C 
ATOM     20  C   UNL     1      -9.476 -18.917  21.538  0.00  0.00    +0.145 C 
ATOM     21  C   UNL     1      -9.259 -19.035  22.918  0.00  0.00    +0.110 C 
ATOM     36  N   UNL     1      -8.010 -19.048  23.418  0.00  0.00    -0.258 NA
ATOM     37  C   UNL     1      -5.955 -18.748  20.374  0.00  0.00    +0.057 A 
ENDROOT
BRANCH   3   2
ATOM      1  C   UNL     1      -3.079 -19.958  19.529  0.00  0.00    +0.277 C 
ATOM      2  O   UNL     1      -3.578 -18.736  20.078  0.00  0.00    -0.491 OA
ENDBRANCH   3   2
BRANCH  20  22
ATOM     22  C   UNL     1     -10.687 -19.022  21.114  0.00  0.00    +0.080 C 
ATOM     23  N   UNL     1     -11.759 -19.158  20.704  0.00  0.00    -0.196 NA
ENDBRANCH  20  22
BRANCH  19  24
ATOM     24  N   UNL     1      -8.481 -18.661  19.303  0.00  0.00    -0.330 N 
ATOM     25  H   UNL     1      -7.759 -19.182  18.709  0.00  0.00    +0.147 HD
BRANCH  24  26
ATOM     26  C   UNL     1      -9.404 -17.927  18.628  0.00  0.00    +0.031 A 
ATOM     27  C   UNL     1      -9.963 -18.532  17.504  0.00  0.00    +0.046 A 
ATOM     28  C   UNL     1     -10.946 -17.869  16.773  0.00  0.00    +0.086 A 
ATOM     29  C   UNL     1     -11.428 -16.638  17.191  0.00  0.00    +0.157 A 
ATOM     30  C   UNL     1     -10.896 -16.033  18.316  0.00  0.00    +0.086 A 
ATOM     31 CL   UNL     1     -11.558 -14.434  18.777  0.00  0.00    -0.080 Cl
ATOM     34 CL   UNL     1     -11.613 -18.630  15.299  0.00  0.00    -0.080 Cl
ATOM     35  C   UNL     1      -9.861 -16.654  19.030  0.00  0.00    +0.046 A 
BRANCH  29  32
ATOM     32  O   UNL     1     -12.367 -15.975  16.446  0.00  0.00    -0.492 OA
ATOM     33  C   UNL     1     -13.764 -16.259  16.531  0.00  0.00    +0.277 C 
ENDBRANCH  29  32
ENDBRANCH  24  26
ENDBRANCH  19  24
BRANCH   4   5
ATOM      5  O   UNL     1      -3.254 -18.927  22.972  0.00  0.00    -0.488 OA
BRANCH   5   6
ATOM      6  C   UNL     1      -2.835 -19.886  23.942  0.00  0.00    +0.230 C 
BRANCH   6   7
ATOM      7  C   UNL     1      -1.606 -20.609  23.426  0.00  0.00    +0.056 C 
BRANCH   7   8
ATOM      8  C   UNL     1      -0.428 -20.357  24.360  0.00  0.00    +0.088 C 
BRANCH   8   9
ATOM      9  N   UNL     1       0.715 -21.076  23.815  0.00  0.00    -0.300 NA
ATOM     10  C   UNL     1       1.654 -20.325  22.972  0.00  0.00    +0.100 C 
ATOM     11  C   UNL     1       2.766 -21.281  22.540  0.00  0.00    +0.099 C 
ATOM     12  N   UNL     1       3.227 -21.950  23.756  0.00  0.00    -0.303 NA
ATOM     13  C   UNL     1       2.325 -22.731  24.612  0.00  0.00    +0.099 C 
ATOM     14  C   UNL     1       4.633 -21.828  24.118  0.00  0.00    +0.105 C 
ATOM     15  C   UNL     1       0.886 -22.503  24.135  0.00  0.00    +0.100 C 
ENDBRANCH   8   9
ENDBRANCH   7   8
ENDBRANCH   6   7
ENDBRANCH   5   6
ENDBRANCH   4   5
TORSDOF 10
