REMARK  Name = HC7
REMARK  9 active torsions:
REMARK  status: ('A' for Active; 'I' for Inactive)
REMARK    1  A    between atoms: CBE_8  and  CBD_10
REMARK    2  A    between atoms: CBC_15  and  CBB_16
REMARK    3  A    between atoms: CBA_21  and  CAZ_22
REMARK    4  A    between atoms: CAZ_22  and  CAV_24
REMARK    5  A    between atoms: CAV_24  and  NBF_25
REMARK    6  A    between atoms: NBF_25  and  CAU_28
REMARK    7  A    between atoms: CAU_28  and  CAS_29
REMARK    8  A    between atoms: CAS_29  and  OAY_30
REMARK    9  A    between atoms: OAY_30  and  PBH_31
REMARK                            x       y       z     vdW  Elec       q    Type
REMARK                         _______ _______ _______ _____ _____    ______ ____
ROOT
ATOM      7  C   UNL     1      22.568  59.334   2.469  0.00  0.00    +0.000 A 
ATOM      8  C   UNL     1      22.532  58.039   2.979  0.00  0.00    +0.000 A 
ATOM      9  C   UNL     1      21.579  57.652   3.921  0.00  0.00    +0.003 A 
ATOM     10  C   UNL     1      20.593  58.539   4.374  0.00  0.00    +0.033 A 
ATOM     24  C   UNL     1      20.613  59.837   3.855  0.00  0.00    +0.003 A 
ATOM     25  C   UNL     1      21.599  60.226   2.940  0.00  0.00    +0.000 A 
ENDROOT
BRANCH   7   6
ATOM      3  C   UNL     1      25.475  60.606  -0.365  0.00  0.00    +0.029 A 
ATOM      4  C   UNL     1      24.994  61.496   0.595  0.00  0.00    +0.000 A 
ATOM      5  C   UNL     1      24.033  61.057   1.526  0.00  0.00    -0.000 A 
ATOM      6  C   UNL     1      23.535  59.749   1.523  0.00  0.00    -0.000 A 
ATOM     26  C   UNL     1      24.010  58.871   0.543  0.00  0.00    -0.000 A 
ATOM     27  C   UNL     1      24.974  59.307  -0.397  0.00  0.00    +0.000 A 
BRANCH   3   2
ATOM      1  C   UNL     1      25.743  61.178  -2.737  0.00  0.00    -0.008 C 
ATOM      2  C   UNL     1      26.521  61.056  -1.402  0.00  0.00    +0.220 C 
ATOM     28  O   UNL     1      27.122  62.304  -1.036  0.00  0.00    -0.193 OA
ATOM     29  O   UNL     1      27.520  60.039  -1.494  0.00  0.00    -0.333 OA
ATOM     30  C   UNL     1      28.406  60.284  -2.606  0.00  0.00    +0.123 C 
ATOM     31  C   UNL     1      27.702  60.438  -3.982  0.00  0.00    -0.040 C 
ATOM     32  N   UNL     1      26.604  61.430  -3.908  0.00  0.00    +0.392 N 
ATOM     33  C   UNL     1      27.136  62.791  -3.888  0.00  0.00    -0.096 C 
ATOM     34  C   UNL     1      25.776  61.291  -5.116  0.00  0.00    -0.096 C 
ENDBRANCH   3   2
ENDBRANCH   7   6
BRANCH  10  11
ATOM     11  C   UNL     1      19.516  58.156   5.371  0.00  0.00    +0.153 C 
ATOM     23  O   UNL     1      18.530  58.885   5.569  0.00  0.00    -0.293 OA
BRANCH  11  12
ATOM     12  C   UNL     1      19.672  56.869   6.157  0.00  0.00    -0.002 C 
BRANCH  12  13
ATOM     13  N   UNL     1      18.911  56.820   7.424  0.00  0.00    +0.394 N 
ATOM     21  C   UNL     1      19.215  55.497   8.067  0.00  0.00    -0.095 C 
ATOM     22  C   UNL     1      17.441  56.789   7.186  0.00  0.00    -0.095 C 
BRANCH  13  14
ATOM     14  C   UNL     1      19.217  57.964   8.321  0.00  0.00    -0.039 C 
BRANCH  14  15
ATOM     15  C   UNL     1      20.549  57.922   9.037  0.00  0.00    +0.132 C 
BRANCH  15  16
ATOM     16  O   UNL     1      21.545  57.840   8.108  0.00  0.00    -0.273 OA
BRANCH  16  17
ATOM     17  P   UNL     1      22.988  57.344   8.467  0.00  0.00    +0.532 P 
ATOM     18  O   UNL     1      23.574  58.219   9.513  0.00  0.00    -0.115 OA
ATOM     19  O   UNL     1      23.020  55.836   8.787  0.00  0.00    -0.115 OA
ATOM     20  O   UNL     1      23.744  57.507   7.145  0.00  0.00    -0.222 OA
ENDBRANCH  16  17
ENDBRANCH  15  16
ENDBRANCH  14  15
ENDBRANCH  13  14
ENDBRANCH  12  13
ENDBRANCH  11  12
ENDBRANCH  10  11
TORSDOF 9
