REMARK  Name = 3vnt_ligand
REMARK  7 active torsions:
REMARK  status: ('A' for Active; 'I' for Inactive)
REMARK    1  A    between atoms: C5_5  and  O6_6
REMARK    2  A    between atoms: O6_6  and  C7_7
REMARK    3  A    between atoms: C14_14  and  C16_16
REMARK    4  A    between atoms: C23_23  and  N24_24
REMARK    5  A    between atoms: C25_25  and  C27_27
REMARK    6  A    between atoms: C31_31  and  C34_34
REMARK    7  A    between atoms: C34_34  and  C37_37
REMARK                            x       y       z     vdW  Elec       q    Type
REMARK                         _______ _______ _______ _____ _____    ______ ____
ROOT
ATOM      1  F   UNL     1      31.088 -30.623 -12.461  0.00  0.00    -0.202 F 
ATOM      2  C   UNL     1      29.760 -30.358 -12.437  0.00  0.00    +0.141 A 
ATOM      3  C   UNL     1      29.051 -30.451 -13.606  0.00  0.00    +0.092 A 
ATOM     20  C   UNL     1      27.693 -30.204 -13.603  0.00  0.00    +0.032 A 
ATOM     21  C   UNL     1      27.073 -29.837 -12.422  0.00  0.00    +0.101 A 
ATOM     39  C   UNL     1      27.788 -29.737 -11.249  0.00  0.00    -0.003 A 
ATOM     40  C   UNL     1      29.142 -30.000 -11.261  0.00  0.00    +0.005 A 
ENDROOT
BRANCH   3   4
ATOM      4  N   UNL     1      29.781 -30.837 -14.743  0.00  0.00    -0.234 N 
ATOM      5  H   UNL     1      30.595 -31.405 -14.624  0.00  0.00    +0.224 HD
ATOM      6  C   UNL     1      29.417 -30.463 -16.007  0.00  0.00    +0.239 C 
ATOM     19  O   UNL     1      28.432 -29.790 -16.282  0.00  0.00    -0.373 OA
BRANCH   6   7
ATOM      7  C   UNL     1      30.195 -31.037 -17.127  0.00  0.00    +0.099 A 
ATOM      8  C   UNL     1      30.551 -30.285 -18.233  0.00  0.00    +0.089 A 
ATOM      9 CL   UNL     1      30.165 -28.603 -18.318  0.00  0.00    -0.035 Cl
ATOM     10  C   UNL     1      31.231 -30.858 -19.295  0.00  0.00    -0.003 A 
ATOM     16  C   UNL     1      31.545 -32.199 -19.208  0.00  0.00    +0.054 A 
ATOM     17  C   UNL     1      31.201 -32.949 -18.107  0.00  0.00    +0.043 A 
ATOM     18  C   UNL     1      30.509 -32.374 -17.063  0.00  0.00    +0.076 A 
BRANCH  10  11
ATOM     11  C   UNL     1      31.617 -30.080 -20.495  0.00  0.00    +0.085 C 
ATOM     14  C   UNL     1      30.496 -29.807 -21.471  0.00  0.00    -0.016 C 
ATOM     15  C   UNL     1      31.571 -30.785 -21.825  0.00  0.00    -0.016 C 
BRANCH  11  12
ATOM     12  C   UNL     1      32.580 -29.041 -20.409  0.00  0.00    +0.056 C 
ATOM     13  N   UNL     1      33.374 -28.203 -20.327  0.00  0.00    -0.314 NA
ENDBRANCH  11  12
ENDBRANCH  10  11
ENDBRANCH   6   7
ENDBRANCH   3   4
BRANCH  21  22
ATOM     22  O   UNL     1      25.693 -29.630 -12.424  0.00  0.00    -0.252 OA
BRANCH  22  23
ATOM     23  C   UNL     1      25.126 -28.391 -12.201  0.00  0.00    +0.174 A 
ATOM     24  N   UNL     1      23.838 -28.475 -11.859  0.00  0.00    -0.266 NA
ATOM     25  C   UNL     1      23.264 -27.295 -11.643  0.00  0.00    +0.107 A 
ATOM     26  S   UNL     1      21.608 -27.149 -11.194  0.00  0.00    +0.045 S 
ATOM     27  C   UNL     1      21.843 -25.437 -11.171  0.00  0.00    +0.212 A 
ATOM     28  N   UNL     1      20.800 -24.585 -10.845  0.00  0.00    -0.190 N 
ATOM     29  H   UNL     1      20.935 -23.599 -10.943  0.00  0.00    +0.244 HD
ATOM     30  C   UNL     1      19.590 -25.044 -10.393  0.00  0.00    +0.221 C 
ATOM     34  O   UNL     1      19.253 -26.209 -10.241  0.00  0.00    -0.378 OA
ATOM     35  N   UNL     1      23.050 -25.005 -11.476  0.00  0.00    -0.309 NA
ATOM     36  C   UNL     1      23.878 -26.064 -11.753  0.00  0.00    +0.024 A 
ATOM     37  C   UNL     1      25.210 -26.018 -12.121  0.00  0.00    +0.012 A 
ATOM     38  C   UNL     1      25.838 -27.226 -12.355  0.00  0.00    +0.044 A 
BRANCH  30  31
ATOM     31  C   UNL     1      18.664 -23.944 -10.078  0.00  0.00    +0.112 C 
ATOM     32  C   UNL     1      17.749 -24.025  -8.886  0.00  0.00    +0.029 C 
ATOM     33  C   UNL     1      17.186 -24.146 -10.266  0.00  0.00    +0.029 C 
ENDBRANCH  30  31
ENDBRANCH  22  23
ENDBRANCH  21  22
TORSDOF 7
