REMARK  Name = 3rmf_ligand
REMARK  6 active torsions:
REMARK  status: ('A' for Active; 'I' for Inactive)
REMARK    1  A    between atoms: N02_2  and  C08_8
REMARK    2  A    between atoms: N03_3  and  C06_6
REMARK    3  A    between atoms: N04_4  and  S29_29
REMARK    4  A    between atoms: C05_5  and  C09_9
REMARK    5  A    between atoms: C09_9  and  C10_10
REMARK    6  A    between atoms: C18_18  and  S29_29
REMARK                            x       y       z     vdW  Elec       q    Type
REMARK                         _______ _______ _______ _____ _____    ______ ____
ROOT
ATOM      1  N   UNL     1      92.333  81.931 -51.081  0.00  0.00    -0.272 NA
ATOM      2  C   UNL     1      92.094  81.839 -49.792  0.00  0.00    +0.204 A 
ATOM      3  S   UNL     1      93.157  80.774 -48.926  0.00  0.00    +0.010 S 
ATOM      4  C   UNL     1      94.005  80.403 -50.386  0.00  0.00    +0.092 A 
ATOM     17  N   UNL     1      91.119  82.539 -49.263  0.00  0.00    -0.233 N 
ATOM     18  H   UNL     1      90.902  83.418 -49.754  0.00  0.00    +0.224 HD
ATOM     31  C   UNL     1      93.411  81.125 -51.431  0.00  0.00    +0.085 A 
ENDROOT
BRANCH  17  19
ATOM     19  C   UNL     1      90.381  82.301 -48.216  0.00  0.00    +0.070 A 
ATOM     20  C   UNL     1      90.581  81.197 -47.307  0.00  0.00    +0.019 A 
ATOM     21  C   UNL     1      89.721  81.019 -46.195  0.00  0.00    +0.016 A 
ATOM     22  C   UNL     1      88.654  81.935 -45.970  0.00  0.00    +0.097 A 
ATOM     29  C   UNL     1      88.452  83.026 -46.857  0.00  0.00    +0.016 A 
ATOM     30  C   UNL     1      89.306  83.207 -47.966  0.00  0.00    +0.019 A 
BRANCH  22  23
ATOM     23  S   UNL     1      87.553  81.709 -44.585  0.00  0.00    +0.061 S 
ATOM     24  O   UNL     1      87.076  82.998 -44.105  0.00  0.00    -0.152 OA
ATOM     25  O   UNL     1      86.436  80.906 -45.036  0.00  0.00    -0.152 OA
BRANCH  23  26
ATOM     26  N   UNL     1      88.344  80.885 -43.345  0.00  0.00    -0.262 NA
ATOM     27  H   UNL     1      89.296  80.603 -43.460  0.00  0.00    +0.163 HD
ATOM     28  H   UNL     1      87.861  80.679 -42.494  0.00  0.00    +0.163 HD
ENDBRANCH  23  26
ENDBRANCH  22  23
ENDBRANCH  17  19
BRANCH  31  32
ATOM     32  N   UNL     1      93.817  81.060 -52.635  0.00  0.00    -0.332 N 
ATOM     33  H   UNL     1      93.346  81.609 -53.368  0.00  0.00    +0.175 HD
ATOM     34  H   UNL     1      94.617  80.458 -52.877  0.00  0.00    +0.175 HD
ENDBRANCH  31  32
BRANCH   4   5
ATOM      5  C   UNL     1      95.105  79.526 -50.494  0.00  0.00    +0.130 C 
ATOM      6  O   UNL     1      95.642  79.359 -51.580  0.00  0.00    -0.403 OA
BRANCH   5   7
ATOM      7  C   UNL     1      95.626  78.868 -49.383  0.00  0.00    +0.024 A 
ATOM      8  C   UNL     1      94.782  78.128 -48.484  0.00  0.00    +0.033 A 
ATOM      9  C   UNL     1      95.323  77.467 -47.334  0.00  0.00    -0.012 A 
ATOM     10  C   UNL     1      94.490  76.735 -46.429  0.00  0.00    +0.012 A 
ATOM     11  C   UNL     1      95.046  76.088 -45.288  0.00  0.00    +0.002 A 
ATOM     12  C   UNL     1      96.442  76.164 -45.035  0.00  0.00    +0.003 A 
ATOM     13  C   UNL     1      97.292  76.886 -45.924  0.00  0.00    +0.010 A 
ATOM     14  C   UNL     1      96.754  77.544 -47.078  0.00  0.00    -0.015 A 
ATOM     15  C   UNL     1      97.586  78.277 -47.983  0.00  0.00    +0.012 A 
ATOM     16  C   UNL     1      97.033  78.931 -49.119  0.00  0.00    +0.019 A 
ENDBRANCH   5   7
ENDBRANCH   4   5
TORSDOF 6
