REMARK  Name = 5TUR
REMARK  3 active torsions:
REMARK  status: ('A' for Active; 'I' for Inactive)
REMARK    1  A    between atoms: C_3  and  C_8
REMARK    2  A    between atoms: C_12  and  N_23
REMARK    3  A    between atoms: C_19  and  N_21
REMARK                            x       y       z     vdW  Elec       q    Type
REMARK                         _______ _______ _______ _____ _____    ______ ____
ROOT
ATOM      1  C   UNL     1      25.882  47.678   3.278  0.00  0.00    +0.021 C 
ATOM      2  C   UNL     1      25.659  47.371   1.946  0.00  0.00    +0.131 C 
ATOM      5  C   UNL     1      25.917  48.270   1.000  0.00  0.00    +0.023 A 
ATOM      6  C   UNL     1      26.391  49.477   1.319  0.00  0.00    +0.139 A 
ATOM      7  N   UNL     1      26.560  50.175   0.207  0.00  0.00    -0.328 N 
ATOM      8  C   UNL     1      27.090  51.556   0.412  0.00  0.00    +0.151 C 
ATOM      9  C   UNL     1      26.190  49.385  -0.810  0.00  0.00    +0.051 A 
ATOM     10  C   UNL     1      26.175  49.657  -2.122  0.00  0.00    -0.002 C 
ATOM     11  C   UNL     1      25.749  48.673  -3.010  0.00  0.00    +0.008 C 
ATOM     12  C   UNL     1      25.711  48.922  -4.379  0.00  0.00    +0.002 C 
ATOM     13  C   UNL     1      26.103  50.163  -4.869  0.00  0.00    +0.085 C 
ATOM     21  C   UNL     1      26.519  51.153  -3.991  0.00  0.00    +0.002 C 
ATOM     22  C   UNL     1      26.554  50.896  -2.631  0.00  0.00    +0.008 C 
ATOM     23  N   UNL     1      26.626  49.829   2.590  0.00  0.00    -0.238 NA
ATOM     24  C   UNL     1      25.789  48.215  -0.324  0.00  0.00    +0.035 A 
ATOM     25  C   UNL     1      26.376  48.927   3.615  0.00  0.00    +0.111 C 
ENDROOT
BRANCH  13  14
ATOM     14  N   UNL     1      26.064  50.438  -6.179  0.00  0.00    -0.286 NA
ATOM     15  C   UNL     1      26.063  49.411  -7.229  0.00  0.00    +0.100 C 
ATOM     16  C   UNL     1      25.186  49.874  -8.388  0.00  0.00    +0.096 C 
ATOM     17  N   UNL     1      25.639  51.143  -8.995  0.00  0.00    -0.314 NA
ATOM     18  H   UNL     1      26.642  51.055  -9.357  0.00  0.00    +0.122 HD
ATOM     19  C   UNL     1      25.565  52.115  -7.885  0.00  0.00    +0.096 C 
ATOM     20  C   UNL     1      26.456  51.752  -6.708  0.00  0.00    +0.100 C 
ENDBRANCH  13  14
BRANCH   2   3
ATOM      3  C   UNL     1      25.156  46.094   1.605  0.00  0.00    +0.081 C 
ATOM      4  N   UNL     1      24.757  45.079   1.343  0.00  0.00    -0.195 NA
ENDBRANCH   2   3
TORSDOF 2
