REMARK  Name = 6NPV
REMARK  4 active torsions:
REMARK  status: ('A' for Active; 'I' for Inactive)
REMARK    1  A    between atoms: C13_5  and  C8_16
REMARK    2  A    between atoms: C15_7  and  C16_8
REMARK    3  A    between atoms: C16_8  and  C17_9
REMARK    4  A    between atoms: C9_17  and  N19_19
REMARK                            x       y       z     vdW  Elec       q    Type
REMARK                         _______ _______ _______ _____ _____    ______ ____
ROOT
ATOM      3  N   UNL     1      14.071   7.037 -34.615  0.00  0.00    -0.150 N 
ATOM      4  N   UNL     1      12.848   6.300 -34.485  0.00  0.00    -0.050 NA
ATOM      5  C   UNL     1      11.809   7.066 -34.704  0.00  0.00    +0.100 C 
ATOM      6  N   UNL     1      10.533   6.685 -34.655  0.00  0.00    -0.350 NA
ATOM      7  C   UNL     1       9.487   7.266 -35.413  0.00  0.00    +0.600 C 
ATOM      8  O   UNL     1       9.713   8.136 -36.241  0.00  0.00    -0.550 OA
ATOM     15  C   UNL     1      12.250   8.439 -34.968  0.00  0.00    -0.050 C 
ATOM     19  C   UNL     1      13.758   8.446 -34.741  0.00  0.00    +0.000 C 
ENDROOT
BRANCH   3   2
ATOM      1  C   UNL     1      16.364   7.358 -33.820  0.00  0.00    -0.130 A 
ATOM      2  C   UNL     1      15.230   6.590 -33.959  0.00  0.00    +0.050 A 
ATOM     20  C   UNL     1      15.219   5.301 -33.461  0.00  0.00    -0.130 A 
ATOM     21  C   UNL     1      16.329   4.781 -32.832  0.00  0.00    +0.200 A 
ATOM     22 CL   UNL     1      16.316   3.162 -32.205  0.00  0.00    -0.200 Cl
ATOM     23  C   UNL     1      17.458   5.560 -32.695  0.00  0.00    +0.200 A 
ATOM     24 CL   UNL     1      18.848   4.903 -31.897  0.00  0.00    -0.200 Cl
ATOM     25  C   UNL     1      17.475   6.848 -33.182  0.00  0.00    -0.130 A 
ENDBRANCH   3   2
BRANCH   7   9
ATOM      9  C   UNL     1       8.156   6.740 -35.147  0.00  0.00    +0.000 A 
ATOM     10  C   UNL     1       7.911   6.042 -33.993  0.00  0.00    -0.130 A 
ATOM     11  C   UNL     1       6.633   5.573 -33.800  0.00  0.00    +0.250 A 
ATOM     12  N   UNL     1       5.617   5.749 -34.654  0.00  0.00    -0.760 NA
ATOM     13  C   UNL     1       5.916   6.435 -35.763  0.00  0.00    +0.250 A 
ATOM     14  C   UNL     1       7.153   6.952 -36.065  0.00  0.00    -0.130 A 
ENDBRANCH   7   9
BRANCH  15  16
ATOM     16  C   UNL     1      11.560   9.329 -33.972  0.00  0.00    -0.100 C 
BRANCH  16  17
ATOM     17  C   UNL     1      12.113  10.730 -34.008  0.00  0.00    +0.150 C 
ATOM     18  O   UNL     1      11.560  11.370 -35.143  0.00  0.00    -0.650 OA
ENDBRANCH  16  17
ENDBRANCH  15  16
TORSDOF 4
