REMARK  Name = 9OE
REMARK  2 active torsions:
REMARK  status: ('A' for Active; 'I' for Inactive)
REMARK    1  A    between atoms: CAE_2  and  CAM_7
REMARK    2  A    between atoms: CAO_9  and  OAJ_16
REMARK                            x       y       z     vdW  Elec       q    Type
REMARK                         _______ _______ _______ _____ _____    ______ ____
ROOT
ATOM      3  C   UNL     1      23.674  49.850  -0.291  0.00  0.00    +0.177 A 
ATOM      4  C   UNL     1      23.308  48.695   0.388  0.00  0.00    +0.229 A 
ATOM      5  C   UNL     1      24.178  48.102   1.284  0.00  0.00    +0.045 A 
ATOM      6  C   UNL     1      25.424  48.684   1.488  0.00  0.00    +0.004 A 
ATOM      7  C   UNL     1      25.825  49.838   0.817  0.00  0.00    +0.004 A 
ATOM     16  O   UNL     1      22.074  48.187   0.128  0.00  0.00    -0.283 OA
ATOM     17  C   UNL     1      24.926  50.431  -0.075  0.00  0.00    +0.040 A 
ENDROOT
BRANCH   7   8
ATOM      8  C   UNL     1      27.104  50.338   1.142  0.00  0.00    +0.014 C 
ATOM      9  C   UNL     1      27.897  51.015   0.288  0.00  0.00    +0.124 C 
ATOM     10  C   UNL     1      29.099  51.486   0.672  0.00  0.00    +0.416 C 
ATOM     11  N   UNL     1      29.635  51.362   1.889  0.00  0.00    +0.215 NA
ATOM     12  N   UNL     1      29.783  52.134  -0.293  0.00  0.00    +0.045 NA
ATOM     13  C   UNL     1      29.138  52.193  -1.463  0.00  0.00    +0.407 C 
ATOM     14  O   UNL     1      29.583  52.738  -2.478  0.00  0.00    -0.230 OA
ATOM     15  S   UNL     1      27.668  51.407  -1.338  0.00  0.00    +0.007 S 
ENDBRANCH   7   8
BRANCH   3   2
ATOM      1  C   UNL     1      23.257  51.360  -2.052  0.00  0.00    +0.253 C 
ATOM      2  O   UNL     1      22.741  50.355  -1.163  0.00  0.00    -0.468 OA
ENDBRANCH   3   2
TORSDOF 2
