REMARK  Name = 4RWL
REMARK  8 active torsions:
REMARK  status: ('A' for Active; 'I' for Inactive)
REMARK    1  A    between atoms: C_2  and  O_21
REMARK    2  A    between atoms: C_4  and  O_27
REMARK    3  A    between atoms: C_8  and  C_28
REMARK    4  A    between atoms: N_10  and  C_11
REMARK    5  A    between atoms: C_11  and  C_13
REMARK    6  A    between atoms: O_21  and  C_22
REMARK    7  A    between atoms: C_24  and  O_32
REMARK    8  A    between atoms: O_27  and  C_28
REMARK                            x       y       z     vdW  Elec       q    Type
REMARK                         _______ _______ _______ _____ _____    ______ ____
ROOT
ATOM      6  C   UNL     1      27.818   1.329  22.025  0.00  0.00    +0.148 A 
ATOM      7  C   UNL     1      26.981   0.580  21.130  0.00  0.00    +0.058 A 
ATOM      8  C   UNL     1      26.894  -0.808  21.388  0.00  0.00    +0.102 A 
ATOM      9  N   UNL     1      27.543  -1.403  22.415  0.00  0.00    -0.243 NA
ATOM     10  C   UNL     1      28.337  -0.689  23.282  0.00  0.00    +0.087 A 
ATOM     11  C   UNL     1      29.035  -1.338  24.370  0.00  0.00    +0.059 A 
ATOM     12  C   UNL     1      29.848  -0.569  25.231  0.00  0.00    +0.174 A 
ATOM     19  C   UNL     1      29.996   0.811  25.049  0.00  0.00    +0.173 A 
ATOM     22  C   UNL     1      29.332   1.441  23.985  0.00  0.00    +0.045 A 
ATOM     23  C   UNL     1      28.496   0.661  23.114  0.00  0.00    +0.055 A 
ENDROOT
BRANCH  19  20
ATOM     20  O   UNL     1      30.823   1.549  25.946  0.00  0.00    -0.468 OA
ATOM     21  C   UNL     1      31.089   2.884  25.516  0.00  0.00    +0.253 C 
ENDBRANCH  19  20
BRANCH   6   5
ATOM      5  O   UNL     1      28.064   2.727  21.984  0.00  0.00    -0.453 OA
BRANCH   5   4
ATOM      1  C   UNL     1      26.449   4.536  18.574  0.00  0.00    +0.005 A 
ATOM      2  C   UNL     1      27.740   3.910  18.551  0.00  0.00    +0.003 A 
ATOM      3  C   UNL     1      28.278   3.306  19.675  0.00  0.00    +0.037 A 
ATOM      4  C   UNL     1      27.516   3.329  20.842  0.00  0.00    +0.145 A 
ATOM     24  C   UNL     1      26.259   3.944  20.902  0.00  0.00    +0.037 A 
ATOM     25  C   UNL     1      25.714   4.554  19.726  0.00  0.00    +0.003 A 
ATOM     26  C   UNL     1      24.420   5.183  19.753  0.00  0.00    +0.000 A 
ATOM     27  C   UNL     1      23.896   5.793  18.601  0.00  0.00    +0.000 A 
ATOM     28  C   UNL     1      24.661   5.759  17.410  0.00  0.00    +0.005 A 
ATOM     29  C   UNL     1      25.924   5.144  17.386  0.00  0.00    +0.055 A 
BRANCH  29  30
ATOM     30  C   UNL     1      26.727   5.110  16.084  0.00  0.00    +0.269 C 
ATOM     31  O   UNL     1      27.482   4.181  15.830  0.00  0.00    -0.268 OA
BRANCH  30  32
ATOM     32  N   UNL     1      26.561   6.178  15.149  0.00  0.00    -0.173 NA
ATOM     33  C   UNL     1      27.287   6.143  13.926  0.00  0.00    +0.107 C 
ENDBRANCH  30  32
ENDBRANCH  29  30
ENDBRANCH   5   4
ENDBRANCH   6   5
BRANCH  12  13
ATOM     13  O   UNL     1      30.566  -1.120  26.330  0.00  0.00    -0.471 OA
BRANCH  13  14
ATOM     14  C   UNL     1      30.521  -2.534  26.509  0.00  0.00    +0.223 C 
BRANCH  14  15
ATOM     15  C   UNL     1      31.405  -2.832  27.742  0.00  0.00    +0.117 C 
ATOM     16  N   UNL     1      32.662  -2.142  27.900  0.00  0.00    -0.131 NA
ATOM     17  C   UNL     1      30.639  -3.055  29.037  0.00  0.00    +0.023 C 
ATOM     18  C   UNL     1      31.317  -4.231  28.341  0.00  0.00    +0.023 C 
ENDBRANCH  14  15
ENDBRANCH  13  14
ENDBRANCH  12  13
TORSDOF 8
