REMARK  Name = 3KQ7
REMARK  10 active torsions:
REMARK  status: ('A' for Active; 'I' for Inactive)
REMARK    1  A    between atoms: C_11  and  C_13
REMARK    2  A    between atoms: N_15  and  C_16
REMARK    3  A    between atoms: C_19  and  C_22
REMARK    4  A    between atoms: C_20  and  N_23
REMARK    5  A    between atoms: C_24  and  C_26
REMARK    6  A    between atoms: C_29  and  N_32
REMARK    7  A    between atoms: N_32  and  C_33
REMARK    8  A    between atoms: C_33  and  C_34
REMARK    9  A    between atoms: C_34  and  C_35
REMARK   10  A    between atoms: N_39  and  C_40
REMARK                            x       y       z     vdW  Elec       q    Type
REMARK                         _______ _______ _______ _____ _____    ______ ____
ROOT
ATOM     13  C   UNL     1      16.754  12.985  29.522  0.00  0.00    +0.035 A 
ATOM     14  C   UNL     1      17.898  12.181  29.718  0.00  0.00    +0.047 A 
ATOM     15  C   UNL     1      17.933  11.250  30.805  0.00  0.00    +0.038 A 
ATOM     36  C   UNL     1      16.797  11.121  31.657  0.00  0.00    -0.029 A 
ATOM     37  C   UNL     1      16.801  10.151  32.822  0.00  0.00    +0.045 C 
ATOM     38  C   UNL     1      15.654  11.963  31.473  0.00  0.00    +0.007 A 
ATOM     39  C   UNL     1      15.614  12.875  30.364  0.00  0.00    +0.024 A 
ENDROOT
BRANCH  13  11
ATOM     10  C   UNL     1      17.342  13.901  27.305  0.00  0.00    +0.248 C 
ATOM     11  N   UNL     1      16.682  13.924  28.453  0.00  0.00    -0.281 N 
ATOM     12  H   UNL     1      16.014  14.748  28.595  0.00  0.00    +0.155 HD
ATOM     40  O   UNL     1      18.243  13.083  27.035  0.00  0.00    -0.270 OA
BRANCH  10   9
ATOM      1  C   UNL     1      17.065  16.417  21.733  0.00  0.00    +0.134 C 
ATOM      2  C   UNL     1      16.954  16.023  20.238  0.00  0.00    +0.178 C 
ATOM      3  O   UNL     1      17.902  14.964  19.945  0.00  0.00    -0.377 OA
ATOM      4  C   UNL     1      17.693  13.818  20.793  0.00  0.00    +0.178 C 
ATOM      5  C   UNL     1      17.910  14.163  22.275  0.00  0.00    +0.134 C 
ATOM      6  N   UNL     1      16.957  15.242  22.595  0.00  0.00    -0.311 N 
ATOM      7  C   UNL     1      16.785  15.516  23.964  0.00  0.00    +0.122 A 
ATOM      8  C   UNL     1      17.174  14.562  24.948  0.00  0.00    +0.056 A 
ATOM      9  C   UNL     1      16.947  14.947  26.263  0.00  0.00    +0.042 A 
ATOM     41  C   UNL     1      16.382  16.214  26.629  0.00  0.00    +0.033 A 
ATOM     42  C   UNL     1      16.080  17.125  25.602  0.00  0.00    +0.113 A 
ATOM     43  N   UNL     1      16.299  16.726  24.322  0.00  0.00    -0.240 NA
ENDBRANCH  10   9
ENDBRANCH  13  11
BRANCH  15  16
ATOM     16  N   UNL     1      19.028  10.406  31.016  0.00  0.00    -0.281 N 
ATOM     17  H   UNL     1      19.037   9.395  30.666  0.00  0.00    +0.155 HD
ATOM     18  C   UNL     1      20.068  10.935  31.682  0.00  0.00    +0.250 C 
ATOM     35  O   UNL     1      20.125  12.114  31.984  0.00  0.00    -0.270 OA
BRANCH  18  19
ATOM     19  C   UNL     1      21.225  10.053  32.009  0.00  0.00    +0.055 A 
ATOM     20  C   UNL     1      21.305   8.822  31.387  0.00  0.00    +0.126 A 
ATOM     21  N   UNL     1      22.381   8.046  31.728  0.00  0.00    -0.240 NA
ATOM     22  C   UNL     1      23.335   8.436  32.643  0.00  0.00    +0.119 A 
ATOM     33  C   UNL     1      23.222   9.651  33.311  0.00  0.00    +0.044 A 
ATOM     34  C   UNL     1      22.124  10.489  32.985  0.00  0.00    +0.018 A 
BRANCH  22  23
ATOM     23  N   UNL     1      24.372   7.555  32.907  0.00  0.00    -0.329 N 
ATOM     24  H   UNL     1      24.439   6.632  32.371  0.00  0.00    +0.147 HD
BRANCH  23  25
ATOM     25  C   UNL     1      25.384   7.890  33.928  0.00  0.00    +0.104 C 
BRANCH  25  26
ATOM     26  C   UNL     1      26.832   7.929  33.382  0.00  0.00    +0.037 C 
BRANCH  26  27
ATOM     27  C   UNL     1      27.264   8.993  32.378  0.00  0.00    +0.058 C 
ATOM     28  N   UNL     1      28.682   8.783  31.933  0.00  0.00    -0.302 NA
ATOM     29  C   UNL     1      29.764   9.137  32.908  0.00  0.00    +0.105 C 
ATOM     30  C   UNL     1      28.809   9.428  30.599  0.00  0.00    +0.084 C 
ATOM     31  C   UNL     1      27.441   9.274  29.914  0.00  0.00    +0.017 C 
ATOM     32  C   UNL     1      26.474   8.904  31.050  0.00  0.00    +0.020 C 
ENDBRANCH  26  27
ENDBRANCH  25  26
ENDBRANCH  23  25
ENDBRANCH  22  23
ENDBRANCH  18  19
ENDBRANCH  15  16
TORSDOF 8
