REMARK  Name = 2BZH
REMARK  1 active torsions:
REMARK  status: ('A' for Active; 'I' for Inactive)
REMARK    1  A    between atoms: C_2  and  RU_3
REMARK                            x       y       z     vdW  Elec       q    Type
REMARK                         _______ _______ _______ _____ _____    ______ ____
ROOT
ATOM      3 RU   UNL     1     -22.028 -33.350  -4.532  0.00  0.00    +0.000 Ru
ATOM      4  N   UNL     1     -22.523 -35.179  -3.651  0.00  0.00    +0.000 N 
ATOM      5  C   UNL     1     -22.557 -35.073  -2.322  0.00  0.00    +0.000 A 
ATOM      6  C   UNL     1     -22.192 -33.881  -1.651  0.00  0.00    +0.000 A 
ATOM      7  C   UNL     1     -22.238 -33.799  -0.240  0.00  0.00    +0.000 A 
ATOM      8  C   UNL     1     -21.859 -32.549   0.350  0.00  0.00    +0.000 C 
ATOM      9  C   UNL     1     -21.514 -31.494  -0.471  0.00  0.00    +0.000 C 
ATOM     10  C   UNL     1     -21.520 -31.660  -1.871  0.00  0.00    +0.000 C 
ATOM     11  C   UNL     1     -22.634 -35.021   0.426  0.00  0.00    +0.000 A 
ATOM     12  C   UNL     1     -22.809 -35.261   1.863  0.00  0.00    +0.000 A 
ATOM     13  O   UNL     1     -22.643 -34.516   2.807  0.00  0.00    +0.000 OA
ATOM     14  N   UNL     1     -23.223 -36.594   1.983  0.00  0.00    +0.000 N 
ATOM     15  H   UNL     1     -23.414 -37.070   2.922  0.00  0.00    +0.000 HD
ATOM     16  C   UNL     1     -23.361 -37.239   0.750  0.00  0.00    +0.000 A 
ATOM     17  O   UNL     1     -23.725 -38.388   0.588  0.00  0.00    +0.000 OA
ATOM     18  C   UNL     1     -22.968 -36.208  -0.259  0.00  0.00    +0.000 A 
ATOM     19  C   UNL     1     -22.944 -36.274  -1.660  0.00  0.00    +0.000 A 
ATOM     20  C   UNL     1     -23.206 -37.177  -2.729  0.00  0.00    +0.000 A 
ATOM     21  C   UNL     1     -23.624 -38.505  -2.798  0.00  0.00    +0.000 A 
ATOM     22  C   UNL     1     -23.748 -39.064  -4.057  0.00  0.00    +0.000 A 
ATOM     23  C   UNL     1     -23.487 -38.332  -5.224  0.00  0.00    +0.000 A 
ATOM     24  C   UNL     1     -23.086 -37.015  -5.185  0.00  0.00    +0.000 A 
ATOM     25  C   UNL     1     -22.937 -36.447  -3.937  0.00  0.00    +0.000 A 
ATOM     26  N   UNL     1     -21.838 -32.851  -2.455  0.00  0.00    +0.000 N 
ATOM     27  C   UNL     1     -22.944 -33.270  -6.529  0.00  0.00    +0.000 C 
ATOM     28  C   UNL     1     -23.988 -33.064  -5.590  0.00  0.00    +0.000 C 
ATOM     29  C   UNL     1     -23.705 -31.890  -4.850  0.00  0.00    +0.000 C 
ATOM     30  C   UNL     1     -22.016 -32.211  -6.370  0.00  0.00    +0.000 C 
ATOM     31  C   UNL     1     -22.472 -31.363  -5.355  0.00  0.00    +0.000 C 
ENDROOT
BRANCH   3   2
ATOM      1  O   UNL     1     -19.178 -33.893  -4.938  0.00  0.00    +0.000 OA
ATOM      2  C   UNL     1     -20.250 -33.709  -4.720  0.00  0.00    +0.000 C 
ENDBRANCH   3   2
TORSDOF 1
