REMARK  Name = 9ZB
REMARK  2 active torsions:
REMARK  status: ('A' for Active; 'I' for Inactive)
REMARK    1  A    between atoms: C1_1  and  C_6
REMARK    2  A    between atoms: N1_14  and  C5_15
REMARK                            x       y       z     vdW  Elec       q    Type
REMARK                         _______ _______ _______ _____ _____    ______ ____
ROOT
ATOM      2  C   UNL     1      -3.153  -5.306 -27.863  0.00  0.00    +0.229 C 
ATOM      3  O   UNL     1      -4.079  -5.402 -27.071  0.00  0.00    -0.275 OA
ATOM      4  N   UNL     1      -1.905  -5.571 -27.441  0.00  0.00    -0.256 N 
ATOM      5  C   UNL     1      -1.697  -6.241 -26.152  0.00  0.00    +0.120 C 
ATOM      6  C   UNL     1      -1.592  -7.703 -26.553  0.00  0.00    +0.113 C 
ATOM      7  N   UNL     1      -0.505  -7.822 -27.591  0.00  0.00    -0.305 N 
ATOM     10  C   UNL     1      -0.005  -6.721 -28.335  0.00  0.00    +0.062 A 
ATOM     11  C   UNL     1       1.138  -6.829 -29.131  0.00  0.00    +0.016 A 
ATOM     12  C   UNL     1       1.609  -5.726 -29.859  0.00  0.00    +0.001 A 
ATOM     13  C   UNL     1       0.876  -4.511 -29.725  0.00  0.00    +0.001 A 
ATOM     14  C   UNL     1      -0.299  -4.352 -28.961  0.00  0.00    +0.016 A 
ATOM     15  C   UNL     1      -0.783  -5.466 -28.272  0.00  0.00    +0.067 A 
ENDROOT
BRANCH   2   1
ATOM      1  C   UNL     1      -3.513  -4.885 -29.270  0.00  0.00    +0.086 C 
ATOM     16  C   UNL     1      -4.598  -3.793 -29.283  0.00  0.00    +0.010 C 
ENDBRANCH   2   1
BRANCH   7   8
ATOM      8  C   UNL     1       0.020  -9.134 -27.939  0.00  0.00    +0.091 C 
ATOM      9  C   UNL     1       1.238  -9.406 -27.083  0.00  0.00    +0.023 C 
ENDBRANCH   7   8
TORSDOF 2
