REMARK  Name = 6ehu
REMARK  8 active torsions:
REMARK  status: ('A' for Active; 'I' for Inactive)
REMARK    1  A    between atoms: C24_2  and  C23_5
REMARK    2  A    between atoms: C8_6  and  C7_7
REMARK    3  A    between atoms: C2_12  and  C1_13
REMARK    4  A    between atoms: C11_16  and  C12_19
REMARK    5  A    between atoms: C12_19  and  N_20
REMARK    6  A    between atoms: N_20  and  C13_21
REMARK    7  A    between atoms: C13_21  and  C14_22
REMARK    8  A    between atoms: C14_22  and  C15_23
REMARK                            x       y       z     vdW  Elec       q    Type
REMARK                         _______ _______ _______ _____ _____    ______ ____
ROOT
ATOM      3  C   UNL     1    -170.485 165.792 329.590  0.00  0.00    +0.064 A 
ATOM      4  C   UNL     1    -169.889 166.013 330.827  0.00  0.00    +0.018 A 
ATOM      5  C   UNL     1    -168.894 165.172 331.309  0.00  0.00    -0.034 A 
ATOM     19  C   UNL     1    -168.470 164.118 330.509  0.00  0.00    +0.005 A 
ATOM     20  C   UNL     1    -169.056 163.871 329.278  0.00  0.00    +0.009 A 
ATOM     21  C   UNL     1    -170.082 164.692 328.798  0.00  0.00    -0.006 A 
ENDROOT
BRANCH  21  22
ATOM     22  C   UNL     1    -170.659 164.285 327.480  0.00  0.00    -0.015 A 
ATOM     23  C   UNL     1    -170.079 164.643 326.248  0.00  0.00    -0.040 A 
ATOM     26  C   UNL     1    -170.660 164.178 325.065  0.00  0.00    +0.004 A 
ATOM     27  C   UNL     1    -171.803 163.397 325.094  0.00  0.00    +0.000 A 
ATOM     28  C   UNL     1    -172.376 163.057 326.301  0.00  0.00    +0.001 A 
ATOM     29  C   UNL     1    -171.805 163.486 327.488  0.00  0.00    +0.009 A 
BRANCH  23  24
ATOM     24  C   UNL     1    -168.869 165.560 326.205  0.00  0.00    +0.033 C 
ATOM     25  C   UNL     1    -168.212 165.746 324.857  0.00  0.00    +0.009 C 
ENDBRANCH  23  24
ENDBRANCH  21  22
BRANCH   3   2
ATOM      1  F   UNL     1    -172.747 166.264 329.075  0.00  0.00    -0.166 F 
ATOM      2  C   UNL     1    -171.515 166.778 329.111  0.00  0.00    +0.416 C 
ATOM     30  F   UNL     1    -171.247 167.257 327.881  0.00  0.00    -0.166 F 
ATOM     31  F   UNL     1    -171.618 167.829 329.915  0.00  0.00    -0.166 F 
ENDBRANCH   3   2
BRANCH   5   6
ATOM      6  C   UNL     1    -168.349 165.354 332.701  0.00  0.00    +0.116 C 
BRANCH   6   7
ATOM      7  N   UNL     1    -167.347 166.412 332.770  0.00  0.00    -0.190 NA
BRANCH   7   8
ATOM      8  C   UNL     1    -166.725 166.511 334.096  0.00  0.00    +0.089 C 
BRANCH   8   9
ATOM      9  C   UNL     1    -165.271 166.097 334.077  0.00  0.00    +0.090 C 
BRANCH   9  10
ATOM     10  C   UNL     1    -164.547 166.542 335.302  0.00  0.00    +0.108 A 
ATOM     11  N   UNL     1    -164.132 167.819 335.474  0.00  0.00    -0.174 NA
ATOM     12  C   UNL     1    -163.385 167.852 336.641  0.00  0.00    +0.066 A 
ATOM     13  C   UNL     1    -162.595 168.840 337.220  0.00  0.00    +0.028 A 
ATOM     14  C   UNL     1    -161.803 168.490 338.310  0.00  0.00    +0.002 A 
ATOM     15  C   UNL     1    -161.821 167.194 338.816  0.00  0.00    +0.002 A 
ATOM     16  C   UNL     1    -162.630 166.217 338.246  0.00  0.00    +0.030 A 
ATOM     17  C   UNL     1    -163.409 166.550 337.136  0.00  0.00    +0.089 A 
ATOM     18  N   UNL     1    -164.163 165.743 336.278  0.00  0.00    -0.233 NA
ENDBRANCH   9  10
ENDBRANCH   8   9
ENDBRANCH   7   8
ENDBRANCH   6   7
ENDBRANCH   5   6
TORSDOF 8
