REMARK  Name = 5O11
REMARK  3 active torsions:
REMARK  status: ('A' for Active; 'I' for Inactive)
REMARK    1  A    between atoms: C_5  and  C_23
REMARK    2  A    between atoms: N_15  and  C_16
REMARK    3  A    between atoms: C_23  and  O_25
REMARK                            x       y       z     vdW  Elec       q    Type
REMARK                         _______ _______ _______ _____ _____    ______ ____
ROOT
ATOM      1  C   UNL     1      28.767 119.292   0.278  0.00  0.00    +0.074 A 
ATOM      2  N   UNL     1      28.470 119.128  -1.021  0.00  0.00    -0.231 NA
ATOM      3  C   UNL     1      27.591 119.896  -1.698  0.00  0.00    +0.131 A 
ATOM      4  N   UNL     1      27.309 119.590  -2.989  0.00  0.00    -0.299 N 
ATOM      5  H   UNL     1      26.726 120.311  -3.523  0.00  0.00    +0.154 HD
ATOM     13  C   UNL     1      26.851 120.973  -0.954  0.00  0.00    +0.026 A 
ATOM     14  C   UNL     1      25.895 121.808  -1.520  0.00  0.00    +0.031 A 
ATOM     15  C   UNL     1      25.241 122.802  -0.751  0.00  0.00    +0.111 A 
ATOM     16  N   UNL     1      25.513 122.972   0.560  0.00  0.00    -0.263 NA
ATOM     17  C   UNL     1      26.417 122.192   1.176  0.00  0.00    +0.120 A 
ATOM     18  C   UNL     1      27.103 121.186   0.480  0.00  0.00    +0.013 A 
ATOM     19  C   UNL     1      29.738 118.483   0.810  0.00  0.00    +0.043 A 
ATOM     20  C   UNL     1      30.065 118.589   2.134  0.00  0.00    +0.061 A 
ATOM     25  C   UNL     1      29.468 119.563   2.940  0.00  0.00    +0.016 A 
ATOM     26  C   UNL     1      28.498 120.439   2.439  0.00  0.00    +0.011 A 
ATOM     27  C   UNL     1      28.111 120.321   1.113  0.00  0.00    +0.010 A 
ENDROOT
BRANCH   4   6
ATOM      6  C   UNL     1      27.675 118.477  -3.695  0.00  0.00    +0.034 A 
ATOM      7  C   UNL     1      27.403 118.554  -5.055  0.00  0.00    +0.023 A 
ATOM      8  C   UNL     1      27.761 117.560  -5.947  0.00  0.00    +0.003 A 
ATOM      9  C   UNL     1      28.399 116.427  -5.476  0.00  0.00    +0.020 A 
ATOM     10  C   UNL     1      28.672 116.311  -4.127  0.00  0.00    +0.043 A 
ATOM     11 CL   UNL     1      29.515 114.798  -3.654  0.00  0.00    -0.084 Cl
ATOM     12  C   UNL     1      28.323 117.326  -3.225  0.00  0.00    +0.043 A 
ENDBRANCH   4   6
BRANCH  20  21
ATOM     21  C   UNL     1      31.121 117.683   2.672  0.00  0.00    +0.337 C 
ATOM     24  O   UNL     1      31.437 116.719   2.026  0.00  0.00    -0.245 OA
BRANCH  21  22
ATOM     22  O   UNL     1      31.762 117.989   3.809  0.00  0.00    -0.477 OA
ATOM     23  H   UNL     1      32.256 118.909   3.696  0.00  0.00    +0.295 HD
ENDBRANCH  21  22
ENDBRANCH  20  21
TORSDOF 3
