REMARK  Name = 2G2H
REMARK  5 active torsions:
REMARK  status: ('A' for Active; 'I' for Inactive)
REMARK    1  A    between atoms: O_1  and  C_2
REMARK    2  A    between atoms: C_2  and  C_3
REMARK    3  A    between atoms: C_7  and  N_8
REMARK    4  A    between atoms: C_14  and  C_21
REMARK    5  A    between atoms: N_17  and  C_20
REMARK                            x       y       z     vdW  Elec       q    Type
REMARK                         _______ _______ _______ _____ _____    ______ ____
ROOT
ATOM      7  N   UNL     1     -38.739  11.587 -25.710  0.00  0.00    -0.284 N 
ATOM      8  H   UNL     1     -38.632  10.659 -26.231  0.00  0.00    +0.155 HD
ATOM      9  C   UNL     1     -37.560  12.263 -25.447  0.00  0.00    +0.221 A 
ATOM     10  N   UNL     1     -37.570  13.450 -24.774  0.00  0.00    -0.196 NA
ATOM     11  C   UNL     1     -36.392  14.101 -24.547  0.00  0.00    +0.148 A 
ATOM     12  N   UNL     1     -36.384  15.332 -23.855  0.00  0.00    -0.295 N 
ATOM     13  C   UNL     1     -37.683  15.899 -23.376  0.00  0.00    +0.154 C 
ATOM     14  C   UNL     1     -35.139  16.065 -23.606  0.00  0.00    +0.260 C 
ATOM     15  O   UNL     1     -35.216  17.132 -23.006  0.00  0.00    -0.267 OA
ATOM     16  C   UNL     1     -33.856  15.447 -24.115  0.00  0.00    +0.050 C 
ATOM     25  C   UNL     1     -33.878  14.243 -24.782  0.00  0.00    +0.027 C 
ATOM     26  C   UNL     1     -35.129  13.535 -25.014  0.00  0.00    +0.036 A 
ATOM     27  C   UNL     1     -35.224  12.277 -25.708  0.00  0.00    +0.126 A 
ATOM     28  N   UNL     1     -36.404  11.640 -25.926  0.00  0.00    -0.222 NA
ENDROOT
BRANCH  16  17
ATOM     17  C   UNL     1     -32.591  16.206 -23.880  0.00  0.00    +0.024 A 
ATOM     18  C   UNL     1     -32.152  17.213 -24.839  0.00  0.00    +0.050 A 
ATOM     19 CL   UNL     1     -33.075  17.568 -26.303  0.00  0.00    -0.083 Cl
ATOM     20  C   UNL     1     -30.951  17.965 -24.647  0.00  0.00    +0.021 A 
ATOM     21  C   UNL     1     -30.160  17.728 -23.492  0.00  0.00    +0.003 A 
ATOM     22  C   UNL     1     -30.551  16.751 -22.534  0.00  0.00    +0.021 A 
ATOM     23  C   UNL     1     -31.753  15.992 -22.716  0.00  0.00    +0.050 A 
ATOM     24 CL   UNL     1     -32.148  14.819 -21.489  0.00  0.00    -0.083 Cl
ENDBRANCH  16  17
BRANCH   7   6
ATOM      4  C   UNL     1     -42.521  11.500 -25.751  0.00  0.00    -0.020 A 
ATOM      5  C   UNL     1     -41.143  11.199 -26.016  0.00  0.00    +0.029 A 
ATOM      6  C   UNL     1     -40.086  11.960 -25.380  0.00  0.00    +0.034 A 
ATOM     29  C   UNL     1     -40.441  13.034 -24.473  0.00  0.00    +0.023 A 
ATOM     30  C   UNL     1     -41.813  13.329 -24.216  0.00  0.00    +0.002 A 
ATOM     31  C   UNL     1     -42.848  12.578 -24.841  0.00  0.00    +0.006 A 
BRANCH   4   3
ATOM      3  C   UNL     1     -43.630  10.692 -26.418  0.00  0.00    +0.191 C 
BRANCH   3   1
ATOM      1  O   UNL     1     -44.421  11.439 -27.295  0.00  0.00    -0.390 OA
ATOM      2  H   UNL     1     -44.880  12.225 -26.771  0.00  0.00    +0.210 HD
ENDBRANCH   3   1
ENDBRANCH   4   3
ENDBRANCH   7   6
TORSDOF 4
