REMARK  Name = 2uue_ligand
REMARK  4 active torsions:
REMARK  status: ('A' for Active; 'I' for Inactive)
REMARK    1  A    between atoms: N5_6  and  C11_7
REMARK    2  A    between atoms: C8_12  and  N4_13
REMARK    3  A    between atoms: C4_19  and  C3_20
REMARK    4  A    between atoms: C1_22  and  C2_23
REMARK                            x       y       z     vdW  Elec       q    Type
REMARK                         _______ _______ _______ _____ _____    ______ ____
ROOT
ATOM      7  N   UNL     1       1.547  50.796   3.829  0.00  0.00    -0.251 N 
ATOM      8  H   UNL     1       1.292  51.545   4.489  0.00  0.00    +0.214 HD
ATOM      9  C   UNL     1       2.808  50.731   3.415  0.00  0.00    +0.191 A 
ATOM     10  N   UNL     1       3.576  51.831   3.462  0.00  0.00    -0.268 NA
ATOM     11  C   UNL     1       4.834  51.807   3.041  0.00  0.00    +0.084 A 
ATOM     12  C   UNL     1       5.388  50.624   2.563  0.00  0.00    +0.027 A 
ATOM     13  C   UNL     1       4.590  49.481   2.545  0.00  0.00    +0.036 A 
ATOM     23  N   UNL     1       3.312  49.571   2.960  0.00  0.00    -0.269 NA
ENDROOT
BRANCH  13  14
ATOM     14  C   UNL     1       5.067  48.281   2.016  0.00  0.00    +0.061 A 
ATOM     15  C   UNL     1       6.330  48.068   1.468  0.00  0.00    +0.005 A 
ATOM     16  N   UNL     1       6.533  46.839   0.960  0.00  0.00    -0.291 NA
ATOM     17  C   UNL     1       5.466  46.026   1.019  0.00  0.00    +0.188 A 
ATOM     18  N   UNL     1       5.424  44.765   0.578  0.00  0.00    -0.292 N 
ATOM     19  H   UNL     1       4.558  44.215   0.673  0.00  0.00    +0.191 HD
ATOM     20  H   UNL     1       6.257  44.343   0.143  0.00  0.00    +0.191 HD
ATOM     21  C   UNL     1       7.411  49.146   1.483  0.00  0.00    +0.101 C 
ATOM     22  S   UNL     1       4.164  46.851   1.758  0.00  0.00    +0.018 S 
ENDBRANCH  13  14
BRANCH   7   6
ATOM      3  C   UNL     1      -1.482  48.230   2.699  0.00  0.00    +0.029 A 
ATOM      4  C   UNL     1      -0.158  47.798   2.628  0.00  0.00    -0.004 A 
ATOM      5  C   UNL     1       0.874  48.654   3.003  0.00  0.00    +0.002 A 
ATOM      6  C   UNL     1       0.590  49.947   3.440  0.00  0.00    +0.053 A 
ATOM     24  C   UNL     1      -0.733  50.366   3.520  0.00  0.00    +0.002 A 
ATOM     25  C   UNL     1      -1.765  49.510   3.162  0.00  0.00    -0.004 A 
BRANCH   3   2
ATOM      1  C   UNL     1      -3.950  47.867   2.388  0.00  0.00    +0.155 C 
ATOM      2  N   UNL     1      -2.549  47.374   2.364  0.00  0.00    -0.310 N 
ATOM     26  C   UNL     1      -2.309  45.931   2.090  0.00  0.00    +0.155 C 
ATOM     27  C   UNL     1      -3.270  45.044   2.896  0.00  0.00    +0.183 C 
ATOM     28  O   UNL     1      -4.638  45.508   2.807  0.00  0.00    -0.376 OA
ATOM     29  C   UNL     1      -4.816  46.896   3.205  0.00  0.00    +0.183 C 
ENDBRANCH   3   2
ENDBRANCH   7   6
TORSDOF 3
