REMARK  Name = 2owb_ligand
REMARK  6 active torsions:
REMARK  status: ('A' for Active; 'I' for Inactive)
REMARK    1  A    between atoms: C1_1  and  C32_32
REMARK    2  A    between atoms: C5_5  and  N7_7
REMARK    3  A    between atoms: C8_8  and  C9_9
REMARK    4  A    between atoms: N19_19  and  C26_26
REMARK    5  A    between atoms: N22_22  and  C25_25
REMARK    6  A    between atoms: C31_31  and  C32_32
REMARK                            x       y       z     vdW  Elec       q    Type
REMARK                         _______ _______ _______ _____ _____    ______ ____
ROOT
ATOM     13  N   UNL     1       0.747  25.670  69.152  0.00  0.00    -0.213 N 
ATOM     14  H   UNL     1       1.210  25.508  70.024  0.00  0.00    +0.229 HD
ATOM     15  C   UNL     1      -0.173  24.770  68.747  0.00  0.00    +0.225 C 
ATOM     16  O   UNL     1      -0.820  24.881  67.708  0.00  0.00    -0.379 OA
ENDROOT
BRANCH  13  12
ATOM      1  C   UNL     1      -0.631  28.770  64.101  0.00  0.00    +0.194 C 
ATOM      8  N   UNL     1      -0.034  28.420  65.244  0.00  0.00    -0.261 N 
ATOM      9  C   UNL     1       1.050  29.284  65.769  0.00  0.00    +0.197 C 
ATOM     10  C   UNL     1       1.356  28.508  66.992  0.00  0.00    +0.009 A 
ATOM     11  C   UNL     1       0.622  27.412  67.170  0.00  0.00    +0.010 A 
ATOM     12  C   UNL     1       1.095  26.818  68.428  0.00  0.00    +0.175 A 
ATOM     31  N   UNL     1       2.044  27.586  68.875  0.00  0.00    -0.221 N 
ATOM     32  H   UNL     1       2.579  27.432  69.742  0.00  0.00    +0.240 HD
ATOM     33  N   UNL     1       2.207  28.566  68.064  0.00  0.00    -0.262 NA
ATOM     34  C   UNL     1      -0.362  27.216  66.064  0.00  0.00    +0.159 C 
ATOM     35  O   UNL     1      -0.258  29.761  63.478  0.00  0.00    -0.393 OA
BRANCH   1   2
ATOM      2  C   UNL     1      -1.796  27.961  63.546  0.00  0.00    +0.219 C 
BRANCH   2   3
ATOM      3  C   UNL     1      -1.308  26.994  62.492  0.00  0.00    +0.031 A 
ATOM      4  C   UNL     1      -0.055  27.007  61.867  0.00  0.00    -0.051 A 
ATOM      5  C   UNL     1       0.064  25.923  60.906  0.00  0.00    -0.055 A 
ATOM      6  C   UNL     1      -1.101  25.166  60.863  0.00  0.00    +0.041 A 
ATOM      7  S   UNL     1      -2.331  25.720  61.946  0.00  0.00    -0.042 S 
ENDBRANCH   2   3
ENDBRANCH   1   2
ENDBRANCH  13  12
BRANCH  15  17
ATOM     17  C   UNL     1      -0.415  23.542  69.572  0.00  0.00    +0.042 A 
ATOM     18  C   UNL     1      -1.293  22.531  69.112  0.00  0.00    +0.011 A 
ATOM     19  C   UNL     1      -1.529  21.365  69.861  0.00  0.00    +0.015 A 
ATOM     20  C   UNL     1      -0.904  21.145  71.115  0.00  0.00    +0.046 A 
ATOM     29  C   UNL     1      -0.032  22.159  71.569  0.00  0.00    +0.015 A 
ATOM     30  C   UNL     1       0.203  23.323  70.822  0.00  0.00    +0.011 A 
BRANCH  20  21
ATOM     21  N   UNL     1      -1.126  19.964  71.918  0.00  0.00    -0.296 N 
ATOM     22  C   UNL     1      -0.082  19.505  72.847  0.00  0.00    +0.182 C 
ATOM     23  C   UNL     1       0.999  18.773  72.048  0.00  0.00    +0.155 C 
ATOM     24  N   UNL     1       0.423  17.618  71.323  0.00  0.00    +0.236 N 
ATOM     25  H   UNL     1       0.072  16.981  72.020  0.00  0.00    +0.203 HD
ATOM     26  C   UNL     1       1.454  16.883  70.553  0.00  0.00    +0.190 C 
ATOM     27  C   UNL     1      -0.734  18.013  70.485  0.00  0.00    +0.155 C 
ATOM     28  C   UNL     1      -1.764  18.776  71.323  0.00  0.00    +0.182 C 
ENDBRANCH  20  21
ENDBRANCH  15  17
TORSDOF 5
