REMARK  Name = 6R5F
REMARK  2 active torsions:
REMARK  status: ('A' for Active; 'I' for Inactive)
REMARK    1  A    between atoms: C10_1  and  C13_2
REMARK    2  A    between atoms: C20_4  and  C19_16
REMARK                            x       y       z     vdW  Elec       q    Type
REMARK                         _______ _______ _______ _____ _____    ______ ____
ROOT
ATOM     13  C   UNL     1      11.598  12.224   8.695  0.00  0.00    +0.200 C 
ATOM     14  O   UNL     1      10.682  12.645   8.001  0.00  0.00    -0.550 OA
ATOM     15  N   UNL     1      12.840  12.713   8.578  0.00  0.00    +0.850 N 
ATOM     16  N   UNL     1      13.951  12.288   9.361  0.00  0.00    -0.350 NA
ATOM     17  C   UNL     1      14.774  13.482   9.549  0.00  0.00    +0.000 C 
ATOM     18  C   UNL     1      14.593  14.282   8.261  0.00  0.00    -0.100 C 
ATOM     19  C   UNL     1      13.276  13.785   7.662  0.00  0.00    +0.050 C 
ENDROOT
BRANCH  13   1
ATOM      1  C   UNL     1      11.366  11.156   9.753  0.00  0.00    -0.050 C 
ATOM      2  C   UNL     1      10.515  11.709  10.912  0.00  0.00    -0.100 C 
ATOM      3  C   UNL     1      10.206  10.613  11.930  0.00  0.00    +0.000 C 
ATOM      4  N   UNL     1       9.589   9.470  11.284  0.00  0.00    -0.250 N 
ATOM      5  C   UNL     1      10.423   8.894  10.232  0.00  0.00    +0.000 C 
ATOM      6  C   UNL     1       8.359   9.047  11.554  0.00  0.00    +0.150 A 
ATOM      7  O   UNL     1       7.758   9.551  12.670  0.00  0.00    +0.000 OA
ATOM      8  C   UNL     1       6.507   8.949  12.613  0.00  0.00    +0.100 A 
ATOM      9  N   UNL     1       6.370   8.136  11.572  0.00  0.00    -0.100 NA
ATOM     10  C   UNL     1       5.394   9.131  13.586  0.00  0.00    -0.150 C 
ATOM     11  N   UNL     1       7.562   8.206  10.882  0.00  0.00    -0.100 NA
ATOM     12  C   UNL     1      10.686   9.926   9.145  0.00  0.00    -0.100 C 
ENDBRANCH  13   1
BRANCH  19  20
ATOM     20  C   UNL     1      13.415  13.312   6.232  0.00  0.00    +0.000 A 
ATOM     21  C   UNL     1      12.598  13.859   5.245  0.00  0.00    -0.130 A 
ATOM     22  C   UNL     1      12.744  13.444   3.944  0.00  0.00    +0.300 A 
ATOM     23  F   UNL     1      11.958  14.011   3.002  0.00  0.00    -0.300 F 
ATOM     24  C   UNL     1      13.648  12.493   3.545  0.00  0.00    -0.130 A 
ATOM     25  C   UNL     1      14.432  11.964   4.539  0.00  0.00    +0.300 A 
ATOM     26  F   UNL     1      15.378  11.055   4.183  0.00  0.00    -0.300 F 
ATOM     27  C   UNL     1      14.334  12.328   5.866  0.00  0.00    -0.130 A 
ENDBRANCH  19  20
TORSDOF 2
