REMARK  Name = 6VL
REMARK  2 active torsions:
REMARK  status: ('A' for Active; 'I' for Inactive)
REMARK    1  A    between atoms: C29_1  and  C15_9
REMARK    2  A    between atoms: C15_9  and  C30_24
REMARK                            x       y       z     vdW  Elec       q    Type
REMARK                         _______ _______ _______ _____ _____    ______ ____
ROOT
ATOM      2  C   UNL     1      35.428  -0.108  -3.535  0.00  0.00    +0.060 C 
ATOM      9  C   UNL     1      34.069  -0.410  -2.953  0.00  0.00    +0.165 C 
ATOM     10  C   UNL     1      33.603  -1.658  -2.471  0.00  0.00    +0.133 C 
ATOM     11  N   UNL     1      32.330  -1.445  -2.069  0.00  0.00    -0.046 NA
ATOM     12  N   UNL     1      31.996  -0.077  -2.281  0.00  0.00    +0.108 NA
ATOM     13  C   UNL     1      33.069   0.533  -2.829  0.00  0.00    +0.373 C 
ATOM     14  N   UNL     1      33.151   1.817  -3.194  0.00  0.00    -0.043 NA
ATOM     15  C   UNL     1      34.227   2.245  -3.864  0.00  0.00    +0.170 C 
ATOM     16  C   UNL     1      34.209   3.657  -4.432  0.00  0.00    +0.074 C 
ATOM     17  C   UNL     1      35.570   4.190  -4.882  0.00  0.00    +0.015 C 
ATOM     18  C   UNL     1      36.321   4.687  -3.643  0.00  0.00    +0.001 C 
ATOM     19  C   UNL     1      36.435   3.148  -5.597  0.00  0.00    +0.069 C 
ATOM     20  C   UNL     1      36.546   1.852  -4.802  0.00  0.00    +0.173 C 
ATOM     21  O   UNL     1      37.563   1.207  -4.718  0.00  0.00    -0.291 OA
ATOM     22  C   UNL     1      35.310   5.364  -5.818  0.00  0.00    +0.001 C 
ATOM     23  C   UNL     1      35.382   1.320  -4.068  0.00  0.00    +0.055 C 
ENDROOT
BRANCH   2   3
ATOM      3  C   UNL     1      36.517  -0.234  -2.470  0.00  0.00    -0.018 A 
ATOM      4  C   UNL     1      36.577   0.722  -1.442  0.00  0.00    -0.004 A 
ATOM      5  C   UNL     1      37.552   0.685  -0.459  0.00  0.00    -0.000 A 
ATOM      6  C   UNL     1      38.501  -0.335  -0.467  0.00  0.00    -0.000 A 
ATOM      7  C   UNL     1      38.462  -1.298  -1.463  0.00  0.00    -0.000 A 
ATOM      8  C   UNL     1      37.493  -1.236  -2.475  0.00  0.00    -0.004 A 
ENDBRANCH   2   3
BRANCH   2   1
ATOM      1  C   UNL     1      35.647  -1.065  -4.730  0.00  0.00    +0.009 C 
ATOM     24  C   UNL     1      34.793  -0.771  -5.959  0.00  0.00    +0.001 C 
ENDBRANCH   2   1
TORSDOF 2
