REMARK  Name = 2chz_ligand
REMARK  8 active torsions:
REMARK  status: ('A' for Active; 'I' for Inactive)
REMARK    1  A    between atoms: SAN_2  and  NAU_4
REMARK    2  A    between atoms: SAN_2  and  CAF_8
REMARK    3  A    between atoms: NAU_4  and  CAV_5
REMARK    4  A    between atoms: CAV_5  and  CAW_6
REMARK    5  A    between atoms: CAW_6  and  OAX_7
REMARK    6  A    between atoms: CAH_14  and  CAI_15
REMARK    7  A    between atoms: CAJ_16  and  CAE_17
REMARK    8  A    between atoms: CAS_22  and  CAT_24
REMARK                            x       y       z     vdW  Elec       q    Type
REMARK                         _______ _______ _______ _____ _____    ______ ____
ROOT
ATOM      3  C   UNL     1      43.425  12.536  32.590  0.00  0.00    +0.113 A 
ATOM      4  C   UNL     1      44.703  12.541  32.024  0.00  0.00    +0.018 A 
ATOM      5  C   UNL     1      44.989  11.879  30.822  0.00  0.00    -0.030 A 
ATOM     17  C   UNL     1      43.967  11.196  30.173  0.00  0.00    -0.011 A 
ATOM     18  C   UNL     1      42.689  11.182  30.718  0.00  0.00    +0.005 A 
ATOM     19  C   UNL     1      42.420  11.841  31.914  0.00  0.00    +0.058 A 
ATOM     20 CL   UNL     1      40.813  11.779  32.539  0.00  0.00    -0.076 Cl
ENDROOT
BRANCH   5   6
ATOM      6  C   UNL     1      46.286  11.911  30.293  0.00  0.00    +0.035 A 
ATOM      7  S   UNL     1      47.539  12.768  31.089  0.00  0.00    +0.011 S 
ATOM      8  C   UNL     1      48.584  12.260  29.818  0.00  0.00    +0.210 A 
ATOM      9  N   UNL     1      49.886  12.575  29.782  0.00  0.00    -0.191 N 
ATOM     10  H   UNL     1      50.506  11.878  29.421  0.00  0.00    +0.244 HD
ATOM     11  C   UNL     1      50.444  13.727  30.180  0.00  0.00    +0.214 C 
ATOM     12  C   UNL     1      51.936  13.799  30.035  0.00  0.00    +0.177 C 
ATOM     13  O   UNL     1      49.821  14.677  30.622  0.00  0.00    -0.379 OA
ATOM     14  N   UNL     1      48.013  11.510  28.879  0.00  0.00    -0.303 NA
ATOM     15  C   UNL     1      46.724  11.298  29.119  0.00  0.00    -0.011 A 
ATOM     16  C   UNL     1      45.885  10.465  28.149  0.00  0.00    +0.087 C 
ENDBRANCH   5   6
BRANCH   3   2
ATOM      1  O   UNL     1      44.360  14.070  34.539  0.00  0.00    -0.150 OA
ATOM      2  S   UNL     1      43.112  13.365  34.117  0.00  0.00    +0.067 S 
ATOM     27  O   UNL     1      42.776  12.358  35.168  0.00  0.00    -0.150 OA
BRANCH   2  21
ATOM     21  N   UNL     1      41.956  14.353  34.023  0.00  0.00    -0.245 NA
ATOM     22  H   UNL     1      41.015  14.025  34.108  0.00  0.00    +0.167 HD
BRANCH  21  23
ATOM     23  C   UNL     1      42.212  15.775  33.809  0.00  0.00    +0.149 C 
BRANCH  23  24
ATOM     24  C   UNL     1      40.875  16.387  33.392  0.00  0.00    +0.176 C 
BRANCH  24  25
ATOM     25  O   UNL     1      40.983  16.960  32.094  0.00  0.00    -0.393 OA
ATOM     26  H   UNL     1      40.147  17.337  31.845  0.00  0.00    +0.209 HD
ENDBRANCH  24  25
ENDBRANCH  23  24
ENDBRANCH  21  23
ENDBRANCH   2  21
ENDBRANCH   3   2
TORSDOF 6
