REMARK  Name = 3hrb_ligand
REMARK  6 active torsions:
REMARK  status: ('A' for Active; 'I' for Inactive)
REMARK    1  A    between atoms: C9_2  and  C4_3
REMARK    2  A    between atoms: C9_2  and  C11_11
REMARK    3  A    between atoms: N14_14  and  O23_15
REMARK    4  A    between atoms: C13_16  and  C17_19
REMARK    5  A    between atoms: C12_17  and  N24_18
REMARK    6  A    between atoms: C22_20  and  C25_21
REMARK                            x       y       z     vdW  Elec       q    Type
REMARK                         _______ _______ _______ _____ _____    ______ ____
ROOT
ATOM      3  C   UNL     1       1.841  32.054  31.162  0.00  0.00    +0.111 A 
ATOM      4  C   UNL     1       0.517  32.125  31.619  0.00  0.00    +0.166 A 
ATOM      8  C   UNL     1      -0.217  33.280  31.382  0.00  0.00    +0.176 A 
ATOM     16  N   UNL     1       0.343  34.318  30.739  0.00  0.00    -0.194 N 
ATOM     19  C   UNL     1       1.581  34.271  30.303  0.00  0.00    +0.149 A 
ATOM     20  C   UNL     1       2.357  33.139  30.488  0.00  0.00    +0.100 A 
ENDROOT
BRANCH   8   9
ATOM      9  C   UNL     1      -1.625  33.365  31.876  0.00  0.00    +0.076 A 
ATOM     10  C   UNL     1      -1.839  33.860  33.159  0.00  0.00    +0.064 A 
ATOM     11  C   UNL     1      -3.130  33.938  33.676  0.00  0.00    +0.042 A 
ATOM     12  C   UNL     1      -4.211  33.516  32.898  0.00  0.00    +0.057 A 
ATOM     13  C   UNL     1      -3.999  33.026  31.612  0.00  0.00    +0.046 A 
ATOM     14  C   UNL     1      -2.707  32.942  31.100  0.00  0.00    +0.017 A 
ATOM     15  C   UNL     1      -2.525  32.392  29.706  0.00  0.00    +0.142 C 
ENDBRANCH   8   9
BRANCH   4   5
ATOM      5  N   UNL     1      -0.060  31.081  32.276  0.00  0.00    -0.286 N 
ATOM      6  H   UNL     1      -1.037  31.150  32.595  0.00  0.00    +0.214 HD
ATOM      7  H   UNL     1       0.480  30.223  32.454  0.00  0.00    +0.214 HD
ENDBRANCH   4   5
BRANCH   3   2
ATOM      1  O   UNL     1       2.214  29.777  31.670  0.00  0.00    -0.376 OA
ATOM      2  C   UNL     1       2.716  30.843  31.337  0.00  0.00    +0.164 C 
BRANCH   2  21
ATOM     21  C   UNL     1       4.197  30.940  31.104  0.00  0.00    +0.063 A 
ATOM     22  C   UNL     1       4.790  30.337  30.005  0.00  0.00    +0.018 A 
ATOM     23  C   UNL     1       6.166  30.433  29.810  0.00  0.00    +0.032 A 
ATOM     24  C   UNL     1       6.949  31.135  30.720  0.00  0.00    +0.136 A 
ATOM     25  F   UNL     1       8.277  31.268  30.565  0.00  0.00    -0.180 F 
ATOM     26  C   UNL     1       6.356  31.736  31.816  0.00  0.00    +0.072 A 
ATOM     27  C   UNL     1       4.984  31.640  32.003  0.00  0.00    +0.150 A 
ATOM     28  F   UNL     1       4.439  32.231  33.077  0.00  0.00    -0.178 F 
ENDBRANCH   2  21
ENDBRANCH   3   2
BRANCH  16  17
ATOM     17  O   UNL     1      -0.395  35.513  30.499  0.00  0.00    -0.264 OA
ATOM     18  H   UNL     1       0.046  36.245  30.914  0.00  0.00    +0.270 HD
ENDBRANCH  16  17
TORSDOF 5
