REMARK  Name = 5NK9
REMARK  18 active torsions:
REMARK  status: ('A' for Active; 'I' for Inactive)
REMARK    1  A    between atoms: C_3  and  C_4
REMARK    2  A    between atoms: C_3  and  O_5
REMARK    3  A    between atoms: C_8  and  N_9
REMARK    4  A    between atoms: C_10  and  O_11
REMARK    5  A    between atoms: C_10  and  C_12
REMARK    6  A    between atoms: C_17  and  N_18
REMARK    7  A    between atoms: C_23  and  C_24
REMARK    8  A    between atoms: N_26  and  C_27
REMARK    9  A    between atoms: C_33  and  C_34
REMARK   10  A    between atoms: C_37  and  C_38
REMARK   11  A    between atoms: C_37  and  O_39
REMARK   12  A    between atoms: C_42  and  N_43
REMARK   13  A    between atoms: C_44  and  O_45
REMARK   14  A    between atoms: C_44  and  C_46
REMARK   15  A    between atoms: C_51  and  N_52
REMARK   16  A    between atoms: C_57  and  C_58
REMARK   17  A    between atoms: N_60  and  C_61
REMARK   18  A    between atoms: C_67  and  C_68
REMARK                            x       y       z     vdW  Elec       q    Type
REMARK                         _______ _______ _______ _____ _____    ______ ____
ROOT
ATOM      5  C   UNL     1     -83.666 -11.048   7.169  0.00  0.00    +0.038 A 
ATOM      6  C   UNL     1     -82.788 -11.077   6.116  0.00  0.00    +0.013 A 
ATOM      7  C   UNL     1     -83.185 -11.140   4.835  0.00  0.00    +0.003 A 
ATOM      8  C   UNL     1     -84.522 -11.197   4.609  0.00  0.00    +0.023 A 
ATOM      9  C   UNL     1     -85.457 -11.177   5.562  0.00  0.00    +0.034 A 
ATOM     29  C   UNL     1     -85.015 -11.106   6.877  0.00  0.00    +0.036 A 
ENDROOT
BRANCH   9  10
ATOM     10  N   UNL     1     -86.686 -11.207   5.131  0.00  0.00    -0.294 N 
ATOM     11  H   UNL     1     -86.884 -10.794   4.164  0.00  0.00    +0.154 HD
ATOM     12  C   UNL     1     -87.684 -11.701   5.790  0.00  0.00    +0.163 A 
ATOM     13  N   UNL     1     -88.898 -11.658   5.350  0.00  0.00    -0.232 NA
ATOM     14  C   UNL     1     -89.802 -12.187   6.167  0.00  0.00    +0.133 A 
ATOM     15  C   UNL     1     -89.361 -12.740   7.295  0.00  0.00    +0.095 A 
ATOM     28  S   UNL     1     -87.700 -12.463   7.284  0.00  0.00    -0.048 S 
BRANCH  15  16
ATOM     16  C   UNL     1     -90.004 -13.362   8.351  0.00  0.00    +0.257 C 
ATOM     17  N   UNL     1     -91.283 -13.725   8.249  0.00  0.00    -0.280 N 
ATOM     18  H   UNL     1     -91.786 -13.584   7.315  0.00  0.00    +0.155 HD
ATOM     27  O   UNL     1     -89.386 -13.543   9.340  0.00  0.00    -0.269 OA
BRANCH  17  19
ATOM     19  C   UNL     1     -91.971 -14.268   9.288  0.00  0.00    +0.055 A 
ATOM     20  C   UNL     1     -92.476 -13.451  10.316  0.00  0.00    -0.028 A 
ATOM     21  C   UNL     1     -92.284 -12.039  10.409  0.00  0.00    +0.045 C 
ATOM     22  C   UNL     1     -93.174 -14.110  11.312  0.00  0.00    +0.005 A 
ATOM     23  C   UNL     1     -93.417 -15.474  11.321  0.00  0.00    +0.002 A 
ATOM     24  C   UNL     1     -92.943 -16.256  10.286  0.00  0.00    +0.022 A 
ATOM     25  C   UNL     1     -92.228 -15.640   9.291  0.00  0.00    +0.062 A 
ATOM     26 CL   UNL     1     -91.649 -16.600   8.116  0.00  0.00    -0.082 Cl
ENDBRANCH  17  19
ENDBRANCH  15  16
ENDBRANCH   9  10
BRANCH   5   4
ATOM      3  N   UNL     1     -82.075 -11.683   8.602  0.00  0.00    -0.247 NA
ATOM      4  C   UNL     1     -83.159 -10.988   8.469  0.00  0.00    +0.215 C 
BRANCH   3   2
ATOM      1  C   UNL     1     -80.103 -10.715   9.350  0.00  0.00    +0.030 C 
ATOM      2  C   UNL     1     -81.023 -11.838   9.565  0.00  0.00    +0.109 C 
ATOM     32  C   UNL     1     -81.307 -11.940  10.970  0.00  0.00    +0.030 C 
ATOM     33  C   UNL     1     -79.939 -12.474  11.529  0.00  0.00    +0.036 C 
ATOM     34  C   UNL     1     -78.703 -11.776  10.933  0.00  0.00    +0.064 C 
ATOM     37  C   UNL     1     -78.537 -10.529  11.752  0.00  0.00    +0.041 C 
ATOM     38  C   UNL     1     -78.836 -11.409   9.501  0.00  0.00    +0.036 C 
BRANCH  34  35
ATOM     35  O   UNL     1     -77.545 -12.556  10.918  0.00  0.00    -0.389 OA
ATOM     36  H   UNL     1     -77.689 -13.385  10.290  0.00  0.00    +0.210 HD
ENDBRANCH  34  35
ENDBRANCH   3   2
BRANCH   4  30
ATOM     30  O   UNL     1     -83.685 -10.421   9.374  0.00  0.00    -0.492 OA
ATOM     31  H   UNL     1     -83.956 -11.116  10.113  0.00  0.00    +0.294 HD
ENDBRANCH   4  30
ENDBRANCH   5   4
TORSDOF 7
