REMARK  Name = 3efj_ligand
REMARK  10 active torsions:
REMARK  status: ('A' for Active; 'I' for Inactive)
REMARK    1  A    between atoms: N1_1  and  C29_32
REMARK    2  A    between atoms: C7_6  and  C14_30
REMARK    3  A    between atoms: C20_12  and  O2_19
REMARK    4  A    between atoms: C26_16  and  O1_21
REMARK    5  A    between atoms: C28_17  and  C9_34
REMARK    6  A    between atoms: C28_17  and  C1_35
REMARK    7  A    between atoms: C27_18  and  O2_19
REMARK    8  A    between atoms: C19_20  and  O1_21
REMARK    9  A    between atoms: C25_24  and  O3_25
REMARK   10  A    between atoms: O3_25  and  C11_26
REMARK                            x       y       z     vdW  Elec       q    Type
REMARK                         _______ _______ _______ _____ _____    ______ ____
ROOT
ATOM      6  C   UNL     1      62.388  14.569 114.054  0.00  0.00    -0.038 A 
ATOM      7  C   UNL     1      62.072  15.419 115.128  0.00  0.00    -0.020 A 
ATOM      8  C   UNL     1      61.784  14.924 116.404  0.00  0.00    +0.022 A 
ATOM      9  C   UNL     1      61.818  13.545 116.602  0.00  0.00    +0.152 A 
ATOM     10  C   UNL     1      62.111  12.707 115.540  0.00  0.00    +0.162 A 
ATOM     11  F   UNL     1      62.122  11.392 115.793  0.00  0.00    -0.189 F 
ATOM     27  C   UNL     1      62.399  13.191 114.265  0.00  0.00    +0.019 A 
ENDROOT
BRANCH   6   5
ATOM      1  N   UNL     1      62.491  15.263 110.379  0.00  0.00    -0.181 N 
ATOM      2  C   UNL     1      63.326  16.406 110.407  0.00  0.00    +0.168 A 
ATOM      3  N   UNL     1      63.768  16.854 111.594  0.00  0.00    -0.292 NA
ATOM      4  C   UNL     1      63.473  16.265 112.742  0.00  0.00    +0.069 A 
ATOM      5  C   UNL     1      62.671  15.132 112.797  0.00  0.00    +0.044 A 
ATOM     35  C   UNL     1      61.955  14.714 109.100  0.00  0.00    +0.243 C 
ATOM     36  C   UNL     1      62.169  14.620 111.594  0.00  0.00    +0.221 A 
ATOM     37  O   UNL     1      61.450  13.614 111.580  0.00  0.00    -0.405 OA
BRANCH   2  28
ATOM     28  C   UNL     1      63.717  17.212 109.150  0.00  0.00    +0.220 C 
BRANCH  28  29
ATOM     29  C   UNL     1      64.873  16.658 108.331  0.00  0.00    -0.020 A 
ATOM     30  C   UNL     1      66.075  16.286 108.928  0.00  0.00    -0.000 A 
ATOM     31  C   UNL     1      67.118  15.791 108.144  0.00  0.00    -0.008 A 
ATOM     32  C   UNL     1      66.958  15.679 106.763  0.00  0.00    -0.012 A 
ATOM     33  C   UNL     1      65.757  16.058 106.168  0.00  0.00    -0.008 A 
ATOM     34  C   UNL     1      64.719  16.552 106.952  0.00  0.00    -0.000 A 
ENDBRANCH  28  29
ENDBRANCH   2  28
ENDBRANCH   6   5
BRANCH   9  12
ATOM     12  O   UNL     1      61.523  12.945 117.791  0.00  0.00    -0.247 OA
BRANCH  12  13
ATOM     13  C   UNL     1      62.370  12.924 118.868  0.00  0.00    +0.137 A 
ATOM     14  C   UNL     1      63.697  13.326 118.780  0.00  0.00    +0.046 A 
ATOM     15  C   UNL     1      64.491  13.281 119.924  0.00  0.00    +0.063 A 
ATOM     16  N   UNL     1      64.007  12.863 121.090  0.00  0.00    -0.329 NA
ATOM     17  C   UNL     1      62.733  12.468 121.215  0.00  0.00    +0.017 A 
ATOM     18  C   UNL     1      62.264  12.049 122.455  0.00  0.00    +0.027 A 
ATOM     19  C   UNL     1      60.934  11.639 122.597  0.00  0.00    +0.129 A 
ATOM     20  C   UNL     1      60.089  11.663 121.505  0.00  0.00    +0.128 A 
ATOM     21  C   UNL     1      60.557  12.083 120.257  0.00  0.00    +0.030 A 
ATOM     26  C   UNL     1      61.886  12.484 120.107  0.00  0.00    +0.027 A 
BRANCH  20  22
ATOM     22  O   UNL     1      58.817  11.244 121.732  0.00  0.00    -0.321 OA
ATOM     23  C   UNL     1      57.905  11.298 120.635  0.00  0.00    +0.231 C 
ENDBRANCH  20  22
BRANCH  19  24
ATOM     24  O   UNL     1      60.396  11.209 123.776  0.00  0.00    -0.318 OA
ATOM     25  C   UNL     1      61.293  10.538 124.684  0.00  0.00    +0.233 C 
ENDBRANCH  19  24
ENDBRANCH  12  13
ENDBRANCH   9  12
TORSDOF 7
