REMARK  Name = 3vbt_ligand
REMARK  2 active torsions:
REMARK  status: ('A' for Active; 'I' for Inactive)
REMARK    1  A    between atoms: CAB_5  and  CAA_6
REMARK    2  A    between atoms: CAG_12  and  OAM_13
REMARK                            x       y       z     vdW  Elec       q    Type
REMARK                         _______ _______ _______ _____ _____    ______ ____
ROOT
ATOM      3  C   UNL     1     -18.962 -36.975  -0.092  0.00  0.00    +0.017 A 
ATOM      4  C   UNL     1     -18.680 -37.105  -1.440  0.00  0.00    +0.098 A 
ATOM      7  C   UNL     1     -19.387 -38.008  -2.212  0.00  0.00    +0.022 A 
ATOM      8  C   UNL     1     -20.363 -38.860  -1.691  0.00  0.00    +0.002 A 
ATOM      9  C   UNL     1     -20.623 -38.726  -0.346  0.00  0.00    +0.029 A 
ATOM     10 CL   UNL     1     -21.786 -39.780   0.439  0.00  0.00    -0.081 Cl
ATOM     11  C   UNL     1     -19.938 -37.810   0.436  0.00  0.00    +0.011 A 
ENDROOT
BRANCH   3   2
ATOM      1  C   UNL     1     -18.500 -35.901   2.047  0.00  0.00    -0.009 A 
ATOM      2  C   UNL     1     -18.304 -36.090   0.712  0.00  0.00    +0.032 A 
ATOM     12  N   UNL     1     -17.327 -35.277   0.284  0.00  0.00    -0.219 NA
ATOM     13  N   UNL     1     -16.848 -34.557   1.457  0.00  0.00    -0.223 N 
ATOM     14  H   UNL     1     -16.075 -33.878   1.491  0.00  0.00    +0.258 HD
ATOM     15  C   UNL     1     -17.620 -34.958   2.490  0.00  0.00    +0.145 A 
ENDBRANCH   3   2
BRANCH   4   5
ATOM      5  O   UNL     1     -17.718 -36.235  -1.977  0.00  0.00    -0.331 OA
ATOM      6  H   UNL     1     -17.352 -35.701  -1.282  0.00  0.00    +0.250 HD
ENDBRANCH   4   5
TORSDOF 2
