REMARK  Name = 3PF
REMARK  0 active torsions:
REMARK  status: ('A' for Active; 'I' for Inactive)
REMARK                            x       y       z     vdW  Elec       q    Type
REMARK                         _______ _______ _______ _____ _____    ______ ____
ROOT
ATOM      1  C   UNL     1      10.861  -4.036   2.269  0.00  0.00    +0.117 C 
ATOM      2  N   UNL     1      10.573  -5.010   1.259  0.00  0.00    -0.257 N 
ATOM      3  C   UNL     1       9.316  -5.467   1.117  0.00  0.00    +0.123 C 
ATOM      4  C   UNL     1       9.027  -6.412   0.120  0.00  0.00    +0.013 A 
ATOM      5  C   UNL     1       7.690  -6.897  -0.046  0.00  0.00    -0.001 A 
ATOM      6  C   UNL     1       7.418  -7.830  -1.040  0.00  0.00    -0.000 A 
ATOM      7  C   UNL     1       8.438  -8.297  -1.866  0.00  0.00    +0.001 A 
ATOM      8  C   UNL     1       9.735  -7.818  -1.710  0.00  0.00    +0.016 A 
ATOM      9  C   UNL     1      10.020  -6.864  -0.686  0.00  0.00    +0.072 A 
ATOM     10  N   UNL     1      11.317  -6.398  -0.515  0.00  0.00    -0.163 NA
ATOM     11  C   UNL     1      11.578  -5.456   0.444  0.00  0.00    +0.328 C 
ATOM     12  O   UNL     1      12.709  -5.025   0.583  0.00  0.00    -0.250 OA
ENDROOT
TORSDOF 0
