REMARK  Name = 4bb4_ligand
REMARK  7 active torsions:
REMARK  status: ('A' for Active; 'I' for Inactive)
REMARK    1  A    between atoms: C3_2  and  C4_8
REMARK    2  A    between atoms: N_3  and  C2_4
REMARK    3  A    between atoms: C2_4  and  C1_5
REMARK    4  A    between atoms: C1_5  and  O_6
REMARK    5  A    between atoms: O_6  and  C_7
REMARK    6  A    between atoms: C7_11  and  N1_14
REMARK    7  A    between atoms: C12_23  and  C16_25
REMARK                            x       y       z     vdW  Elec       q    Type
REMARK                         _______ _______ _______ _____ _____    ______ ____
ROOT
ATOM      7  N   UNL     1      14.325   8.476  11.528  0.00  0.00    -0.238 N 
ATOM      8  H   UNL     1      15.334   8.279  11.587  0.00  0.00    +0.221 HD
ATOM      9  C   UNL     1      13.559   7.391  11.803  0.00  0.00    +0.211 A 
ATOM     10  N   UNL     1      14.237   6.324  12.261  0.00  0.00    -0.238 NA
ATOM     11  C   UNL     1      13.544   5.220  12.434  0.00  0.00    +0.136 A 
ATOM     12  C   UNL     1      12.138   5.112  12.270  0.00  0.00    +0.026 A 
ATOM     13  C   UNL     1      11.349   3.957  12.503  0.00  0.00    +0.039 A 
ATOM     14  C   UNL     1       9.981   3.938  12.266  0.00  0.00    -0.002 A 
ATOM     21  C   UNL     1       9.380   5.096  11.763  0.00  0.00    +0.023 A 
ATOM     22  C   UNL     1      10.106   6.220  11.491  0.00  0.00    +0.023 A 
ATOM     23  C   UNL     1      11.495   6.270  11.765  0.00  0.00    +0.044 A 
ATOM     24  N   UNL     1      12.182   7.426  11.496  0.00  0.00    -0.261 NA
ENDROOT
BRANCH   7   6
ATOM      3  C   UNL     1      13.585  12.556  10.907  0.00  0.00    +0.038 A 
ATOM      4  C   UNL     1      12.524  11.672  11.092  0.00  0.00    +0.013 A 
ATOM      5  C   UNL     1      12.757  10.322  11.290  0.00  0.00    +0.023 A 
ATOM      6  C   UNL     1      14.047   9.812  11.180  0.00  0.00    +0.072 A 
ATOM     25  C   UNL     1      15.115  10.699  11.106  0.00  0.00    +0.023 A 
ATOM     26  C   UNL     1      14.884  12.049  10.903  0.00  0.00    +0.013 A 
BRANCH   3   2
ATOM      1  O   UNL     1      14.165  14.692  10.041  0.00  0.00    -0.390 OA
ATOM      2  C   UNL     1      13.353  14.019  10.673  0.00  0.00    +0.197 C 
ATOM     27  N   UNL     1      12.240  14.546  11.198  0.00  0.00    -0.286 N 
ATOM     28  H   UNL     1      11.627  13.945  11.712  0.00  0.00    +0.184 HD
BRANCH  27  29
ATOM     29  C   UNL     1      11.875  15.953  11.059  0.00  0.00    +0.162 C 
BRANCH  29  30
ATOM     30  C   UNL     1      12.397  16.811  12.176  0.00  0.00    +0.183 C 
BRANCH  30  31
ATOM     31  O   UNL     1      11.816  16.356  13.382  0.00  0.00    -0.381 OA
ATOM     32  C   UNL     1      12.264  17.093  14.508  0.00  0.00    +0.193 C 
ENDBRANCH  30  31
ENDBRANCH  29  30
ENDBRANCH  27  29
ENDBRANCH   3   2
ENDBRANCH   7   6
BRANCH  14  15
ATOM     15  C   UNL     1       9.172   2.772  12.684  0.00  0.00    +0.001 A 
ATOM     16  C   UNL     1       8.887   2.539  14.030  0.00  0.00    +0.043 A 
ATOM     17  C   UNL     1       8.131   1.435  14.382  0.00  0.00    +0.092 A 
ATOM     18  N   UNL     1       7.668   0.545  13.500  0.00  0.00    -0.299 NA
ATOM     19  C   UNL     1       7.966   0.761  12.214  0.00  0.00    +0.092 A 
ATOM     20  C   UNL     1       8.713   1.834  11.766  0.00  0.00    +0.043 A 
ENDBRANCH  14  15
TORSDOF 6
