REMARK  Name = 3g90_ligand
REMARK  3 active torsions:
REMARK  status: ('A' for Active; 'I' for Inactive)
REMARK    1  A    between atoms: O1_1  and  N2_2
REMARK    2  A    between atoms: N6_6  and  C7_7
REMARK    3  A    between atoms: C7_7  and  C8_8
REMARK                            x       y       z     vdW  Elec       q    Type
REMARK                         _______ _______ _______ _____ _____    ______ ____
ROOT
ATOM      3  N   UNL     1      18.015   7.154  32.876  0.00  0.00    -0.121 NA
ATOM      4  C   UNL     1      19.142   7.298  32.241  0.00  0.00    +0.158 C 
ATOM      5  C   UNL     1      20.079   8.457  32.156  0.00  0.00    +0.023 A 
ATOM      6  C   UNL     1      20.093   9.745  32.699  0.00  0.00    +0.020 A 
ATOM      7  C   UNL     1      21.150  10.602  32.412  0.00  0.00    +0.115 A 
ATOM      8  F   UNL     1      21.161  11.842  32.932  0.00  0.00    -0.197 F 
ATOM      9  C   UNL     1      22.194  10.202  31.584  0.00  0.00    +0.013 A 
ATOM     10  C   UNL     1      22.178   8.930  31.040  0.00  0.00    +0.006 A 
ATOM     11  C   UNL     1      21.126   8.053  31.320  0.00  0.00    +0.074 A 
ATOM     12  N   UNL     1      20.889   6.747  30.899  0.00  0.00    -0.212 N 
ATOM     25  C   UNL     1      19.752   6.256  31.397  0.00  0.00    +0.247 C 
ATOM     26  O   UNL     1      19.288   5.152  31.194  0.00  0.00    -0.373 OA
ENDROOT
BRANCH   3   1
ATOM      1  O   UNL     1      17.509   8.208  33.657  0.00  0.00    -0.235 OA
ATOM      2  H   UNL     1      16.686   7.943  34.050  0.00  0.00    +0.292 HD
ENDBRANCH   3   1
BRANCH  12  13
ATOM     13  C   UNL     1      21.754   5.994  29.999  0.00  0.00    +0.228 C 
BRANCH  13  14
ATOM     14  C   UNL     1      22.689   5.115  30.782  0.00  0.00    +0.006 A 
ATOM     15  C   UNL     1      24.057   5.247  30.579  0.00  0.00    +0.097 A 
ATOM     16  O   UNL     1      24.518   6.177  29.695  0.00  0.00    -0.301 OA
ATOM     17  C   UNL     1      25.879   6.599  29.842  0.00  0.00    +0.352 C 
ATOM     18  O   UNL     1      26.669   5.407  29.922  0.00  0.00    -0.340 OA
ATOM     19  C   UNL     1      26.417   4.583  31.072  0.00  0.00    +0.220 C 
ATOM     20  C   UNL     1      24.938   4.437  31.286  0.00  0.00    +0.004 A 
ATOM     21  C   UNL     1      24.462   3.503  32.187  0.00  0.00    +0.006 A 
ATOM     22  C   UNL     1      23.096   3.371  32.387  0.00  0.00    +0.108 A 
ATOM     23  F   UNL     1      22.628   2.455  33.263  0.00  0.00    -0.196 F 
ATOM     24  C   UNL     1      22.208   4.177  31.691  0.00  0.00    +0.006 A 
ENDBRANCH  13  14
ENDBRANCH  12  13
TORSDOF 3
