REMARK  Name = 4br3_ligand
REMARK  8 active torsions:
REMARK  status: ('A' for Active; 'I' for Inactive)
REMARK    1  A    between atoms: C1_1  and  N1_2
REMARK    2  A    between atoms: N1_2  and  C2_3
REMARK    3  A    between atoms: N2_9  and  C8_10
REMARK    4  A    between atoms: C8_10  and  C9_11
REMARK    5  A    between atoms: C14_16  and  C15_17
REMARK    6  A    between atoms: C20_22  and  C21_23
REMARK    7  A    between atoms: C21_23  and  N3_24
REMARK    8  A    between atoms: C25_30  and  N6_31
REMARK                            x       y       z     vdW  Elec       q    Type
REMARK                         _______ _______ _______ _____ _____    ______ ____
ROOT
ATOM     12  C   UNL     1     -12.485 -16.232   6.985  0.00  0.00    -0.028 A 
ATOM     13  C   UNL     1     -12.232 -17.470   7.590  0.00  0.00    -0.002 A 
ATOM     14  C   UNL     1     -12.952 -17.856   8.726  0.00  0.00    -0.001 A 
ATOM     15  C   UNL     1     -13.932 -17.027   9.285  0.00  0.00    -0.011 A 
ATOM     29  C   UNL     1     -14.185 -15.795   8.689  0.00  0.00    -0.001 A 
ATOM     30  C   UNL     1     -13.467 -15.407   7.560  0.00  0.00    -0.002 A 
ENDROOT
BRANCH  12  11
ATOM      8  C   UNL     1     -10.473 -14.782   3.535  0.00  0.00    -0.006 A 
ATOM      9  C   UNL     1     -10.005 -15.920   4.192  0.00  0.00    -0.001 A 
ATOM     10  C   UNL     1     -10.661 -16.422   5.327  0.00  0.00    -0.002 A 
ATOM     11  C   UNL     1     -11.793 -15.779   5.837  0.00  0.00    -0.028 A 
ATOM     31  C   UNL     1     -12.228 -14.620   5.176  0.00  0.00    -0.002 A 
ATOM     32  C   UNL     1     -11.596 -14.131   4.045  0.00  0.00    -0.001 A 
BRANCH   8   7
ATOM      7  C   UNL     1      -9.803 -14.260   2.397  0.00  0.00    +0.293 C 
BRANCH   7   6
ATOM      1  C   UNL     1      -5.816 -10.247   5.463  0.00  0.00    +0.150 C 
ATOM      2  N   UNL     1      -6.944  -9.935   4.561  0.00  0.00    -0.356 N 
ATOM      3  C   UNL     1      -7.641 -10.943   4.013  0.00  0.00    +0.100 A 
ATOM      4  C   UNL     1      -7.240 -12.247   4.259  0.00  0.00    +0.150 A 
ATOM      5  C   UNL     1      -7.932 -13.334   3.728  0.00  0.00    +0.287 A 
ATOM      6  N   UNL     1      -9.050 -13.098   2.900  0.00  0.00    -0.173 N 
ATOM     33  C   UNL     1      -9.486 -11.777   2.654  0.00  0.00    +0.287 A 
ATOM     34  C   UNL     1      -8.764 -10.712   3.210  0.00  0.00    +0.150 A 
ATOM     35  C   UNL     1      -7.373  -8.547   4.351  0.00  0.00    +0.150 C 
ENDBRANCH   7   6
ENDBRANCH   8   7
ENDBRANCH  12  11
BRANCH  15  16
ATOM     16  C   UNL     1     -14.674 -17.414  10.423  0.00  0.00    +0.263 C 
BRANCH  16  17
ATOM     17  N   UNL     1     -14.053 -16.936  11.695  0.00  0.00    -0.189 N 
ATOM     18  C   UNL     1     -14.241 -15.594  12.124  0.00  0.00    +0.334 A 
ATOM     19  N   UNL     1     -13.634 -15.179  13.324  0.00  0.00    -0.204 NA
ATOM     20  C   UNL     1     -12.905 -16.081  14.014  0.00  0.00    +0.159 A 
ATOM     24  C   UNL     1     -12.740 -17.353  13.589  0.00  0.00    +0.097 A 
ATOM     25  N   UNL     1     -12.075 -18.388  14.110  0.00  0.00    -0.360 NA
ATOM     26  C   UNL     1     -12.228 -19.440  13.310  0.00  0.00    +0.051 A 
ATOM     27  N   UNL     1     -12.985 -19.065  12.285  0.00  0.00    -0.343 NA
ATOM     28  C   UNL     1     -13.307 -17.778  12.446  0.00  0.00    +0.133 A 
BRANCH  20  21
ATOM     21  N   UNL     1     -12.306 -15.751  15.160  0.00  0.00    -0.291 N 
ATOM     22  H   UNL     1     -11.752 -16.452  15.672  0.00  0.00    +0.198 HD
ATOM     23  H   UNL     1     -12.397 -14.795  15.532  0.00  0.00    +0.198 HD
ENDBRANCH  20  21
ENDBRANCH  16  17
ENDBRANCH  15  16
TORSDOF 6
