REMARK  Name = 6RAA
REMARK  5 active torsions:
REMARK  status: ('A' for Active; 'I' for Inactive)
REMARK    1  A    between atoms: C3_3  and  C4_4
REMARK    2  A    between atoms: C4_4  and  C7_7
REMARK    3  A    between atoms: C10_10  and  C11_11
REMARK    4  A    between atoms: C12_12  and  N2_25
REMARK    5  A    between atoms: C15_14  and  C16_32
REMARK                            x       y       z     vdW  Elec       q    Type
REMARK                         _______ _______ _______ _____ _____    ______ ____
ROOT
ATOM     10  C   UNL     1      13.760  18.223  27.245  0.00  0.00    +0.000 A 
ATOM     11  C   UNL     1      12.644  17.498  27.651  0.00  0.00    -0.130 A 
ATOM     12  C   UNL     1      11.955  16.690  26.762  0.00  0.00    -0.130 A 
ATOM     13  C   UNL     1      12.369  16.572  25.435  0.00  0.00    +0.000 A 
ATOM     32  C   UNL     1      13.488  17.281  25.030  0.00  0.00    -0.130 A 
ATOM     33  C   UNL     1      14.171  18.098  25.921  0.00  0.00    -0.130 A 
ENDROOT
BRANCH  10   9
ATOM      9  C   UNL     1      14.558  19.101  28.226  0.00  0.00    +0.000 C 
ATOM     34  C   UNL     1      15.652  18.229  28.868  0.00  0.00    -0.150 C 
ATOM     35  C   UNL     1      13.744  19.744  29.367  0.00  0.00    -0.150 C 
BRANCH   9   7
ATOM      1  C   UNL     1      14.449  21.851  24.336  0.00  0.00    +0.100 C 
ATOM      2  N   UNL     1      13.003  22.078  24.378  0.00  0.00    -0.600 NA
ATOM      3  C   UNL     1      12.409  21.921  23.034  0.00  0.00    +0.050 C 
ATOM      4  C   UNL     1      12.390  21.147  25.326  0.00  0.00    +0.100 C 
ATOM      5  C   UNL     1      12.986  21.315  26.713  0.00  0.00    +0.000 C 
ATOM      6  N   UNL     1      14.438  21.088  26.668  0.00  0.00    -0.250 N 
ATOM      7  C   UNL     1      15.202  20.181  27.333  0.00  0.00    +0.600 C 
ATOM      8  O   UNL     1      16.406  20.104  27.172  0.00  0.00    -0.550 OA
ATOM     36  C   UNL     1      15.064  22.019  25.717  0.00  0.00    +0.000 C 
ENDBRANCH   9   7
ENDBRANCH  10   9
BRANCH  13  14
ATOM     14  C   UNL     1      11.638  15.713  24.448  0.00  0.00    +0.600 C 
ATOM     15  N   UNL     1      11.017  14.600  24.950  0.00  0.00    -0.400 NA
ATOM     31  O   UNL     1      11.581  16.009  23.254  0.00  0.00    -0.550 OA
BRANCH  15  16
ATOM     16  C   UNL     1      10.270  13.683  24.212  0.00  0.00    +0.200 A 
ATOM     17  N   UNL     1       9.762  12.586  24.821  0.00  0.00    -0.450 NA
ATOM     18  C   UNL     1       9.206  11.889  23.837  0.00  0.00    +0.150 A 
ATOM     19  C   UNL     1       8.669  10.581  23.822  0.00  0.00    -0.100 C 
ATOM     20  C   UNL     1       8.251  10.059  22.650  0.00  0.00    -0.100 C 
ATOM     21  C   UNL     1       8.324  10.798  21.390  0.00  0.00    +0.000 C 
ATOM     28  C   UNL     1       8.867  12.040  21.437  0.00  0.00    -0.050 C 
ATOM     29  N   UNL     1       9.312  12.573  22.630  0.00  0.00    -0.150 N 
ATOM     30  C   UNL     1      10.008  13.719  22.874  0.00  0.00    -0.050 A 
BRANCH  21  22
ATOM     22  C   UNL     1       7.807  10.194  20.126  0.00  0.00    +0.000 A 
ATOM     23  C   UNL     1       8.268  10.619  18.885  0.00  0.00    -0.130 A 
ATOM     24  C   UNL     1       7.776  10.012  17.748  0.00  0.00    +0.250 A 
ATOM     25  N   UNL     1       6.865   9.026  17.763  0.00  0.00    -0.760 NA
ATOM     26  C   UNL     1       6.428   8.632  18.960  0.00  0.00    +0.250 A 
ATOM     27  C   UNL     1       6.868   9.172  20.157  0.00  0.00    -0.130 A 
ENDBRANCH  21  22
ENDBRANCH  15  16
ENDBRANCH  13  14
TORSDOF 5
