REMARK  Name = 3gen_ligand
REMARK  4 active torsions:
REMARK  status: ('A' for Active; 'I' for Inactive)
REMARK    1  A    between atoms: N2_8  and  C17_9
REMARK    2  A    between atoms: C3_15  and  C4_16
REMARK    3  A    between atoms: C7_19  and  O_22
REMARK    4  A    between atoms: O_22  and  C8_23
REMARK                            x       y       z     vdW  Elec       q    Type
REMARK                         _______ _______ _______ _____ _____    ______ ____
ROOT
ATOM      1  N   UNL     1     -19.393   4.749 -16.815  0.00  0.00    -0.316 N 
ATOM      2  H   UNL     1     -20.227   4.279 -17.194  0.00  0.00    +0.182 HD
ATOM      3  H   UNL     1     -19.352   5.000 -15.817  0.00  0.00    +0.182 HD
ATOM      4  C   UNL     1     -18.358   5.035 -17.622  0.00  0.00    +0.117 A 
ATOM      5  C   UNL     1     -17.201   5.671 -17.174  0.00  0.00    +0.053 A 
ATOM      6  C   UNL     1     -16.723   6.182 -15.962  0.00  0.00    -0.010 A 
ATOM     20  C   UNL     1     -15.473   6.700 -16.250  0.00  0.00    +0.137 A 
ATOM     21  N   UNL     1     -15.209   6.529 -17.551  0.00  0.00    -0.246 N 
ATOM     27  C   UNL     1     -16.223   5.914 -18.131  0.00  0.00    +0.141 A 
ATOM     28  N   UNL     1     -16.384   5.544 -19.432  0.00  0.00    -0.276 NA
ATOM     29  C   UNL     1     -17.502   4.930 -19.822  0.00  0.00    +0.149 A 
ATOM     30  N   UNL     1     -18.472   4.678 -18.931  0.00  0.00    -0.273 NA
ENDROOT
BRANCH   6   7
ATOM      7  C   UNL     1     -17.290   6.111 -14.674  0.00  0.00    -0.047 A 
ATOM      8  C   UNL     1     -17.366   7.235 -13.838  0.00  0.00    -0.014 A 
ATOM      9  C   UNL     1     -17.806   7.141 -12.514  0.00  0.00    +0.022 A 
ATOM     10  C   UNL     1     -18.203   5.913 -11.990  0.00  0.00    +0.112 A 
ATOM     18  C   UNL     1     -18.111   4.787 -12.804  0.00  0.00    +0.022 A 
ATOM     19  C   UNL     1     -17.670   4.884 -14.125  0.00  0.00    -0.014 A 
BRANCH  10  11
ATOM     11  O   UNL     1     -18.841   5.780 -10.774  0.00  0.00    -0.260 OA
BRANCH  11  12
ATOM     12  C   UNL     1     -19.803   6.621 -10.287  0.00  0.00    +0.115 A 
ATOM     13  C   UNL     1     -19.729   7.006  -8.948  0.00  0.00    +0.027 A 
ATOM     14  C   UNL     1     -20.691   7.857  -8.430  0.00  0.00    -0.011 A 
ATOM     15  C   UNL     1     -21.746   8.285  -9.222  0.00  0.00    -0.020 A 
ATOM     16  C   UNL     1     -21.824   7.881 -10.546  0.00  0.00    -0.011 A 
ATOM     17  C   UNL     1     -20.856   7.049 -11.090  0.00  0.00    +0.027 A 
ENDBRANCH  11  12
ENDBRANCH  10  11
ENDBRANCH   6   7
BRANCH  21  22
ATOM     22  C   UNL     1     -14.052   6.997 -18.340  0.00  0.00    +0.132 C 
ATOM     23  C   UNL     1     -12.704   6.672 -17.722  0.00  0.00    +0.036 C 
ATOM     24  C   UNL     1     -11.768   7.664 -18.377  0.00  0.00    +0.003 C 
ATOM     25  C   UNL     1     -12.605   8.910 -18.618  0.00  0.00    +0.003 C 
ATOM     26  C   UNL     1     -14.067   8.501 -18.548  0.00  0.00    +0.036 C 
ENDBRANCH  21  22
TORSDOF 4
