REMARK  Name = 3new_ligand
REMARK  3 active torsions:
REMARK  status: ('A' for Active; 'I' for Inactive)
REMARK    1  A    between atoms: C6_3  and  C11_12
REMARK    2  A    between atoms: C7_4  and  C13_7
REMARK    3  A    between atoms: C8_5  and  C14_14
REMARK                            x       y       z     vdW  Elec       q    Type
REMARK                         _______ _______ _______ _____ _____    ______ ____
ROOT
ATOM     11  C   UNL     1      23.882  15.828   9.193  0.00  0.00    +0.130 A 
ATOM     12  N   UNL     1      24.374  15.294   8.079  0.00  0.00    -0.233 N 
ATOM     13  H   UNL     1      24.810  14.368   7.959  0.00  0.00    +0.288 HD
ATOM     14  N   UNL     1      24.176  16.221   7.165  0.00  0.00    -0.258 NA
ATOM     15  C   UNL     1      23.564  17.380   7.591  0.00  0.00    +0.126 A 
ATOM     16  N   UNL     1      23.254  18.446   6.803  0.00  0.00    -0.208 N 
ATOM     17  H   UNL     1      23.444  18.538   5.826  0.00  0.00    +0.256 HD
ATOM     18  C   UNL     1      22.650  19.342   7.579  0.00  0.00    +0.256 A 
ATOM     19  O   UNL     1      22.279  20.489   6.952  0.00  0.00    -0.383 OA
ATOM     20  C   UNL     1      22.344  19.270   8.937  0.00  0.00    +0.166 A 
ATOM     21  C   UNL     1      22.679  18.146   9.665  0.00  0.00    +0.054 A 
ATOM     26  C   UNL     1      23.343  17.142   8.945  0.00  0.00    +0.059 A 
ENDROOT
BRANCH  11  10
ATOM      1  C   UNL     1      24.613  15.574  11.525  0.00  0.00    +0.066 A 
ATOM      2  C   UNL     1      24.814  14.762  12.609  0.00  0.00    +0.049 A 
ATOM      3  C   UNL     1      24.502  13.426  12.641  0.00  0.00    +0.053 A 
ATOM      4  C   UNL     1      23.993  12.870  11.522  0.00  0.00    +0.038 A 
ATOM      5  C   UNL     1      23.805  13.657  10.409  0.00  0.00    +0.064 A 
ATOM     10  C   UNL     1      24.084  15.007  10.389  0.00  0.00    +0.051 A 
BRANCH   2   6
ATOM      6  C   UNL     1      25.416  15.298  13.857  0.00  0.00    +0.377 C 
ATOM      7  F   UNL     1      25.822  16.595  14.033  0.00  0.00    -0.220 F 
ATOM      8  F   UNL     1      26.574  14.619  14.099  0.00  0.00    -0.220 F 
ATOM      9  F   UNL     1      24.562  15.063  14.859  0.00  0.00    -0.220 F 
ENDBRANCH   2   6
ENDBRANCH  11  10
BRANCH  21  22
ATOM     22  C   UNL     1      22.371  18.056  11.114  0.00  0.00    +0.375 C 
ATOM     23  F   UNL     1      23.453  18.339  11.841  0.00  0.00    -0.222 F 
ATOM     24  F   UNL     1      22.052  16.825  11.604  0.00  0.00    -0.222 F 
ATOM     25  F   UNL     1      21.487  18.929  11.614  0.00  0.00    -0.222 F 
ENDBRANCH  21  22
TORSDOF 3
