REMARK  Name = 2C6T
REMARK  5 active torsions:
REMARK  status: ('A' for Active; 'I' for Inactive)
REMARK    1  A    between atoms: N_1  and  S_2
REMARK    2  A    between atoms: S_2  and  C_5
REMARK    3  A    between atoms: C_10  and  N_11
REMARK    4  A    between atoms: C_20  and  O_21
REMARK    5  A    between atoms: O_21  and  C_22
REMARK                            x       y       z     vdW  Elec       q    Type
REMARK                         _______ _______ _______ _____ _____    ______ ____
ROOT
ATOM      9  N   UNL     1      36.177 136.086  32.405  0.00  0.00    -0.299 N 
ATOM     10  H   UNL     1      35.693 137.037  32.322  0.00  0.00    +0.154 HD
ATOM     11  C   UNL     1      37.179 135.793  31.548  0.00  0.00    +0.133 A 
ATOM     12  C   UNL     1      38.117 134.819  31.841  0.00  0.00    +0.111 A 
ATOM     13  C   UNL     1      39.160 134.569  30.919  0.00  0.00    +0.221 A 
ATOM     21  N   UNL     1      39.247 135.319  29.796  0.00  0.00    -0.175 NA
ATOM     22  C   UNL     1      38.324 136.287  29.589  0.00  0.00    +0.258 A 
ATOM     23  N   UNL     1      38.202 137.111  28.571  0.00  0.00    -0.197 NA
ATOM     24  C   UNL     1      37.091 137.882  28.808  0.00  0.00    +0.247 A 
ATOM     25  N   UNL     1      36.561 137.490  29.983  0.00  0.00    -0.151 NA
ATOM     26  N   UNL     1      37.321 136.504  30.439  0.00  0.00    -0.182 N 
ENDROOT
BRANCH   9   8
ATOM      5  C   UNL     1      34.729 133.491  35.316  0.00  0.00    +0.105 A 
ATOM      6  C   UNL     1      35.209 132.975  34.091  0.00  0.00    +0.030 A 
ATOM      7  C   UNL     1      35.711 133.839  33.122  0.00  0.00    +0.025 A 
ATOM      8  C   UNL     1      35.757 135.222  33.370  0.00  0.00    +0.033 A 
ATOM     27  C   UNL     1      35.257 135.736  34.588  0.00  0.00    +0.025 A 
ATOM     28  C   UNL     1      34.762 134.869  35.561  0.00  0.00    +0.030 A 
BRANCH   5   4
ATOM      4  S   UNL     1      34.095 132.392  36.548  0.00  0.00    +0.056 S 
ATOM     29  O   UNL     1      33.126 131.523  35.956  0.00  0.00    -0.153 OA
ATOM     30  O   UNL     1      33.475 133.162  37.589  0.00  0.00    -0.153 OA
BRANCH   4   1
ATOM      1  N   UNL     1      35.285 131.511  37.153  0.00  0.00    -0.203 NA
ATOM      2  H   UNL     1      36.016 132.154  37.597  0.00  0.00    +0.144 HD
ATOM      3  H   UNL     1      34.896 130.847  37.897  0.00  0.00    +0.144 HD
ENDBRANCH   4   1
ENDBRANCH   5   4
ENDBRANCH   9   8
BRANCH  13  14
ATOM     14  O   UNL     1      40.083 133.589  31.193  0.00  0.00    -0.473 OA
BRANCH  14  15
ATOM     15  C   UNL     1      40.786 133.193  30.079  0.00  0.00    +0.175 C 
ATOM     16  C   UNL     1      39.846 132.577  29.032  0.00  0.00    +0.044 C 
ATOM     17  C   UNL     1      39.107 131.371  29.636  0.00  0.00    +0.003 C 
ATOM     18  C   UNL     1      40.097 130.327  30.172  0.00  0.00    +0.000 C 
ATOM     19  C   UNL     1      41.052 130.970  31.185  0.00  0.00    +0.003 C 
ATOM     20  C   UNL     1      41.800 132.130  30.518  0.00  0.00    +0.044 C 
ENDBRANCH  14  15
ENDBRANCH  13  14
TORSDOF 5
