REMARK  Name = 2VGB
REMARK  9 active torsions:
REMARK  status: ('A' for Active; 'I' for Inactive)
REMARK    1  A    between atoms: P_1  and  O_5
REMARK    2  A    between atoms: O_5  and  C_6
REMARK    3  A    between atoms: C_6  and  C_7
REMARK    4  A    between atoms: C_7  and  O_8
REMARK    5  A    between atoms: C_9  and  O_10
REMARK    6  A    between atoms: C_11  and  O_12
REMARK    7  A    between atoms: C_13  and  C_15
REMARK    8  A    between atoms: C_15  and  O_16
REMARK    9  A    between atoms: O_16  and  P_17
REMARK                            x       y       z     vdW  Elec       q    Type
REMARK                         _______ _______ _______ _____ _____    ______ ____
ROOT
ATOM      4  C   UNL     1      26.581 -27.772  32.991  0.00  0.00    +0.221 C 
ATOM      5  O   UNL     1      27.248 -26.528  32.941  0.00  0.00    -0.336 OA
ATOM      6  C   UNL     1      27.641 -26.154  31.635  0.00  0.00    +0.179 C 
ATOM     13  C   UNL     1      26.851 -27.089  30.742  0.00  0.00    +0.179 C 
ATOM     16  C   UNL     1      26.746 -28.325  31.592  0.00  0.00    +0.207 C 
ENDROOT
BRANCH  13  14
ATOM     14  O   UNL     1      27.559 -27.401  29.581  0.00  0.00    -0.386 OA
ATOM     15  H   UNL     1      28.520 -27.740  29.837  0.00  0.00    +0.210 HD
ENDBRANCH  13  14
BRANCH  16  17
ATOM     17  O   UNL     1      25.672 -29.129  31.207  0.00  0.00    -0.384 OA
ATOM     18  H   UNL     1      25.587 -29.941  31.868  0.00  0.00    +0.210 HD
ENDBRANCH  16  17
BRANCH   4  19
ATOM     19  O   UNL     1      25.191 -27.563  33.340  0.00  0.00    -0.361 OA
ATOM     20  H   UNL     1      24.695 -28.488  33.372  0.00  0.00    +0.213 HD
ENDBRANCH   4  19
BRANCH   4   3
ATOM      3  C   UNL     1      27.198 -28.664  34.055  0.00  0.00    +0.231 C 
BRANCH   3   2
ATOM      2  O   UNL     1      28.602 -28.626  33.886  0.00  0.00    -0.362 OA
BRANCH   2   1
ATOM      1  P   UNL     1      29.590 -29.437  34.850  0.00  0.00    -0.015 P 
ATOM     21  O   UNL     1      30.812 -29.701  33.994  0.00  0.00    -0.577 OA
ATOM     22  O   UNL     1      29.900 -28.625  36.080  0.00  0.00    -0.638 OA
ATOM     23  O   UNL     1      28.923 -30.705  35.328  0.00  0.00    -0.577 OA
ENDBRANCH   2   1
ENDBRANCH   3   2
ENDBRANCH   4   3
BRANCH   6   7
ATOM      7  C   UNL     1      27.410 -24.649  31.428  0.00  0.00    +0.198 C 
BRANCH   7   8
ATOM      8  O   UNL     1      28.307 -24.103  30.473  0.00  0.00    -0.365 OA
BRANCH   8   9
ATOM      9  P   UNL     1      29.002 -22.662  30.594  0.00  0.00    -0.015 P 
ATOM     10  O   UNL     1      28.011 -21.613  30.963  0.00  0.00    -0.577 OA
ATOM     11  O   UNL     1      29.657 -22.348  29.293  0.00  0.00    -0.577 OA
ATOM     12  O   UNL     1      30.057 -22.671  31.644  0.00  0.00    -0.638 OA
ENDBRANCH   8   9
ENDBRANCH   7   8
ENDBRANCH   6   7
TORSDOF 9
