REMARK  Name = 2wou_ligand
REMARK  8 active torsions:
REMARK  status: ('A' for Active; 'I' for Inactive)
REMARK    1  A    between atoms: C1_1  and  C2_2
REMARK    2  A    between atoms: C5_5  and  O9_9
REMARK    3  A    between atoms: C6_6  and  C8_8
REMARK    4  A    between atoms: O9_9  and  C10_10
REMARK    5  A    between atoms: C14_14  and  N16_16
REMARK    6  A    between atoms: N16_16  and  C17_17
REMARK    7  A    between atoms: C20_20  and  S23_23
REMARK    8  A    between atoms: S23_23  and  N26_26
REMARK                            x       y       z     vdW  Elec       q    Type
REMARK                         _______ _______ _______ _____ _____    ______ ____
ROOT
ATOM      8  C   UNL     1       4.012   8.519   3.606  0.00  0.00    +0.124 A 
ATOM      9  C   UNL     1       2.769   7.964   3.410  0.00  0.00    +0.073 A 
ATOM     10  C   UNL     1       2.639   6.926   2.509  0.00  0.00    +0.120 A 
ATOM     25  N   UNL     1       3.669   6.440   1.809  0.00  0.00    -0.296 NA
ATOM     26  C   UNL     1       4.866   6.998   2.025  0.00  0.00    +0.063 A 
ATOM     27  C   UNL     1       5.092   8.031   2.906  0.00  0.00    +0.040 A 
ENDROOT
BRANCH  10  11
ATOM     11  N   UNL     1       1.421   6.317   2.264  0.00  0.00    -0.263 N 
ATOM     12  H   UNL     1       1.330   5.864   1.343  0.00  0.00    +0.212 HD
BRANCH  11  13
ATOM     13  C   UNL     1       0.284   6.228   3.098  0.00  0.00    +0.061 A 
ATOM     14  C   UNL     1       0.350   6.290   4.481  0.00  0.00    +0.016 A 
ATOM     15  C   UNL     1      -0.788   6.196   5.255  0.00  0.00    +0.015 A 
ATOM     16  C   UNL     1      -2.003   6.027   4.638  0.00  0.00    +0.096 A 
ATOM     23  C   UNL     1      -2.086   5.960   3.263  0.00  0.00    +0.015 A 
ATOM     24  C   UNL     1      -0.945   6.061   2.498  0.00  0.00    +0.016 A 
BRANCH  16  17
ATOM     17  S   UNL     1      -3.514   5.890   5.587  0.00  0.00    +0.061 S 
ATOM     21  O   UNL     1      -4.365   5.196   4.641  0.00  0.00    -0.152 OA
ATOM     22  O   UNL     1      -3.808   7.201   6.136  0.00  0.00    -0.152 OA
BRANCH  17  18
ATOM     18  N   UNL     1      -3.293   4.999   6.710  0.00  0.00    -0.262 NA
ATOM     19  H   UNL     1      -2.397   4.577   6.844  0.00  0.00    +0.163 HD
ATOM     20  H   UNL     1      -4.037   4.807   7.350  0.00  0.00    +0.163 HD
ENDBRANCH  17  18
ENDBRANCH  16  17
ENDBRANCH  11  13
ENDBRANCH  10  11
BRANCH   8   7
ATOM      7  O   UNL     1       4.114   9.560   4.518  0.00  0.00    -0.252 OA
BRANCH   7   6
ATOM      1  C   UNL     1       9.210  11.740   5.130  0.00  0.00    +0.097 C 
ATOM      2  C   UNL     1       7.849  11.178   4.949  0.00  0.00    +0.006 A 
ATOM      3  N   UNL     1       7.492  10.135   5.706  0.00  0.00    -0.308 NA
ATOM      4  C   UNL     1       6.268   9.609   5.568  0.00  0.00    +0.051 A 
ATOM      5  C   UNL     1       5.894   8.442   6.434  0.00  0.00    +0.101 C 
ATOM      6  C   UNL     1       5.373  10.117   4.650  0.00  0.00    +0.141 A 
ATOM     28  C   UNL     1       5.731  11.190   3.869  0.00  0.00    +0.042 A 
ATOM     29  C   UNL     1       6.991  11.731   4.023  0.00  0.00    +0.009 A 
ENDBRANCH   7   6
ENDBRANCH   8   7
TORSDOF 6
