REMARK  Name = 1oiu_ligand
REMARK  6 active torsions:
REMARK  status: ('A' for Active; 'I' for Inactive)
REMARK    1  A    between atoms: C10_3  and  C11_4
REMARK    2  A    between atoms: C10_3  and  O6_18
REMARK    3  A    between atoms: C20_11  and  S23_26
REMARK    4  A    between atoms: N2_12  and  C22_14
REMARK    5  A    between atoms: N26_15  and  S23_26
REMARK    6  A    between atoms: C6_17  and  O6_18
REMARK                            x       y       z     vdW  Elec       q    Type
REMARK                         _______ _______ _______ _____ _____    ______ ____
ROOT
ATOM      1  C   UNL     1       7.916  43.612  49.851  0.00  0.00    +0.179 A 
ATOM      2  N   UNL     1       9.210  43.969  49.998  0.00  0.00    -0.257 NA
ATOM      3  C   UNL     1       9.555  44.966  50.841  0.00  0.00    +0.145 A 
ATOM      4  N   UNL     1      10.811  45.437  51.102  0.00  0.00    -0.240 N 
ATOM      5  H   UNL     1      11.713  45.133  50.709  0.00  0.00    +0.238 HD
ATOM      6  C   UNL     1      10.552  46.441  52.042  0.00  0.00    +0.235 A 
ATOM      7  N   UNL     1       9.223  46.619  52.398  0.00  0.00    -0.302 NA
ATOM      8  C   UNL     1       8.584  45.672  51.622  0.00  0.00    +0.104 A 
ATOM      9  C   UNL     1       7.196  45.231  51.425  0.00  0.00    +0.176 A 
ATOM     18  N   UNL     1       6.935  44.228  50.551  0.00  0.00    -0.240 NA
ATOM     19  N   UNL     1       7.626  42.611  48.993  0.00  0.00    -0.249 N 
ATOM     20  H   UNL     1       8.380  42.287  48.371  0.00  0.00    +0.216 HD
ENDROOT
BRANCH  19  21
ATOM     21  C   UNL     1       6.423  41.998  48.884  0.00  0.00    +0.066 A 
ATOM     22  C   UNL     1       5.598  41.774  49.986  0.00  0.00    +0.015 A 
ATOM     23  C   UNL     1       4.375  41.131  49.810  0.00  0.00    -0.011 A 
ATOM     24  C   UNL     1       3.980  40.709  48.537  0.00  0.00    +0.007 A 
ATOM     25  C   UNL     1       4.808  40.917  47.437  0.00  0.00    +0.098 A 
ATOM     32  C   UNL     1       6.032  41.558  47.621  0.00  0.00    +0.044 A 
BRANCH  25  26
ATOM     26  S   UNL     1       4.351  40.427  45.966  0.00  0.00    +0.063 S 
ATOM     27  O   UNL     1       3.165  41.150  45.615  0.00  0.00    -0.151 OA
ATOM     28  O   UNL     1       5.381  40.674  45.007  0.00  0.00    -0.151 OA
BRANCH  26  29
ATOM     29  N   UNL     1       4.043  38.860  46.008  0.00  0.00    -0.261 NA
ATOM     30  H   UNL     1       4.148  38.353  46.863  0.00  0.00    +0.164 HD
ATOM     31  H   UNL     1       3.745  38.386  45.179  0.00  0.00    +0.164 HD
ENDBRANCH  26  29
ENDBRANCH  25  26
ENDBRANCH  19  21
BRANCH   9  10
ATOM     10  O   UNL     1       6.192  45.827  52.109  0.00  0.00    -0.293 OA
BRANCH  10  11
ATOM     11  C   UNL     1       4.867  45.351  51.907  0.00  0.00    +0.206 C 
BRANCH  11  12
ATOM     12  C   UNL     1       4.024  45.862  53.057  0.00  0.00    +0.021 C 
ATOM     13  C   UNL     1       4.473  45.174  54.353  0.00  0.00    +0.006 C 
ATOM     14  C   UNL     1       3.601  45.606  55.528  0.00  0.00    +0.000 C 
ATOM     15  C   UNL     1       2.117  45.379  55.232  0.00  0.00    +0.000 C 
ATOM     16  C   UNL     1       1.682  46.009  53.912  0.00  0.00    +0.000 C 
ATOM     17  C   UNL     1       2.562  45.545  52.750  0.00  0.00    +0.006 C 
ENDBRANCH  11  12
ENDBRANCH  10  11
ENDBRANCH   9  10
TORSDOF 6
