REMARK  Name = 4bdc_ligand
REMARK  3 active torsions:
REMARK  status: ('A' for Active; 'I' for Inactive)
REMARK    1  A    between atoms: C_1  and  C1_4
REMARK    2  A    between atoms: N2_8  and  C9_15
REMARK    3  A    between atoms: C9_15  and  C10_16
REMARK                            x       y       z     vdW  Elec       q    Type
REMARK                         _______ _______ _______ _____ _____    ______ ____
ROOT
ATOM      1  C   UNL     1     -39.999  31.459   4.505  0.00  0.00    +0.212 C 
ATOM      2  N   UNL     1     -39.705  31.719   3.225  0.00  0.00    -0.271 N 
ATOM      3  H   UNL     1     -38.920  32.301   3.013  0.00  0.00    +0.187 HD
ATOM     10  O   UNL     1     -40.892  30.675   4.832  0.00  0.00    -0.382 OA
ENDROOT
BRANCH   1  11
ATOM     11  C   UNL     1     -39.190  32.182   5.539  0.00  0.00    +0.061 A 
ATOM     12  C   UNL     1     -39.173  31.721   6.861  0.00  0.00    +0.039 A 
ATOM     13  C   UNL     1     -38.489  32.397   7.830  0.00  0.00    +0.041 A 
ATOM     14  C   UNL     1     -37.774  33.574   7.515  0.00  0.00    +0.078 A 
ATOM     15  C   UNL     1     -37.767  34.032   6.183  0.00  0.00    +0.082 A 
ATOM     16  N   UNL     1     -37.033  35.130   5.815  0.00  0.00    -0.267 NA
ATOM     17  C   UNL     1     -36.347  35.725   6.778  0.00  0.00    +0.141 A 
ATOM     18  C   UNL     1     -36.372  35.290   8.099  0.00  0.00    +0.141 A 
ATOM     19  N   UNL     1     -37.067  34.234   8.489  0.00  0.00    -0.267 NA
ATOM     20  C   UNL     1     -38.492  33.322   5.197  0.00  0.00    +0.065 A 
ENDBRANCH   1  11
BRANCH   2   4
ATOM      4  C   UNL     1     -40.497  31.178   2.140  0.00  0.00    +0.236 C 
BRANCH   4   5
ATOM      5  C   UNL     1     -41.246  32.244   1.430  0.00  0.00    +0.117 A 
ATOM      6  C   UNL     1     -41.475  32.500   0.135  0.00  0.00    -0.047 A 
ATOM      7  C   UNL     1     -42.247  33.684   0.077  0.00  0.00    -0.051 A 
ATOM      8  C   UNL     1     -42.443  34.071   1.327  0.00  0.00    +0.152 A 
ATOM      9  O   UNL     1     -41.842  33.203   2.198  0.00  0.00    -0.267 OA
ENDBRANCH   4   5
ENDBRANCH   2   4
TORSDOF 3
