REMARK  Name = GXA
REMARK  8 active torsions:
REMARK  status: ('A' for Active; 'I' for Inactive)
REMARK    1  A    between atoms: C6_5  and  C2_16
REMARK    2  A    between atoms: C9_6  and  O2_22
REMARK    3  A    between atoms: C18_11  and  C19_13
REMARK    4  A    between atoms: C18_11  and  C17_27
REMARK    5  A    between atoms: C10_19  and  C11_20
REMARK    6  A    between atoms: O2_22  and  C12_23
REMARK    7  A    between atoms: C22_29  and  O4_32
REMARK    8  A    between atoms: O4_32  and  C25_33
REMARK                            x       y       z     vdW  Elec       q    Type
REMARK                         _______ _______ _______ _____ _____    ______ ____
ROOT
ATOM      7  C   UNL     1     -59.057  29.965  -2.404  0.00  0.00    +0.169 C 
ATOM      8  C   UNL     1     -58.236  29.806  -1.143  0.00  0.00    +0.065 C 
ATOM      9  C   UNL     1     -57.168  28.731  -1.328  0.00  0.00    +0.097 C 
ATOM     10  N   UNL     1     -56.313  29.048  -2.477  0.00  0.00    -0.279 N 
ATOM     11  C   UNL     1     -55.030  29.469  -2.460  0.00  0.00    +0.230 C 
ATOM     24  O   UNL     1     -54.494  29.923  -3.454  0.00  0.00    -0.275 OA
ATOM     25  C   UNL     1     -57.126  29.046  -3.697  0.00  0.00    +0.097 C 
ATOM     26  C   UNL     1     -58.182  30.146  -3.627  0.00  0.00    +0.065 C 
ENDROOT
BRANCH   7   6
ATOM      6  O   UNL     1     -59.916  31.142  -2.233  0.00  0.00    -0.479 OA
BRANCH   6   5
ATOM      4  C   UNL     1     -60.844  32.864  -3.559  0.00  0.00    +0.091 A 
ATOM      5  C   UNL     1     -60.793  31.502  -3.226  0.00  0.00    +0.143 A 
ATOM     27  C   UNL     1     -61.599  30.583  -3.880  0.00  0.00    +0.037 A 
ATOM     28  C   UNL     1     -62.483  31.016  -4.848  0.00  0.00    +0.005 A 
ATOM     29  C   UNL     1     -62.565  32.360  -5.188  0.00  0.00    +0.020 A 
ATOM     36  C   UNL     1     -61.715  33.270  -4.564  0.00  0.00    +0.009 A 
BRANCH  29  30
ATOM     30  C   UNL     1     -63.557  32.833  -6.173  0.00  0.00    +0.100 A 
ATOM     31  C   UNL     1     -63.745  34.109  -6.625  0.00  0.00    +0.097 A 
ATOM     32  N   UNL     1     -64.836  34.074  -7.434  0.00  0.00    -0.306 N 
ATOM     33  C   UNL     1     -65.270  32.792  -7.446  0.00  0.00    +0.179 A 
ATOM     34  C   UNL     1     -65.449  35.215  -8.109  0.00  0.00    +0.132 C 
ATOM     35  N   UNL     1     -64.511  31.995  -6.705  0.00  0.00    -0.224 NA
ENDBRANCH  29  30
BRANCH   4   2
ATOM      1  N   UNL     1     -58.881  33.821  -2.479  0.00  0.00    -0.084 NA
ATOM      2  C   UNL     1     -60.143  33.972  -2.831  0.00  0.00    +0.287 C 
ATOM      3  O   UNL     1     -60.749  35.018  -2.607  0.00  0.00    -0.267 OA
ENDBRANCH   4   2
ENDBRANCH   6   5
ENDBRANCH   7   6
BRANCH  11  12
ATOM     12  C   UNL     1     -54.286  29.436  -1.139  0.00  0.00    +0.112 C 
BRANCH  12  13
ATOM     13  C   UNL     1     -52.785  29.472  -1.313  0.00  0.00    -0.013 A 
ATOM     14  C   UNL     1     -52.076  30.658  -1.175  0.00  0.00    -0.001 A 
ATOM     15  C   UNL     1     -50.725  30.719  -1.464  0.00  0.00    +0.037 A 
ATOM     16  C   UNL     1     -50.054  29.572  -1.862  0.00  0.00    +0.147 A 
ATOM     17  C   UNL     1     -50.740  28.376  -1.982  0.00  0.00    +0.037 A 
ATOM     23  C   UNL     1     -52.095  28.334  -1.705  0.00  0.00    -0.001 A 
BRANCH  16  18
ATOM     18  O   UNL     1     -48.670  29.582  -2.081  0.00  0.00    -0.405 OA
BRANCH  18  19
ATOM     19  C   UNL     1     -48.224  29.664  -3.331  0.00  0.00    +0.575 C 
ATOM     20  F   UNL     1     -46.915  29.779  -3.297  0.00  0.00    -0.133 F 
ATOM     21  F   UNL     1     -48.700  30.699  -3.995  0.00  0.00    -0.133 F 
ATOM     22  F   UNL     1     -48.491  28.587  -4.028  0.00  0.00    -0.133 F 
ENDBRANCH  18  19
ENDBRANCH  16  18
ENDBRANCH  12  13
ENDBRANCH  11  12
TORSDOF 8
