REMARK  Name = 5L6P
REMARK  3 active torsions:
REMARK  status: ('A' for Active; 'I' for Inactive)
REMARK    1  A    between atoms: C_3  and  N_19
REMARK    2  A    between atoms: C_7  and  N_15
REMARK    3  A    between atoms: C_11  and  C_12
REMARK                            x       y       z     vdW  Elec       q    Type
REMARK                         _______ _______ _______ _____ _____    ______ ____
ROOT
ATOM      6  N   UNL     1      13.395  -1.107  -8.751  0.00  0.00    -0.299 N 
ATOM      7  H   UNL     1      12.936  -0.496  -9.500  0.00  0.00    +0.154 HD
ATOM      8  C   UNL     1      14.747  -0.988  -8.620  0.00  0.00    +0.134 A 
ATOM      9  N   UNL     1      15.407  -1.927  -7.929  0.00  0.00    -0.220 NA
ATOM     10  C   UNL     1      16.736  -1.792  -7.848  0.00  0.00    +0.224 A 
ATOM     11  N   UNL     1      17.508  -0.835  -8.345  0.00  0.00    -0.235 NA
ATOM     12  C   UNL     1      16.849   0.134  -9.054  0.00  0.00    +0.078 A 
ATOM     13  C   UNL     1      17.611   1.179  -9.622  0.00  0.00    +0.051 A 
ATOM     14  C   UNL     1      17.001   2.208 -10.307  0.00  0.00    +0.035 A 
ATOM     20  C   UNL     1      15.622   2.164 -10.528  0.00  0.00    +0.024 A 
ATOM     21  C   UNL     1      14.853   1.174  -9.988  0.00  0.00    +0.015 A 
ATOM     22  C   UNL     1      15.444   0.117  -9.241  0.00  0.00    +0.041 A 
ENDROOT
BRANCH   6   5
ATOM      1  C   UNL     1      11.381  -2.435  -5.962  0.00  0.00    +0.002 A 
ATOM      2  C   UNL     1      10.792  -3.537  -6.549  0.00  0.00    +0.000 A 
ATOM      3  C   UNL     1      11.086  -3.855  -7.860  0.00  0.00    +0.002 A 
ATOM      4  C   UNL     1      11.940  -3.053  -8.602  0.00  0.00    +0.023 A 
ATOM      5  C   UNL     1      12.534  -1.942  -8.013  0.00  0.00    +0.032 A 
ATOM     23  C   UNL     1      12.243  -1.630  -6.690  0.00  0.00    +0.023 A 
ENDBRANCH   6   5
BRANCH  14  15
ATOM     15  N   UNL     1      17.873   3.162 -10.891  0.00  0.00    -0.286 N 
ATOM     16  H   UNL     1      18.915   2.943 -10.789  0.00  0.00    +0.155 HD
ATOM     17  C   UNL     1      17.592   4.310 -11.559  0.00  0.00    +0.214 C 
ATOM     18  O   UNL     1      16.472   4.798 -11.672  0.00  0.00    -0.276 OA
ATOM     19  C   UNL     1      18.801   4.996 -12.159  0.00  0.00    +0.109 C 
ENDBRANCH  14  15
TORSDOF 2
