REMARK  Name = 2oh4_ligand
REMARK  7 active torsions:
REMARK  status: ('A' for Active; 'I' for Inactive)
REMARK    1  A    between atoms: C5_1  and  C2_30
REMARK    2  A    between atoms: C7_3  and  N12_6
REMARK    3  A    between atoms: C36_12  and  O35_13
REMARK    4  A    between atoms: O35_13  and  C33_14
REMARK    5  A    between atoms: C23_22  and  O22_23
REMARK    6  A    between atoms: O22_23  and  C19_24
REMARK    7  A    between atoms: C16_25  and  N15_26
REMARK                            x       y       z     vdW  Elec       q    Type
REMARK                         _______ _______ _______ _____ _____    ______ ____
ROOT
ATOM     17  C   UNL     1       1.059  36.161  14.471  0.00  0.00    +0.057 A 
ATOM     18  C   UNL     1       1.531  35.609  15.687  0.00  0.00    -0.001 A 
ATOM     19  C   UNL     1       1.324  34.265  15.959  0.00  0.00    +0.010 A 
ATOM     20  C   UNL     1       0.609  33.474  15.040  0.00  0.00    +0.099 A 
ATOM     21  C   UNL     1       0.151  33.994  13.836  0.00  0.00    +0.010 A 
ATOM     39  C   UNL     1       0.375  35.335  13.562  0.00  0.00    -0.001 A 
ENDROOT
BRANCH  17  15
ATOM     11  N   UNL     1       1.715  39.744  14.392  0.00  0.00    -0.208 N 
ATOM     12  H   UNL     1       1.214  39.810  13.529  0.00  0.00    +0.226 HD
ATOM     13  C   UNL     1       1.840  38.479  14.962  0.00  0.00    +0.314 C 
ATOM     14  O   UNL     1       2.754  38.214  15.796  0.00  0.00    -0.382 OA
ATOM     15  N   UNL     1       1.272  37.507  14.135  0.00  0.00    -0.220 N 
ATOM     16  H   UNL     1       0.992  37.797  13.220  0.00  0.00    +0.223 HD
BRANCH  11  10
ATOM      1  C   UNL     1       3.818  42.163  16.266  0.00  0.00    +0.026 A 
ATOM      6  C   UNL     1       3.209  43.368  15.918  0.00  0.00    +0.029 A 
ATOM      7  C   UNL     1       2.111  43.372  15.065  0.00  0.00    +0.061 A 
ATOM      8  C   UNL     1       1.638  42.149  14.557  0.00  0.00    +0.190 A 
ATOM      9  F   UNL     1       0.591  42.131  13.732  0.00  0.00    -0.163 F 
ATOM     10  C   UNL     1       2.231  40.928  14.925  0.00  0.00    +0.132 A 
ATOM     40  C   UNL     1       3.352  40.961  15.789  0.00  0.00    +0.053 A 
BRANCH   1   2
ATOM      2  C   UNL     1       5.001  42.156  17.226  0.00  0.00    +0.366 C 
ATOM      3  F   UNL     1       6.194  41.790  16.714  0.00  0.00    -0.227 F 
ATOM      4  F   UNL     1       4.857  41.293  18.253  0.00  0.00    -0.227 F 
ATOM      5  F   UNL     1       5.180  43.328  17.887  0.00  0.00    -0.227 F 
ENDBRANCH   1   2
ENDBRANCH  11  10
ENDBRANCH  17  15
BRANCH  20  22
ATOM     22  O   UNL     1       0.372  32.128  15.297  0.00  0.00    -0.276 OA
BRANCH  22  23
ATOM     23  C   UNL     1       1.371  31.266  15.669  0.00  0.00    +0.096 A 
ATOM     24  C   UNL     1       2.693  31.417  15.185  0.00  0.00    -0.001 A 
ATOM     25  C   UNL     1       3.697  30.551  15.573  0.00  0.00    -0.026 A 
ATOM     26  C   UNL     1       3.330  29.507  16.453  0.00  0.00    -0.001 A 
ATOM     27  C   UNL     1       1.979  29.376  16.933  0.00  0.00    +0.066 A 
ATOM     28  N   UNL     1       1.962  28.275  17.770  0.00  0.00    -0.232 N 
ATOM     29  H   UNL     1       1.157  27.886  18.281  0.00  0.00    +0.229 HD
ATOM     30  C   UNL     1       3.290  27.803  17.770  0.00  0.00    +0.238 A 
ATOM     31  N   UNL     1       3.661  26.658  18.500  0.00  0.00    -0.161 N 
ATOM     32  H   UNL     1       4.597  26.316  18.420  0.00  0.00    +0.241 HD
ATOM     33  C   UNL     1       2.794  26.005  19.306  0.00  0.00    +0.361 C 
ATOM     34  O   UNL     1       1.534  26.001  19.207  0.00  0.00    -0.363 OA
ATOM     37  N   UNL     1       4.114  28.506  16.983  0.00  0.00    -0.321 NA
ATOM     38  C   UNL     1       0.977  30.249  16.539  0.00  0.00    +0.031 A 
BRANCH  33  35
ATOM     35  O   UNL     1       3.386  24.930  19.864  0.00  0.00    -0.261 OA
ATOM     36  C   UNL     1       2.592  24.159  20.788  0.00  0.00    +0.239 C 
ENDBRANCH  33  35
ENDBRANCH  22  23
ENDBRANCH  20  22
TORSDOF 6
