REMARK  Name = 3tjd_ligand
REMARK  9 active torsions:
REMARK  status: ('A' for Active; 'I' for Inactive)
REMARK    1  A    between atoms: C1_1  and  C3_9
REMARK    2  A    between atoms: C1_1  and  C4_12
REMARK    3  A    between atoms: C1_1  and  N4_13
REMARK    4  A    between atoms: C1_1  and  C6_15
REMARK    5  A    between atoms: S2_8  and  N4_13
REMARK    6  A    between atoms: S2_8  and  C18_27
REMARK    7  A    between atoms: N3_10  and  C15_24
REMARK    8  A    between atoms: C11_20  and  C12_21
REMARK    9  A    between atoms: C14_23  and  C16_25
REMARK                            x       y       z     vdW  Elec       q    Type
REMARK                         _______ _______ _______ _____ _____    ______ ____
ROOT
ATOM     11  C   UNL     1     114.327  66.017   8.784  0.00  0.00    +0.039 A 
ATOM     12  C   UNL     1     115.668  66.317   8.455  0.00  0.00    +0.000 A 
ATOM     13  C   UNL     1     116.175  66.920   9.635  0.00  0.00    +0.033 A 
ATOM     14  C   UNL     1     117.531  67.432   9.873  0.00  0.00    +0.115 A 
ATOM     15  N   UNL     1     118.406  67.421   8.820  0.00  0.00    -0.318 N 
ATOM     16  H   UNL     1     119.357  67.768   8.944  0.00  0.00    +0.181 HD
ATOM     17  H   UNL     1     118.107  67.066   7.912  0.00  0.00    +0.181 HD
ATOM     18  N   UNL     1     117.958  67.985  11.067  0.00  0.00    -0.290 NA
ATOM     19  C   UNL     1     117.125  68.107  12.132  0.00  0.00    +0.083 A 
ATOM     20  C   UNL     1     115.779  67.651  12.010  0.00  0.00    +0.073 A 
ATOM     26  C   UNL     1     115.397  67.103  10.794  0.00  0.00    +0.065 A 
ATOM     27  S   UNL     1     113.958  66.505  10.376  0.00  0.00    -0.026 S 
ENDROOT
BRANCH  11   9
ATOM      6  C   UNL     1     111.676  64.000   6.046  0.00  0.00    +0.107 A 
ATOM      7  C   UNL     1     111.163  64.149   7.369  0.00  0.00    +0.028 A 
ATOM      8  C   UNL     1     112.033  64.819   8.282  0.00  0.00    +0.009 A 
ATOM      9  C   UNL     1     113.365  65.307   7.833  0.00  0.00    -0.009 A 
ATOM     10  C   UNL     1     113.785  65.101   6.444  0.00  0.00    +0.009 A 
ATOM     28  C   UNL     1     112.934  64.441   5.532  0.00  0.00    +0.028 A 
BRANCH   6   5
ATOM      5  S   UNL     1     110.749  63.173   4.888  0.00  0.00    +0.068 S 
ATOM     29  O   UNL     1     110.791  63.939   3.703  0.00  0.00    -0.150 OA
ATOM     30  O   UNL     1     109.444  62.893   5.370  0.00  0.00    -0.150 OA
BRANCH   5   3
ATOM      3  N   UNL     1     111.576  61.635   4.680  0.00  0.00    -0.242 NA
ATOM      4  H   UNL     1     112.093  61.522   3.808  0.00  0.00    +0.168 HD
BRANCH   3   1
ATOM      1  C   UNL     1     111.619  60.458   5.630  0.00  0.00    +0.041 C 
ATOM      2  C   UNL     1     112.979  60.445   6.249  0.00  0.00    +0.032 C 
ATOM     31  C   UNL     1     110.612  60.521   6.744  0.00  0.00    +0.032 C 
ATOM     32  C   UNL     1     111.430  59.075   4.982  0.00  0.00    +0.032 C 
ENDBRANCH   3   1
ENDBRANCH   5   3
ENDBRANCH   6   5
ENDBRANCH  11   9
BRANCH  20  21
ATOM     21  C   UNL     1     114.876  67.733  13.187  0.00  0.00    +0.198 C 
ATOM     22  N   UNL     1     115.266  68.583  14.129  0.00  0.00    -0.291 N 
ATOM     23  H   UNL     1     116.134  69.112  14.043  0.00  0.00    +0.184 HD
ATOM     24  C   UNL     1     114.414  68.725  15.273  0.00  0.00    +0.164 C 
ATOM     25  O   UNL     1     113.855  67.092  13.352  0.00  0.00    -0.391 OA
ENDBRANCH  20  21
TORSDOF 5
