REMARK  Name = 4QMP
REMARK  5 active torsions:
REMARK  status: ('A' for Active; 'I' for Inactive)
REMARK    1  A    between atoms: C_8  and  N_9
REMARK    2  A    between atoms: C_10  and  S_11
REMARK    3  A    between atoms: C_17  and  N_18
REMARK    4  A    between atoms: C_24  and  S_25
REMARK    5  A    between atoms: S_25  and  N_28
REMARK                            x       y       z     vdW  Elec       q    Type
REMARK                         _______ _______ _______ _____ _____    ______ ____
ROOT
ATOM      4  N   UNL     1      26.142  -0.662  75.417  0.00  0.00    -0.205 NA
ATOM      5  C   UNL     1      26.441  -1.955  75.307  0.00  0.00    +0.237 C 
ATOM      6  N   UNL     1      27.124  -2.404  74.259  0.00  0.00    -0.088 N 
ATOM      7  C   UNL     1      27.240  -3.639  73.738  0.00  0.00    +0.392 C 
ATOM      8  N   UNL     1      27.983  -3.552  72.633  0.00  0.00    -0.058 NA
ATOM      9  C   UNL     1      28.297  -2.260  72.484  0.00  0.00    +0.375 C 
ATOM     23  N   UNL     1      26.718  -4.796  74.181  0.00  0.00    -0.250 N 
ATOM     24  H   UNL     1      26.904  -5.705  73.649  0.00  0.00    +0.241 HD
ATOM     25  H   UNL     1      26.116  -4.808  75.066  0.00  0.00    +0.241 HD
ATOM     26  N   UNL     1      27.752  -1.574  73.487  0.00  0.00    -0.114 NA
ATOM     27  H   UNL     1      27.821  -0.516  73.631  0.00  0.00    +0.168 HD
ENDROOT
BRANCH   4   3
ATOM      1  F   UNL     1      27.604   0.522  77.547  0.00  0.00    -0.203 F 
ATOM      2  C   UNL     1      26.315   0.658  77.479  0.00  0.00    +0.152 A 
ATOM      3  C   UNL     1      25.595   0.074  76.425  0.00  0.00    +0.138 A 
ATOM     30  C   UNL     1      24.203   0.259  76.376  0.00  0.00    +0.152 A 
ATOM     31  F   UNL     1      23.520  -0.289  75.419  0.00  0.00    -0.203 F 
ATOM     32  C   UNL     1      23.527   0.989  77.376  0.00  0.00    +0.040 A 
ATOM     33  C   UNL     1      24.258   1.572  78.418  0.00  0.00    +0.006 A 
ATOM     34  C   UNL     1      25.653   1.404  78.475  0.00  0.00    +0.040 A 
ENDBRANCH   4   3
BRANCH   9  10
ATOM     10  N   UNL     1      29.057  -1.830  71.447  0.00  0.00    -0.217 NA
ATOM     11  C   UNL     1      29.531  -0.602  71.111  0.00  0.00    +0.064 C 
ATOM     12  C   UNL     1      30.212  -0.389  69.893  0.00  0.00    +0.026 C 
ATOM     13  C   UNL     1      30.698   0.884  69.554  0.00  0.00    +0.013 C 
ATOM     14  C   UNL     1      30.518   1.961  70.434  0.00  0.00    +0.173 C 
ATOM     21  C   UNL     1      29.844   1.765  71.662  0.00  0.00    +0.013 C 
ATOM     22  C   UNL     1      29.352   0.486  71.999  0.00  0.00    +0.026 C 
BRANCH  14  15
ATOM     15  S   UNL     1      31.146   3.537  69.939  0.00  0.00    +0.043 S 
ATOM     19  O   UNL     1      32.532   3.358  69.166  0.00  0.00    -0.157 OA
ATOM     20  O   UNL     1      31.329   4.495  71.200  0.00  0.00    -0.157 OA
BRANCH  15  16
ATOM     16  N   UNL     1      30.025   4.258  68.807  0.00  0.00    -0.207 NA
ATOM     17  H   UNL     1      29.923   3.623  67.952  0.00  0.00    +0.144 HD
ATOM     18  H   UNL     1      29.071   4.379  69.277  0.00  0.00    +0.144 HD
ENDBRANCH  15  16
ENDBRANCH  14  15
ENDBRANCH   9  10
BRANCH   5  28
ATOM     28  S   UNL     1      25.823  -3.020  76.500  0.00  0.00    -0.089 S 
ATOM     29  H   UNL     1      26.095  -4.330  76.434  0.00  0.00    +0.111 HD
ENDBRANCH   5  28
TORSDOF 5
