REMARK  Name = 4ZSA
REMARK  7 active torsions:
REMARK  status: ('A' for Active; 'I' for Inactive)
REMARK    1  A    between atoms: C_1  and  C_18
REMARK    2  A    between atoms: C_3  and  C_25
REMARK    3  A    between atoms: C_6  and  O_27
REMARK    4  A    between atoms: C_7  and  O_27
REMARK    5  A    between atoms: C_9  and  C_10
REMARK    6  A    between atoms: C_10  and  N_11
REMARK    7  A    between atoms: N_14  and  C_15
REMARK                            x       y       z     vdW  Elec       q    Type
REMARK                         _______ _______ _______ _____ _____    ______ ____
ROOT
ATOM     14  C   UNL     1     199.044   4.525  85.821  0.00  0.00    +0.249 C 
ATOM     15  N   UNL     1     198.035   3.579  85.482  0.00  0.00    -0.265 N 
ATOM     16  H   UNL     1     197.873   2.792  86.188  0.00  0.00    +0.157 HD
ATOM     17  C   UNL     1     197.207   3.553  84.306  0.00  0.00    +0.155 A 
ATOM     18  C   UNL     1     197.103   4.402  83.157  0.00  0.00    +0.042 A 
ATOM     19  C   UNL     1     197.710   5.606  82.677  0.00  0.00    +0.014 A 
ATOM     20  C   UNL     1     197.315   6.170  81.447  0.00  0.00    +0.009 A 
ATOM     21  C   UNL     1     196.326   5.553  80.646  0.00  0.00    -0.016 A 
ATOM     22  C   UNL     1     195.760   4.368  81.096  0.00  0.00    +0.036 A 
ATOM     31  C   UNL     1     196.145   3.810  82.356  0.00  0.00    +0.068 A 
ATOM     32  N   UNL     1     195.706   2.664  82.958  0.00  0.00    -0.275 N 
ATOM     33  H   UNL     1     194.969   1.991  82.573  0.00  0.00    +0.189 HD
ATOM     34  N   UNL     1     196.367   2.536  84.120  0.00  0.00    -0.157 NA
ATOM     35  O   UNL     1     199.268   5.469  85.105  0.00  0.00    -0.270 OA
ENDROOT
BRANCH  14   1
ATOM      1  C   UNL     1     199.848   4.348  87.097  0.00  0.00    +0.037 A 
ATOM      2  C   UNL     1     199.481   3.403  88.056  0.00  0.00    +0.015 A 
ATOM      3  C   UNL     1     200.235   3.230  89.212  0.00  0.00    +0.024 A 
ATOM      4  C   UNL     1     201.369   4.005  89.419  0.00  0.00    +0.030 A 
ATOM      5  C   UNL     1     201.741   4.933  88.459  0.00  0.00    +0.024 A 
ATOM     36  C   UNL     1     200.991   5.110  87.306  0.00  0.00    +0.015 A 
BRANCH   4   6
ATOM      6  N   UNL     1     202.176   3.865  90.575  0.00  0.00    -0.328 N 
ATOM      7  C   UNL     1     203.500   4.173  90.379  0.00  0.00    +0.120 C 
ATOM      8  C   UNL     1     204.410   4.082  91.577  0.00  0.00    +0.103 C 
ATOM      9  N   UNL     1     204.230   2.928  92.314  0.00  0.00    -0.300 NA
ATOM     10  C   UNL     1     202.885   2.748  92.616  0.00  0.00    +0.103 C 
ATOM     13  C   UNL     1     201.995   2.765  91.381  0.00  0.00    +0.120 C 
BRANCH   9  11
ATOM     11  C   UNL     1     204.888   3.059  93.367  0.00  0.00    +0.081 C 
ATOM     12  C   UNL     1     205.323   1.737  93.969  0.00  0.00    +0.020 C 
ENDBRANCH   9  11
ENDBRANCH   4   6
ENDBRANCH  14   1
BRANCH  21  23
ATOM     23  C   UNL     1     195.940   6.069  79.393  0.00  0.00    -0.014 A 
ATOM     24  C   UNL     1     194.613   6.189  79.027  0.00  0.00    +0.054 A 
ATOM     25  C   UNL     1     194.262   6.680  77.778  0.00  0.00    +0.121 A 
ATOM     28  C   UNL     1     195.251   7.052  76.874  0.00  0.00    +0.045 A 
ATOM     29  C   UNL     1     196.589   6.929  77.222  0.00  0.00    +0.004 A 
ATOM     30  C   UNL     1     196.920   6.434  78.472  0.00  0.00    +0.009 A 
BRANCH  25  26
ATOM     26  O   UNL     1     192.906   6.790  77.436  0.00  0.00    -0.495 OA
ATOM     27  C   UNL     1     192.599   7.194  76.127  0.00  0.00    +0.277 C 
ENDBRANCH  25  26
ENDBRANCH  21  23
TORSDOF 5
