REMARK  Name = 2ojg_ligand
REMARK  5 active torsions:
REMARK  status: ('A' for Active; 'I' for Inactive)
REMARK    1  A    between atoms: C1_1  and  N2_2
REMARK    2  A    between atoms: N2_2  and  C3_3
REMARK    3  A    between atoms: C4_4  and  C6_6
REMARK    4  A    between atoms: C8_8  and  C12_11
REMARK    5  A    between atoms: C17_15  and  C18_16
REMARK                            x       y       z     vdW  Elec       q    Type
REMARK                         _______ _______ _______ _____ _____    ______ ____
ROOT
ATOM      9  C   UNL     1     -16.293  12.005  41.194  0.00  0.00    +0.083 A 
ATOM     10  C   UNL     1     -16.837  13.124  41.933  0.00  0.00    -0.000 A 
ATOM     17  C   UNL     1     -18.131  12.785  42.261  0.00  0.00    +0.068 A 
ATOM     18  N   UNL     1     -18.384  11.564  41.780  0.00  0.00    -0.223 NA
ATOM     19  N   UNL     1     -17.251  11.090  41.127  0.00  0.00    -0.219 N 
ATOM     20  H   UNL     1     -17.169  10.173  40.664  0.00  0.00    +0.253 HD
ENDROOT
BRANCH   9   8
ATOM      4  C   UNL     1     -12.664  11.933  40.269  0.00  0.00    +0.129 A 
ATOM      5  N   UNL     1     -13.244  11.188  39.259  0.00  0.00    -0.272 N 
ATOM      6  H   UNL     1     -12.735  10.749  38.479  0.00  0.00    +0.239 HD
ATOM      7  C   UNL     1     -14.592  11.123  39.452  0.00  0.00    +0.140 A 
ATOM      8  C   UNL     1     -14.911  11.823  40.594  0.00  0.00    +0.010 A 
ATOM     21  C   UNL     1     -13.700  12.321  41.096  0.00  0.00    -0.006 A 
BRANCH   4   3
ATOM      1  C   UNL     1      -9.160  13.415  41.239  0.00  0.00    +0.167 C 
ATOM      2  N   UNL     1     -10.626  13.263  41.177  0.00  0.00    -0.279 N 
ATOM      3  C   UNL     1     -11.176  12.224  40.412  0.00  0.00    +0.220 C 
ATOM     22  O   UNL     1     -10.408  11.485  39.810  0.00  0.00    -0.391 OA
ATOM     23  C   UNL     1     -11.436  14.225  41.934  0.00  0.00    +0.167 C 
ENDBRANCH   4   3
ENDBRANCH   9   8
BRANCH  10  11
ATOM     11  C   UNL     1     -16.183  14.428  42.311  0.00  0.00    -0.039 A 
ATOM     12  C   UNL     1     -16.280  14.859  43.672  0.00  0.00    -0.008 A 
ATOM     13  C   UNL     1     -15.696  16.063  44.074  0.00  0.00    -0.008 A 
ATOM     14  C   UNL     1     -15.005  16.869  43.127  0.00  0.00    -0.012 A 
ATOM     15  C   UNL     1     -14.896  16.461  41.779  0.00  0.00    -0.008 A 
ATOM     16  C   UNL     1     -15.487  15.246  41.368  0.00  0.00    -0.008 A 
ENDBRANCH  10  11
TORSDOF 3
