REMARK  Name = 3OVV
REMARK  8 active torsions:
REMARK  status: ('A' for Active; 'I' for Inactive)
REMARK    1  A    between atoms: C_1  and  C_4
REMARK    2  A    between atoms: N_2  and  N_5
REMARK    3  A    between atoms: C_4  and  C_7
REMARK    4  A    between atoms: N_5  and  C_9
REMARK    5  A    between atoms: O_6  and  C_14
REMARK    6  A    between atoms: O_6  and  C_15
REMARK    7  A    between atoms: O_8  and  C_19
REMARK    8  A    between atoms: C_9  and  C_10
REMARK                            x       y       z     vdW  Elec       q    Type
REMARK                         _______ _______ _______ _____ _____    ______ ____
ROOT
ATOM     10  C   UNL     1      -8.661  -7.485  19.901  0.00  0.00    +0.231 C 
ATOM     11  O   UNL     1      -8.664  -8.040  20.992  0.00  0.00    -0.274 OA
ATOM     12  N   UNL     1      -8.817  -8.250  18.813  0.00  0.00    -0.250 N 
ATOM     13  H   UNL     1      -8.967  -7.734  17.887  0.00  0.00    +0.169 HD
ENDROOT
BRANCH  12  14
ATOM     14  N   UNL     1      -8.806  -9.651  18.750  0.00  0.00    -0.236 NA
ATOM     15  H   UNL     1      -9.607 -10.021  19.354  0.00  0.00    +0.145 HD
BRANCH  14  16
ATOM     16  C   UNL     1      -8.945 -10.121  17.562  0.00  0.00    +0.137 C 
BRANCH  16  17
ATOM     17  C   UNL     1      -8.924 -11.627  17.470  0.00  0.00    -0.032 A 
ATOM     18  C   UNL     1      -8.845 -12.096  16.164  0.00  0.00    +0.008 A 
ATOM     19  C   UNL     1      -8.789 -13.464  15.854  0.00  0.00    +0.045 A 
ATOM     20  C   UNL     1      -8.807 -14.425  16.859  0.00  0.00    +0.117 A 
ATOM     21  C   UNL     1      -8.877 -13.957  18.141  0.00  0.00    +0.045 A 
ATOM     24  C   UNL     1      -8.960 -12.575  18.475  0.00  0.00    +0.008 A 
BRANCH  20  22
ATOM     22  O   UNL     1      -8.751 -15.748  16.537  0.00  0.00    -0.507 OA
ATOM     23  H   UNL     1      -7.898 -16.179  16.971  0.00  0.00    +0.292 HD
ENDBRANCH  20  22
ENDBRANCH  16  17
ENDBRANCH  14  16
ENDBRANCH  12  14
BRANCH  10   9
ATOM      9  C   UNL     1      -8.503  -5.955  19.825  0.00  0.00    +0.132 C 
BRANCH   9   1
ATOM      1  C   UNL     1      -7.195  -5.383  20.112  0.00  0.00    -0.035 A 
ATOM      2  C   UNL     1      -7.048  -4.326  20.992  0.00  0.00    +0.049 A 
ATOM      3  C   UNL     1      -5.735  -3.922  21.152  0.00  0.00    +0.120 A 
ATOM      4  C   UNL     1      -4.643  -4.486  20.551  0.00  0.00    +0.045 A 
ATOM      5  C   UNL     1      -4.826  -5.493  19.666  0.00  0.00    +0.004 A 
ATOM      8  C   UNL     1      -6.103  -5.926  19.479  0.00  0.00    +0.004 A 
BRANCH   3   6
ATOM      6  O   UNL     1      -5.532  -2.884  21.978  0.00  0.00    -0.495 OA
ATOM      7  C   UNL     1      -6.645  -2.174  22.603  0.00  0.00    +0.277 C 
ENDBRANCH   3   6
ENDBRANCH   9   1
ENDBRANCH  10   9
TORSDOF 7
