REMARK  Name = 4da5_ligand
REMARK  4 active torsions:
REMARK  status: ('A' for Active; 'I' for Inactive)
REMARK    1  A    between atoms: O1_1  and  C2_2
REMARK    2  A    between atoms: C2_2  and  C3_3
REMARK    3  A    between atoms: C2_2  and  C11_11
REMARK    4  A    between atoms: C2_2  and  C17_17
REMARK                            x       y       z     vdW  Elec       q    Type
REMARK                         _______ _______ _______ _____ _____    ______ ____
ROOT
ATOM      3  C   UNL     1     -10.892 -13.948   6.605  0.00  0.00    +0.041 C 
ENDROOT
BRANCH   3  16
ATOM     16  C   UNL     1     -10.812 -14.022   5.043  0.00  0.00    -0.012 C 
ATOM     17  C   UNL     1      -9.374 -14.393   4.536  0.00  0.00    -0.009 C 
ATOM     18  C   UNL     1      -9.399 -14.435   2.993  0.00  0.00    +0.053 C 
ATOM     19  C   UNL     1      -9.775 -13.031   2.468  0.00  0.00    +0.131 C 
ATOM     20  N   UNL     1     -10.106 -12.144   3.607  0.00  0.00    +0.234 N 
ATOM     21  H   UNL     1     -10.392 -11.253   3.233  0.00  0.00    +0.203 HD
ATOM     22  C   UNL     1      -8.915 -11.923   4.460  0.00  0.00    +0.131 C 
ATOM     23  C   UNL     1      -8.379 -13.285   4.951  0.00  0.00    +0.053 C 
ATOM     24  C   UNL     1     -11.232 -12.686   4.402  0.00  0.00    +0.116 C 
ENDBRANCH   3  16
BRANCH   3   4
ATOM      4  C   UNL     1     -12.322 -13.902   7.100  0.00  0.00    -0.012 A 
ATOM      5  S   UNL     1     -13.705 -14.588   6.274  0.00  0.00    -0.011 S 
ATOM      6  C   UNL     1     -14.777 -14.121   7.583  0.00  0.00    +0.139 A 
ATOM      7 CL   UNL     1     -16.506 -14.368   7.585  0.00  0.00    -0.013 Cl
ATOM      8  C   UNL     1     -14.067 -13.523   8.547  0.00  0.00    +0.045 A 
ATOM      9  C   UNL     1     -12.710 -13.444   8.299  0.00  0.00    +0.029 A 
ENDBRANCH   3   4
BRANCH   3  10
ATOM     10  C   UNL     1     -10.308 -15.182   7.184  0.00  0.00    -0.012 A 
ATOM     11  S   UNL     1      -9.354 -15.249   8.646  0.00  0.00    -0.011 S 
ATOM     12  C   UNL     1      -9.300 -17.001   8.538  0.00  0.00    +0.139 A 
ATOM     13 CL   UNL     1      -8.479 -18.031   9.644  0.00  0.00    -0.013 Cl
ATOM     14  C   UNL     1      -9.968 -17.418   7.473  0.00  0.00    +0.045 A 
ATOM     15  C   UNL     1     -10.559 -16.416   6.744  0.00  0.00    +0.029 A 
ENDBRANCH   3  10
BRANCH   3   1
ATOM      1  O   UNL     1     -10.210 -12.789   7.108  0.00  0.00    -0.474 OA
ATOM      2  H   UNL     1     -10.275 -12.771   8.056  0.00  0.00    +0.178 HD
ENDBRANCH   3   1
TORSDOF 4
