REMARK  Name = 3ps6_ligand
REMARK  5 active torsions:
REMARK  status: ('A' for Active; 'I' for Inactive)
REMARK    1  A    between atoms: C1_1  and  C9_9
REMARK    2  A    between atoms: C7_7  and  C13_13
REMARK    3  A    between atoms: N15_15  and  C16_16
REMARK    4  A    between atoms: C19_19  and  O22_22
REMARK    5  A    between atoms: O22_22  and  C23_23
REMARK                            x       y       z     vdW  Elec       q    Type
REMARK                         _______ _______ _______ _____ _____    ______ ____
ROOT
ATOM      1  C   UNL     1      44.594  11.675  28.328  0.00  0.00    +0.139 C 
ATOM      2  C   UNL     1      45.399  12.713  28.950  0.00  0.00    +0.073 A 
ATOM      3  N   UNL     1      44.734  13.466  29.817  0.00  0.00    -0.296 NA
ATOM      4  C   UNL     1      45.449  14.420  30.401  0.00  0.00    +0.053 A 
ATOM      5  C   UNL     1      44.857  15.255  31.330  0.00  0.00    +0.071 A 
ATOM     18  C   UNL     1      45.595  16.249  31.942  0.00  0.00    +0.036 A 
ATOM     19  C   UNL     1      46.926  16.418  31.622  0.00  0.00    +0.012 A 
ATOM     20  C   UNL     1      47.526  15.584  30.703  0.00  0.00    +0.035 A 
ATOM     21  C   UNL     1      46.793  14.589  30.095  0.00  0.00    +0.055 A 
ATOM     22  C   UNL     1      47.375  13.753  29.162  0.00  0.00    +0.138 A 
ATOM     23  N   UNL     1      48.724  13.889  28.810  0.00  0.00    -0.306 N 
ATOM     24  H   UNL     1      49.292  14.619  29.240  0.00  0.00    +0.188 HD
ATOM     25  H   UNL     1      49.138  13.258  28.124  0.00  0.00    +0.188 HD
ATOM     26  N   UNL     1      46.674  12.784  28.573  0.00  0.00    -0.252 NA
ENDROOT
BRANCH   5   6
ATOM      6  C   UNL     1      43.434  15.101  31.719  0.00  0.00    +0.229 C 
ATOM      7  N   UNL     1      42.711  14.115  31.046  0.00  0.00    -0.234 N 
ATOM      8  H   UNL     1      43.158  13.700  30.229  0.00  0.00    +0.224 HD
ATOM     17  O   UNL     1      42.998  15.825  32.608  0.00  0.00    -0.377 OA
BRANCH   7   9
ATOM      9  C   UNL     1      41.454  13.641  31.369  0.00  0.00    +0.082 A 
ATOM     10  C   UNL     1      40.842  13.807  32.548  0.00  0.00    +0.031 A 
ATOM     11  C   UNL     1      39.534  13.332  32.875  0.00  0.00    +0.043 A 
ATOM     12  C   UNL     1      38.896  12.676  31.902  0.00  0.00    +0.149 A 
ATOM     15  N   UNL     1      39.403  12.414  30.732  0.00  0.00    -0.290 NA
ATOM     16  C   UNL     1      40.671  12.866  30.388  0.00  0.00    +0.086 A 
BRANCH  12  13
ATOM     13  O   UNL     1      37.670  12.228  32.308  0.00  0.00    -0.312 OA
ATOM     14  C   UNL     1      36.617  13.183  32.224  0.00  0.00    +0.233 C 
ENDBRANCH  12  13
ENDBRANCH   7   9
ENDBRANCH   5   6
TORSDOF 3
