REMARK  Name = 88P
REMARK  3 active torsions:
REMARK  status: ('A' for Active; 'I' for Inactive)
REMARK    1  A    between atoms: C7_4  and  C9_8
REMARK    2  A    between atoms: C10_6  and  O15_16
REMARK    3  A    between atoms: C9_8  and  O15_16
REMARK                            x       y       z     vdW  Elec       q    Type
REMARK                         _______ _______ _______ _____ _____    ______ ____
ROOT
ATOM      1  C   UNL     1     -12.768  11.158   0.112  0.00  0.00    +0.046 A 
ATOM      2  C   UNL     1     -13.925  11.590   0.822  0.00  0.00    +0.006 A 
ATOM      3  C   UNL     1     -14.009  12.959   1.397  0.00  0.00    +0.029 C 
ATOM      4  C   UNL     1     -12.620  13.587   1.480  0.00  0.00    +0.013 C 
ATOM      5  C   UNL     1     -11.812  13.433   0.191  0.00  0.00    +0.070 C 
ATOM      6  C   UNL     1     -14.830  10.540   0.839  0.00  0.00    +0.152 A 
ATOM     12  N   UNL     1     -14.219   9.517   0.159  0.00  0.00    -0.243 NA
ATOM     13  C   UNL     1     -11.615  11.969  -0.125  0.00  0.00    +0.174 C 
ATOM     14  O   UNL     1     -10.549  11.540  -0.540  0.00  0.00    -0.291 OA
ATOM     15  C   UNL     1     -12.970   9.860  -0.289  0.00  0.00    +0.062 A 
ATOM     16  C   UNL     1     -12.115   8.931  -1.046  0.00  0.00    +0.052 C 
ENDROOT
BRANCH   6   7
ATOM      7  C   UNL     1     -16.135  10.369   1.429  0.00  0.00    +0.359 C 
ATOM     11  O   UNL     1     -16.785   9.332   1.337  0.00  0.00    -0.243 OA
BRANCH   7   8
ATOM      8  O   UNL     1     -16.537  11.468   2.143  0.00  0.00    -0.444 OA
BRANCH   8   9
ATOM      9  C   UNL     1     -17.904  11.397   2.559  0.00  0.00    +0.209 C 
ATOM     10  C   UNL     1     -18.004  11.828   4.000  0.00  0.00    +0.051 C 
ENDBRANCH   8   9
ENDBRANCH   7   8
ENDBRANCH   6   7
TORSDOF 3
