REMARK  Name = 3AXW
REMARK  2 active torsions:
REMARK  status: ('A' for Active; 'I' for Inactive)
REMARK    1  A    between atoms: C_2  and  C_10
REMARK    2  A    between atoms: C_5  and  C_7
REMARK                            x       y       z     vdW  Elec       q    Type
REMARK                         _______ _______ _______ _____ _____    ______ ____
ROOT
ATOM      1  C   UNL     1      37.108   4.278 -12.330  0.00  0.00    +0.011 A 
ATOM      2  C   UNL     1      37.049   2.907 -12.650  0.00  0.00    +0.010 A 
ATOM      3  C   UNL     1      36.368   2.493 -13.827  0.00  0.00    -0.003 A 
ATOM      7  C   UNL     1      35.767   3.445 -14.681  0.00  0.00    +0.010 A 
ATOM      8  C   UNL     1      35.830   4.817 -14.357  0.00  0.00    +0.011 A 
ATOM      9  C   UNL     1      36.472   5.230 -13.174  0.00  0.00    +0.009 A 
ENDROOT
BRANCH   9  10
ATOM     10  C   UNL     1      36.540   6.583 -12.835  0.00  0.00    +0.134 A 
ATOM     11  S   UNL     1      37.044   7.171 -11.280  0.00  0.00    -0.031 S 
ATOM     12  C   UNL     1      36.895   8.808 -11.715  0.00  0.00    +0.179 A 
ATOM     13  N   UNL     1      37.244   9.829 -10.709  0.00  0.00    -0.336 N 
ATOM     14  H   UNL     1      37.572   9.530  -9.735  0.00  0.00    +0.144 HD
ATOM     15  H   UNL     1      37.169  10.868 -10.953  0.00  0.00    +0.144 HD
ATOM     16  N   UNL     1      36.453   8.873 -13.018  0.00  0.00    -0.126 NA
ATOM     17  N   UNL     1      36.264   7.661 -13.609  0.00  0.00    -0.140 NA
ENDBRANCH   9  10
BRANCH   3   4
ATOM      4  C   UNL     1      36.273   1.064 -14.179  0.00  0.00    +0.072 C 
ATOM      5  O   UNL     1      35.556   0.734 -15.139  0.00  0.00    -0.545 OA
ATOM      6  O   UNL     1      36.886   0.237 -13.493  0.00  0.00    -0.545 OA
ENDBRANCH   3   4
TORSDOF 2
