REMARK  Name = 4m0y_ligand
REMARK  3 active torsions:
REMARK  status: ('A' for Active; 'I' for Inactive)
REMARK    1  A    between atoms: C10_10  and  N1_11
REMARK    2  A    between atoms: C12_13  and  N4_19
REMARK    3  A    between atoms: C13_14  and  C14_16
REMARK                            x       y       z     vdW  Elec       q    Type
REMARK                         _______ _______ _______ _____ _____    ______ ____
ROOT
ATOM      8  N   UNL     1       6.636   5.417  22.574  0.00  0.00    -0.170 N 
ATOM      9  N   UNL     1       5.308   5.232  22.509  0.00  0.00    -0.184 NA
ATOM     10  C   UNL     1       5.010   4.350  23.485  0.00  0.00    +0.136 A 
ATOM     16  C   UNL     1       6.211   3.968  24.204  0.00  0.00    +0.098 A 
ATOM     24  C   UNL     1       7.243   4.671  23.595  0.00  0.00    +0.159 A 
ENDROOT
BRANCH   8   7
ATOM      1  C   UNL     1      10.644   8.799  22.730  0.00  0.00    -0.002 A 
ATOM      2  C   UNL     1      10.260   8.685  21.407  0.00  0.00    +0.004 A 
ATOM      3  C   UNL     1       9.149   7.855  21.051  0.00  0.00    -0.021 A 
ATOM      4  C   UNL     1       8.725   7.771  19.679  0.00  0.00    -0.009 A 
ATOM      5  C   UNL     1       7.644   6.988  19.330  0.00  0.00    -0.008 A 
ATOM      6  C   UNL     1       6.938   6.236  20.310  0.00  0.00    +0.030 A 
ATOM      7  C   UNL     1       7.337   6.286  21.655  0.00  0.00    +0.120 A 
ATOM     25  C   UNL     1       8.449   7.124  22.083  0.00  0.00    +0.023 A 
ATOM     26  C   UNL     1       8.883   7.285  23.451  0.00  0.00    +0.011 A 
ATOM     27  C   UNL     1       9.947   8.098  23.758  0.00  0.00    -0.002 A 
ENDBRANCH   8   7
BRANCH  16  17
ATOM     17  N   UNL     1       6.254   3.054  25.253  0.00  0.00    -0.235 N 
ATOM     18  H   UNL     1       5.394   2.614  25.511  0.00  0.00    +0.214 HD
ATOM     19  C   UNL     1       7.432   2.688  25.999  0.00  0.00    +0.276 C 
ATOM     20  N   UNL     1       7.234   1.733  26.989  0.00  0.00    -0.283 N 
ATOM     21  H   UNL     1       6.322   1.352  27.141  0.00  0.00    +0.181 HD
ATOM     22  H   UNL     1       8.004   1.427  27.550  0.00  0.00    +0.181 HD
ATOM     23  O   UNL     1       8.571   3.175  25.830  0.00  0.00    -0.394 OA
ENDBRANCH  16  17
BRANCH  10  11
ATOM     11  C   UNL     1       3.628   3.933  23.772  0.00  0.00    +0.205 C 
ATOM     12  N   UNL     1       2.579   4.330  22.925  0.00  0.00    -0.301 N 
ATOM     13  H   UNL     1       2.770   4.898  22.124  0.00  0.00    +0.180 HD
ATOM     14  H   UNL     1       1.641   4.045  23.123  0.00  0.00    +0.180 HD
ATOM     15  O   UNL     1       3.408   3.283  24.777  0.00  0.00    -0.389 OA
ENDBRANCH  10  11
TORSDOF 3
