REMARK  Name = 5VGO
REMARK  9 active torsions:
REMARK  status: ('A' for Active; 'I' for Inactive)
REMARK    1  A    between atoms: C_10  and  C_11
REMARK    2  A    between atoms: C_11  and  C_38
REMARK    3  A    between atoms: N_14  and  C_15
REMARK    4  A    between atoms: C_19  and  C_23
REMARK    5  A    between atoms: C_20  and  C_21
REMARK    6  A    between atoms: C_21  and  O_22
REMARK    7  A    between atoms: C_25  and  N_31
REMARK    8  A    between atoms: N_28  and  C_30
REMARK    9  A    between atoms: N_31  and  C_32
REMARK                            x       y       z     vdW  Elec       q    Type
REMARK                         _______ _______ _______ _____ _____    ______ ____
ROOT
ATOM     12  C   UNL     1     -40.531  27.826  -7.855  0.00  0.00    +0.043 A 
ATOM     13  C   UNL     1     -39.150  27.861  -8.121  0.00  0.00    +0.007 A 
ATOM     17  C   UNL     1     -38.706  28.203  -9.412  0.00  0.00    -0.009 A 
ATOM     34  C   UNL     1     -39.652  28.541 -10.385  0.00  0.00    +0.009 A 
ATOM     35  C   UNL     1     -41.012  28.509 -10.103  0.00  0.00    +0.002 A 
ATOM     36  C   UNL     1     -41.449  28.154  -8.839  0.00  0.00    +0.024 A 
ENDROOT
BRANCH  12  11
ATOM      1  C   UNL     1     -41.490  26.589  -2.472  0.00  0.00    -0.033 A 
ATOM      2  C   UNL     1     -41.509  25.437  -1.468  0.00  0.00    +0.043 C 
ATOM      3  C   UNL     1     -41.994  26.031  -0.129  0.00  0.00    -0.026 C 
ATOM      4  C   UNL     1     -41.041  25.649   1.012  0.00  0.00    +0.011 C 
ATOM      5  C   UNL     1     -43.411  25.556   0.161  0.00  0.00    +0.011 C 
ATOM      6  C   UNL     1     -41.999  27.552  -0.349  0.00  0.00    +0.049 C 
ATOM      7  C   UNL     1     -41.759  27.737  -1.838  0.00  0.00    -0.005 A 
ATOM      8  S   UNL     1     -41.738  29.049  -2.936  0.00  0.00    -0.088 S 
ATOM      9  C   UNL     1     -41.397  28.020  -4.283  0.00  0.00    +0.078 A 
ATOM     10  C   UNL     1     -41.095  28.426  -5.641  0.00  0.00    +0.258 C 
ATOM     11  N   UNL     1     -40.939  27.464  -6.562  0.00  0.00    -0.266 N 
ATOM     37  C   UNL     1     -41.204  26.052  -6.263  0.00  0.00    +0.118 C 
ATOM     38  C   UNL     1     -40.916  25.619  -4.824  0.00  0.00    +0.056 C 
ATOM     39  O   UNL     1     -40.861  29.620  -5.850  0.00  0.00    -0.269 OA
ATOM     40  C   UNL     1     -41.265  26.723  -3.846  0.00  0.00    -0.023 A 
ENDBRANCH  12  11
BRANCH  17  18
ATOM     18  C   UNL     1     -37.268  28.304  -9.813  0.00  0.00    +0.001 C 
ATOM     19  C   UNL     1     -36.362  28.947  -9.005  0.00  0.00    +0.097 C 
ATOM     20  N   UNL     1     -35.050  29.078  -9.358  0.00  0.00    -0.316 N 
ATOM     21  C   UNL     1     -34.084  29.759  -8.478  0.00  0.00    +0.152 C 
ATOM     22  C   UNL     1     -34.592  28.605 -10.528  0.00  0.00    +0.272 C 
ATOM     23  O   UNL     1     -33.408  28.721 -10.865  0.00  0.00    -0.266 OA
ATOM     24  C   UNL     1     -35.482  27.945 -11.391  0.00  0.00    +0.098 C 
ATOM     33  C   UNL     1     -36.806  27.788 -11.043  0.00  0.00    +0.038 C 
BRANCH  24  25
ATOM     25  N   UNL     1     -34.893  27.481 -12.573  0.00  0.00    -0.295 N 
ATOM     26  H   UNL     1     -33.824  27.479 -12.604  0.00  0.00    +0.154 HD
BRANCH  25  27
ATOM     27  C   UNL     1     -35.542  27.026 -13.702  0.00  0.00    +0.126 A 
ATOM     28  N   UNL     1     -36.846  26.778 -13.731  0.00  0.00    -0.221 NA
ATOM     29  C   UNL     1     -37.421  26.335 -14.833  0.00  0.00    +0.223 A 
ATOM     30  N   UNL     1     -36.733  26.108 -15.934  0.00  0.00    -0.244 NA
ATOM     31  C   UNL     1     -35.417  26.318 -15.983  0.00  0.00    +0.116 A 
ATOM     32  C   UNL     1     -34.779  26.794 -14.855  0.00  0.00    +0.063 A 
ENDBRANCH  25  27
ENDBRANCH  24  25
ENDBRANCH  17  18
BRANCH  13  14
ATOM     14  C   UNL     1     -38.144  27.455  -7.050  0.00  0.00    +0.193 C 
BRANCH  14  15
ATOM     15  O   UNL     1     -37.802  28.446  -6.087  0.00  0.00    -0.390 OA
ATOM     16  H   UNL     1     -37.382  29.276  -6.573  0.00  0.00    +0.210 HD
ENDBRANCH  14  15
ENDBRANCH  13  14
TORSDOF 6
