REMARK  Name = 4YLJ
REMARK  2 active torsions:
REMARK  status: ('A' for Active; 'I' for Inactive)
REMARK    1  A    between atoms: CA_12  and  C_13
REMARK    2  A    between atoms: C_13  and  O_16
REMARK                            x       y       z     vdW  Elec       q    Type
REMARK                         _______ _______ _______ _____ _____    ______ ____
ROOT
ATOM      1  C   UNL     1       9.800   9.910  24.254  0.00  0.00    +0.026 A 
ATOM      2  C   UNL     1       8.898  10.925  23.980  0.00  0.00    +0.074 A 
ATOM      3  C   UNL     1       8.977  11.624  22.799  0.00  0.00    +0.028 A 
ATOM      4  C   UNL     1       9.952  11.307  21.878  0.00  0.00    +0.002 A 
ATOM      5  C   UNL     1      10.837  10.276  22.138  0.00  0.00    +0.001 A 
ATOM      6  N   UNL     1       7.944  11.260  24.882  0.00  0.00    -0.239 NA
ATOM      7  CA  UNL     1       7.855  10.620  26.077  0.00  0.00    +0.158 A 
ATOM     12  C   UNL     1       8.735   9.578  26.383  0.00  0.00    +0.043 A 
ATOM     13  C   UNL     1       8.936   8.671  27.506  0.00  0.00    +0.013 A 
ATOM     14  C   UNL     1       9.987   7.807  27.179  0.00  0.00    +0.085 A 
ATOM     15  N   UNL     1      10.418   8.163  25.920  0.00  0.00    -0.245 NA
ATOM     16  C   UNL     1      10.385   6.814  28.062  0.00  0.00    +0.039 A 
ATOM     17  I   UNL     1      11.961   5.568  27.584  0.00  0.00    -0.042 I 
ATOM     18  C   UNL     1       9.747   6.677  29.284  0.00  0.00    +0.016 A 
ATOM     19  C   UNL     1       8.684   7.541  29.606  0.00  0.00    +0.002 A 
ATOM     20  C   UNL     1       8.273   8.555  28.711  0.00  0.00    +0.011 A 
ATOM     21  C   UNL     1       9.674   9.221  25.452  0.00  0.00    +0.084 A 
ATOM     22  C   UNL     1      10.767   9.584  23.330  0.00  0.00    +0.012 A 
ENDROOT
BRANCH   7   8
ATOM      8  C   UNL     1       6.809  11.161  26.932  0.00  0.00    +0.356 C 
ATOM      9  OXT UNL     1       6.882  11.054  28.145  0.00  0.00    -0.243 OA
BRANCH   8  10
ATOM     10  O   UNL     1       5.859  11.872  26.305  0.00  0.00    -0.476 OA
ATOM     11  H   UNL     1       6.298  12.693  25.820  0.00  0.00    +0.295 HD
ENDBRANCH   8  10
ENDBRANCH   7   8
TORSDOF 2
