REMARK  Name = 2c1b_ligand
REMARK  7 active torsions:
REMARK  status: ('A' for Active; 'I' for Inactive)
REMARK    1  A    between atoms: C5_5  and  C6_6
REMARK    2  A    between atoms: C6_6  and  O7_7
REMARK    3  A    between atoms: O7_7  and  C8_8
REMARK    4  A    between atoms: C13_11  and  C14_12
REMARK    5  A    between atoms: C14_12  and  N15_13
REMARK    6  A    between atoms: N15_13  and  S16_14
REMARK    7  A    between atoms: S16_14  and  C19_17
REMARK                            x       y       z     vdW  Elec       q    Type
REMARK                         _______ _______ _______ _____ _____    ______ ____
ROOT
ATOM      8  C   UNL     1      13.560   7.494   3.062  0.00  0.00    +0.171 C 
ATOM      9  C   UNL     1      12.098   7.858   2.379  0.00  0.00    +0.093 C 
ATOM     10  C   UNL     1      11.254   8.502   3.483  0.00  0.00    +0.084 C 
ATOM     27  N   UNL     1      11.946   8.305   4.815  0.00  0.00    +0.232 N 
ATOM     28  H   UNL     1      11.284   8.076   5.540  0.00  0.00    +0.202 HD
ATOM     29  H   UNL     1      12.465   9.127   5.081  0.00  0.00    +0.202 HD
ATOM     30  C   UNL     1      12.971   7.015   4.500  0.00  0.00    +0.162 C 
ENDROOT
BRANCH   8   7
ATOM      7  O   UNL     1      14.312   8.676   3.339  0.00  0.00    -0.359 OA
BRANCH   7   6
ATOM      6  C   UNL     1      14.949   9.153   2.138  0.00  0.00    +0.227 C 
BRANCH   6   5
ATOM      1 CL   UNL     1      12.665  14.195  -0.133  0.00  0.00    -0.077 Cl
ATOM      2  C   UNL     1      13.245  12.758   0.542  0.00  0.00    +0.033 A 
ATOM      3  C   UNL     1      12.989  12.424   1.883  0.00  0.00    +0.006 A 
ATOM      4  C   UNL     1      13.507  11.251   2.419  0.00  0.00    -0.002 A 
ATOM      5  C   UNL     1      14.306  10.403   1.629  0.00  0.00    -0.017 A 
ATOM     31  C   UNL     1      14.552  10.754   0.291  0.00  0.00    -0.002 A 
ATOM     32  C   UNL     1      14.025  11.922  -0.255  0.00  0.00    +0.006 A 
ENDBRANCH   6   5
ENDBRANCH   7   6
ENDBRANCH   8   7
BRANCH  10  11
ATOM     11  C   UNL     1       9.823   7.939   3.550  0.00  0.00    +0.176 C 
BRANCH  11  12
ATOM     12  N   UNL     1       9.027   8.541   4.602  0.00  0.00    -0.242 NA
ATOM     13  H   UNL     1       8.793   7.989   5.402  0.00  0.00    +0.168 HD
BRANCH  12  14
ATOM     14  S   UNL     1       8.496  10.090   4.532  0.00  0.00    +0.071 S 
ATOM     25  O   UNL     1       8.112  10.376   5.861  0.00  0.00    -0.150 OA
ATOM     26  O   UNL     1       9.450  10.957   3.980  0.00  0.00    -0.150 OA
BRANCH  14  15
ATOM     15  C   UNL     1       7.226  10.113   3.451  0.00  0.00    +0.123 A 
ATOM     16  C   UNL     1       5.845  10.003   3.831  0.00  0.00    +0.024 A 
ATOM     17  C   UNL     1       5.369   9.821   5.173  0.00  0.00    +0.042 A 
ATOM     18  C   UNL     1       3.999   9.730   5.401  0.00  0.00    +0.085 A 
ATOM     19  N   UNL     1       3.044   9.773   4.414  0.00  0.00    -0.297 NA
ATOM     20  C   UNL     1       3.460   9.937   3.170  0.00  0.00    +0.107 A 
ATOM     21  C   UNL     1       4.839  10.063   2.803  0.00  0.00    +0.011 A 
ATOM     22  C   UNL     1       5.192  10.204   1.440  0.00  0.00    +0.021 A 
ATOM     23  C   UNL     1       6.527  10.320   1.098  0.00  0.00    +0.011 A 
ATOM     24  C   UNL     1       7.518  10.264   2.096  0.00  0.00    +0.039 A 
ENDBRANCH  14  15
ENDBRANCH  12  14
ENDBRANCH  11  12
ENDBRANCH  10  11
TORSDOF 7
