REMARK  Name = 7CN
REMARK  4 active torsions:
REMARK  status: ('A' for Active; 'I' for Inactive)
REMARK    1  A    between atoms: S02_8  and  N03_9
REMARK    2  A    between atoms: S02_8  and  C16_19
REMARK    3  A    between atoms: N03_9  and  C04_10
REMARK    4  A    between atoms: C06_12  and  N07_13
REMARK                            x       y       z     vdW  Elec       q    Type
REMARK                         _______ _______ _______ _____ _____    ______ ____
ROOT
ATOM      5  C   UNL     1     -12.195  -6.814   0.587  0.00  0.00    +0.059 A 
ATOM      6  C   UNL     1     -13.315  -6.967   1.441  0.00  0.00    +0.015 A 
ATOM      7  C   UNL     1     -13.389  -8.011   2.377  0.00  0.00    +0.003 A 
ATOM      8  C   UNL     1     -12.333  -8.923   2.501  0.00  0.00    +0.018 A 
ATOM      9  C   UNL     1     -11.203  -8.796   1.672  0.00  0.00    +0.092 A 
ATOM     21  C   UNL     1     -11.144  -7.750   0.727  0.00  0.00    +0.033 A 
ENDROOT
BRANCH   5   4
ATOM      1  C   UNL     1     -12.619  -3.952  -1.738  0.00  0.00    +0.113 C 
ATOM      2  C   UNL     1     -13.057  -4.928  -0.738  0.00  0.00    +0.238 C 
ATOM      3  O   UNL     1     -14.244  -4.915  -0.338  0.00  0.00    -0.274 OA
ATOM      4  N   UNL     1     -12.076  -5.792  -0.342  0.00  0.00    -0.236 N 
ATOM     22  C   UNL     1     -10.848  -5.502  -1.015  0.00  0.00    +0.068 C 
ATOM     23  C   UNL     1     -11.115  -4.243  -1.871  0.00  0.00    -0.000 C 
ENDBRANCH   5   4
BRANCH   9  10
ATOM     10  N   UNL     1     -10.147  -9.645   1.704  0.00  0.00    -0.097 NA
BRANCH  10  11
ATOM     11  S   UNL     1      -8.590  -9.157   2.210  0.00  0.00    +0.093 S 
ATOM     19  O   UNL     1      -7.607 -10.409   2.339  0.00  0.00    -0.148 OA
ATOM     20  O   UNL     1      -7.980  -8.077   1.195  0.00  0.00    -0.148 OA
BRANCH  11  12
ATOM     12  C   UNL     1      -8.809  -8.368   3.764  0.00  0.00    +0.128 A 
ATOM     13  C   UNL     1      -9.354  -9.084   4.848  0.00  0.00    +0.020 A 
ATOM     14  C   UNL     1      -9.529  -8.451   6.090  0.00  0.00    +0.002 A 
ATOM     15  C   UNL     1      -9.155  -7.101   6.235  0.00  0.00    +0.007 A 
ATOM     16  C   UNL     1      -8.616  -6.404   5.134  0.00  0.00    +0.036 A 
ATOM     17 BR   UNL     1      -8.104  -4.635   5.271  0.00  0.00    -0.049 Br
ATOM     18  C   UNL     1      -8.440  -7.023   3.895  0.00  0.00    +0.027 A 
ENDBRANCH  11  12
ENDBRANCH  10  11
ENDBRANCH   9  10
TORSDOF 4
