REMARK  Name = 8F0
REMARK  4 active torsions:
REMARK  status: ('A' for Active; 'I' for Inactive)
REMARK    1  A    between atoms: C02_9  and  N15_25
REMARK    2  A    between atoms: C14_17  and  N07_23
REMARK    3  A    between atoms: C16_18  and  C19_20
REMARK    4  A    between atoms: C16_18  and  N15_25
REMARK                            x       y       z     vdW  Elec       q    Type
REMARK                         _______ _______ _______ _____ _____    ______ ____
ROOT
ATOM      1  C   UNL     1     -16.352  -7.549   0.676  0.00  0.00    +0.031 C 
ATOM      2  C   UNL     1     -14.923  -7.068   0.297  0.00  0.00    +0.150 C 
ATOM      3  N   UNL     1     -13.970  -7.135   1.377  0.00  0.00    -0.302 N 
ATOM      7  C   UNL     1     -12.638  -6.946   0.820  0.00  0.00    +0.063 A 
ATOM      8  C   UNL     1     -11.441  -7.779   1.280  0.00  0.00    +0.032 A 
ATOM      9  C   UNL     1     -10.072  -7.533   0.626  0.00  0.00    +0.067 A 
ATOM     20  C   UNL     1      -9.900  -6.464  -0.486  0.00  0.00    +0.018 A 
ATOM     21  C   UNL     1     -11.120  -5.634  -0.938  0.00  0.00    +0.018 A 
ATOM     22  C   UNL     1     -12.486  -5.928  -0.302  0.00  0.00    +0.067 A 
ATOM     23  N   UNL     1     -13.682  -5.134  -0.591  0.00  0.00    -0.254 N 
ATOM     24  C   UNL     1     -13.534  -3.764  -1.096  0.00  0.00    +0.120 C 
ATOM     25  C   UNL     1     -14.979  -5.643  -0.239  0.00  0.00    +0.247 C 
ATOM     26  O   UNL     1     -15.964  -4.993  -0.374  0.00  0.00    -0.273 OA
ENDROOT
BRANCH   3   4
ATOM      4  C   UNL     1     -14.074  -8.136   2.429  0.00  0.00    +0.073 C 
ATOM      5  C   UNL     1     -13.451  -8.124   3.818  0.00  0.00    +0.021 C 
ATOM      6  C   UNL     1     -14.959  -8.010   3.664  0.00  0.00    +0.021 C 
ENDBRANCH   3   4
BRANCH   9  10
ATOM     10  N   UNL     1      -8.929  -8.310   1.084  0.00  0.00    -0.235 NA
BRANCH  10  11
ATOM     11  C   UNL     1      -9.075  -8.979   2.370  0.00  0.00    +0.115 C 
ATOM     19  C   UNL     1      -7.791  -9.738   2.680  0.00  0.00    +0.028 C 
BRANCH  11  12
ATOM     12  C   UNL     1      -9.357  -8.033   3.537  0.00  0.00    -0.003 A 
ATOM     13  C   UNL     1     -10.071  -8.579   4.776  0.00  0.00    -0.003 A 
ATOM     14  C   UNL     1     -10.363  -7.667   5.967  0.00  0.00    -0.004 A 
ATOM     15  C   UNL     1      -9.940  -6.202   5.882  0.00  0.00    -0.022 A 
ATOM     16  C   UNL     1     -10.230  -5.253   7.049  0.00  0.00    +0.031 C 
ATOM     17  C   UNL     1      -9.238  -5.654   4.640  0.00  0.00    -0.004 A 
ATOM     18  C   UNL     1      -8.944  -6.566   3.459  0.00  0.00    -0.003 A 
ENDBRANCH  11  12
ENDBRANCH  10  11
ENDBRANCH   9  10
TORSDOF 4
