REMARK  Name = 4ZOP
REMARK  6 active torsions:
REMARK  status: ('A' for Active; 'I' for Inactive)
REMARK    1  A    between atoms: C_5  and  C_12
REMARK    2  A    between atoms: C_7  and  C_16
REMARK    3  A    between atoms: C_8  and  C_11
REMARK    4  A    between atoms: C_12  and  C_13
REMARK    5  A    between atoms: C_12  and  C_14
REMARK    6  A    between atoms: C_12  and  C_15
REMARK                            x       y       z     vdW  Elec       q    Type
REMARK                         _______ _______ _______ _____ _____    ______ ____
ROOT
ATOM      1  C   UNL     1      -4.375  12.786 -17.466  0.00  0.00    +0.045 C 
ATOM      2  C   UNL     1      -3.939  11.800 -18.524  0.00  0.00    -0.002 A 
ATOM      3  C   UNL     1      -2.951  10.847 -18.249  0.00  0.00    +0.086 A 
ATOM      4  N   UNL     1      -2.462  10.020 -19.190  0.00  0.00    -0.231 NA
ATOM      5  C   UNL     1      -2.990  10.135 -20.405  0.00  0.00    +0.135 A 
ATOM      6  N   UNL     1      -3.964  10.958 -20.776  0.00  0.00    -0.239 NA
ATOM     11  C   UNL     1      -2.473  10.725 -16.919  0.00  0.00    +0.062 A 
ATOM     12  S   UNL     1      -1.217   9.668 -16.390  0.00  0.00    -0.050 S 
ATOM     13  C   UNL     1      -1.334  10.381 -14.821  0.00  0.00    +0.166 A 
ATOM     14  N   UNL     1      -0.630   9.927 -13.733  0.00  0.00    -0.248 N 
ATOM     15  H   UNL     1      -0.497  10.652 -13.036  0.00  0.00    +0.158 HD
ATOM     16  C   UNL     1       0.221   8.816 -13.771  0.00  0.00    +0.309 C 
ATOM     17  O   UNL     1       0.396   8.154 -14.791  0.00  0.00    -0.252 OA
ATOM     18  N   UNL     1       0.847   8.496 -12.586  0.00  0.00    -0.274 N 
ATOM     19  C   UNL     1       0.696   9.171 -11.292  0.00  0.00    +0.110 C 
ATOM     20  C   UNL     1       1.283   8.173 -10.312  0.00  0.00    +0.025 C 
ATOM     21  C   UNL     1       2.378   7.468 -11.100  0.00  0.00    +0.017 C 
ATOM     22  C   UNL     1       2.812   6.139 -10.497  0.00  0.00    +0.010 C 
ATOM     23  C   UNL     1       1.783   7.373 -12.523  0.00  0.00    +0.166 C 
ATOM     29  N   UNL     1      -2.223  11.321 -14.696  0.00  0.00    -0.229 NA
ATOM     30  C   UNL     1      -2.901  11.504 -15.873  0.00  0.00    +0.060 A 
ATOM     31  C   UNL     1      -4.415  11.775 -19.815  0.00  0.00    +0.118 A 
ATOM     32  C   UNL     1      -4.108  12.377 -16.028  0.00  0.00    +0.061 C 
ENDROOT
BRANCH  23  24
ATOM     24  C   UNL     1       1.125   6.018 -12.812  0.00  0.00    +0.231 C 
ATOM     25  N   UNL     1      -0.133   5.872 -12.443  0.00  0.00    -0.328 N 
ATOM     26  H   UNL     1      -0.642   6.594 -11.945  0.00  0.00    +0.145 HD
ATOM     27  H   UNL     1      -0.676   5.042 -12.658  0.00  0.00    +0.145 HD
ATOM     28  O   UNL     1       1.776   5.124 -13.356  0.00  0.00    -0.274 OA
ENDBRANCH  23  24
BRANCH   5   7
ATOM      7  C   UNL     1      -2.417   9.268 -21.527  0.00  0.00    +0.022 C 
ATOM      8  C   UNL     1      -1.763  10.158 -22.589  0.00  0.00    +0.019 C 
ATOM      9  C   UNL     1      -3.541   8.472 -22.192  0.00  0.00    +0.019 C 
ATOM     10  C   UNL     1      -1.358   8.279 -21.035  0.00  0.00    +0.019 C 
ENDBRANCH   5   7
TORSDOF 2
