REMARK  Name = 4uzh_ligand
REMARK  1 active torsions:
REMARK  status: ('A' for Active; 'I' for Inactive)
REMARK    1  A    between atoms: C14_7  and  C16_9
REMARK                            x       y       z     vdW  Elec       q    Type
REMARK                         _______ _______ _______ _____ _____    ______ ____
ROOT
ATOM      1  C   UNL     1      26.762  -5.727   7.761  0.00  0.00    +0.241 C 
ATOM      2  C   UNL     1      26.468  -6.233   9.171  0.00  0.00    +0.101 C 
ATOM      3  N   UNL     1      25.690  -7.502   9.282  0.00  0.00    -0.262 N 
ATOM      4  H   UNL     1      25.379  -7.989   8.430  0.00  0.00    +0.212 HD
ATOM      5  C   UNL     1      25.394  -8.012  10.491  0.00  0.00    +0.119 A 
ATOM      6  N   UNL     1      24.714  -9.132  10.695  0.00  0.00    -0.218 NA
ATOM      7  N   UNL     1      24.587  -9.367  12.107  0.00  0.00    -0.243 N 
ATOM      8  H   UNL     1      24.117 -10.148  12.587  0.00  0.00    +0.243 HD
ATOM      9  C   UNL     1      25.299  -8.209  12.704  0.00  0.00    +0.125 A 
ATOM     10  C   UNL     1      25.781  -7.402  11.743  0.00  0.00    +0.010 A 
ATOM     11  C   UNL     1      26.588  -6.085  11.767  0.00  0.00    +0.085 C 
ATOM     19  C   UNL     1      26.898  -5.564  10.315  0.00  0.00    +0.029 C 
ATOM     20  C   UNL     1      27.705  -4.272  10.143  0.00  0.00    +0.134 C 
ATOM     21  O   UNL     1      28.109  -3.652  11.081  0.00  0.00    -0.409 OA
ATOM     22  C   UNL     1      27.986  -3.795   8.707  0.00  0.00    +0.237 C 
ATOM     23  N   UNL     1      26.950  -4.260   7.762  0.00  0.00    +0.258 N 
ATOM     24  H   UNL     1      27.215  -3.972   6.833  0.00  0.00    +0.205 HD
ATOM     25  H   UNL     1      26.075  -3.827   8.011  0.00  0.00    +0.205 HD
ENDROOT
BRANCH  11  12
ATOM     12  C   UNL     1      25.828  -5.071  12.670  0.00  0.00    -0.001 A 
ATOM     13  C   UNL     1      24.878  -4.148  12.120  0.00  0.00    -0.007 A 
ATOM     14  C   UNL     1      24.184  -3.223  12.943  0.00  0.00    -0.017 A 
ATOM     15  C   UNL     1      24.420  -3.200  14.338  0.00  0.00    -0.017 A 
ATOM     16  C   UNL     1      25.351  -4.098  14.914  0.00  0.00    +0.023 A 
ATOM     17  C   UNL     1      26.037  -5.014  14.082  0.00  0.00    +0.134 A 
ATOM     18  F   UNL     1      26.910  -5.846  14.676  0.00  0.00    -0.189 F 
ENDBRANCH  11  12
TORSDOF 1
