REMARK  Name = 5K5N
REMARK  8 active torsions:
REMARK  status: ('A' for Active; 'I' for Inactive)
REMARK    1  A    between atoms: C_1  and  O_24
REMARK    2  A    between atoms: C_3  and  C_7
REMARK    3  A    between atoms: C_3  and  N_21
REMARK    4  A    between atoms: C_5  and  C_7
REMARK    5  A    between atoms: C_5  and  N_22
REMARK    6  A    between atoms: C_12  and  C_14
REMARK    7  A    between atoms: C_15  and  C_16
REMARK    8  A    between atoms: C_17  and  O_24
REMARK                            x       y       z     vdW  Elec       q    Type
REMARK                         _______ _______ _______ _____ _____    ______ ____
ROOT
ATOM      8  C   UNL     1      -1.623   5.130  27.518  0.00  0.00    +0.167 A 
ATOM      9  O   UNL     1      -2.094   3.894  27.856  0.00  0.00    -0.442 OA
ATOM     10  C   UNL     1      -2.660   4.051  29.080  0.00  0.00    +0.309 A 
ATOM     11  N   UNL     1      -2.591   5.253  29.530  0.00  0.00    -0.211 NA
ATOM     12  C   UNL     1      -1.942   5.972  28.538  0.00  0.00    +0.171 A 
ENDROOT
BRANCH   8   7
ATOM      1  C   UNL     1       0.576   5.247  23.861  0.00  0.00    +0.138 A 
ATOM      4  C   UNL     1       0.031   4.054  24.338  0.00  0.00    +0.083 A 
ATOM      5 CL   UNL     1       0.333   2.567  23.491  0.00  0.00    -0.080 Cl
ATOM      6  C   UNL     1      -0.703   4.019  25.507  0.00  0.00    +0.035 A 
ATOM      7  C   UNL     1      -0.894   5.185  26.244  0.00  0.00    +0.021 A 
ATOM     25  C   UNL     1      -0.351   6.380  25.774  0.00  0.00    +0.015 A 
ATOM     26  C   UNL     1       0.376   6.415  24.594  0.00  0.00    +0.048 A 
BRANCH   1   2
ATOM      2  O   UNL     1       1.286   5.176  22.692  0.00  0.00    -0.494 OA
ATOM      3  C   UNL     1       1.887   6.374  22.199  0.00  0.00    +0.277 C 
ENDBRANCH   1   2
ENDBRANCH   8   7
BRANCH  12  13
ATOM     13  C   UNL     1      -1.670   7.419  28.749  0.00  0.00    +0.266 C 
ATOM     14  N   UNL     1      -1.951   7.873  29.973  0.00  0.00    -0.310 N 
ATOM     15  H   UNL     1      -2.381   7.199  30.684  0.00  0.00    +0.149 HD
ATOM     24  O   UNL     1      -1.304   8.146  27.825  0.00  0.00    -0.268 OA
BRANCH  14  16
ATOM     16  C   UNL     1      -1.696   9.249  30.380  0.00  0.00    +0.106 C 
BRANCH  16  17
ATOM     17  C   UNL     1      -0.258   9.444  30.833  0.00  0.00    +0.042 C 
BRANCH  17  18
ATOM     18  C   UNL     1       0.092  10.859  31.273  0.00  0.00    +0.147 C 
BRANCH  18  19
ATOM     19  N   UNL     1      -0.352  11.893  30.339  0.00  0.00    -0.252 N 
ATOM     20  N   UNL     1      -1.435  12.659  30.625  0.00  0.00    -0.158 NA
ATOM     21  C   UNL     1      -1.496  13.451  29.577  0.00  0.00    +0.244 A 
ATOM     22  N   UNL     1      -0.542  13.247  28.643  0.00  0.00    -0.223 NA
ATOM     23  C   UNL     1       0.155  12.263  29.167  0.00  0.00    +0.219 A 
ENDBRANCH  18  19
ENDBRANCH  17  18
ENDBRANCH  16  17
ENDBRANCH  14  16
ENDBRANCH  12  13
TORSDOF 7
