REMARK  Name = 5A9U
REMARK  5 active torsions:
REMARK  status: ('A' for Active; 'I' for Inactive)
REMARK    1  A    between atoms: C_1  and  C_7
REMARK    2  A    between atoms: C_15  and  N_27
REMARK    3  A    between atoms: C_18  and  C_19
REMARK    4  A    between atoms: C_20  and  N_25
REMARK    5  A    between atoms: C_21  and  N_26
REMARK                            x       y       z     vdW  Elec       q    Type
REMARK                         _______ _______ _______ _____ _____    ______ ____
ROOT
ATOM      3  C   UNL     1      27.757  48.547   7.370  0.00  0.00    +0.146 A 
ATOM      4  N   UNL     1      28.346  49.603   6.705  0.00  0.00    -0.256 N 
ATOM      5  N   UNL     1      29.681  49.589   6.720  0.00  0.00    -0.173 NA
ATOM      6  C   UNL     1      30.006  48.496   7.415  0.00  0.00    +0.089 A 
ATOM      7  C   UNL     1      31.488  48.222   7.599  0.00  0.00    +0.165 C 
ATOM      8  N   UNL     1      32.091  47.243   6.622  0.00  0.00    -0.295 N 
ATOM      9  C   UNL     1      31.758  47.429   5.197  0.00  0.00    +0.133 C 
ATOM     10  C   UNL     1      32.967  46.145   6.938  0.00  0.00    +0.247 C 
ATOM     11  O   UNL     1      33.440  45.365   6.109  0.00  0.00    -0.270 OA
ATOM     12  C   UNL     1      33.386  45.860   8.348  0.00  0.00    +0.044 A 
ATOM     13  C   UNL     1      32.964  44.677   9.074  0.00  0.00    +0.007 A 
ATOM     14  C   UNL     1      32.027  43.585   8.482  0.00  0.00    +0.202 C 
ATOM     15  O   UNL     1      30.824  43.400   9.303  0.00  0.00    -0.481 OA
ATOM     16  C   UNL     1      29.808  44.349   9.335  0.00  0.00    +0.161 A 
ATOM     17  C   UNL     1      28.699  44.097  10.172  0.00  0.00    +0.158 A 
ATOM     21  N   UNL     1      27.652  44.990  10.272  0.00  0.00    -0.236 NA
ATOM     22  C   UNL     1      27.687  46.155   9.538  0.00  0.00    +0.121 A 
ATOM     23  C   UNL     1      28.740  46.509   8.671  0.00  0.00    +0.008 A 
ATOM     24  C   UNL     1      29.780  45.566   8.602  0.00  0.00    +0.059 A 
ATOM     25  C   UNL     1      32.722  42.217   8.418  0.00  0.00    +0.057 C 
ATOM     26  C   UNL     1      33.444  44.533  10.426  0.00  0.00    +0.046 A 
ATOM     27  C   UNL     1      34.291  45.508  11.006  0.00  0.00    +0.124 A 
ATOM     28  F   UNL     1      34.717  45.343  12.262  0.00  0.00    -0.205 F 
ATOM     29  C   UNL     1      34.693  46.648  10.290  0.00  0.00    +0.039 A 
ATOM     30  C   UNL     1      34.247  46.830   8.963  0.00  0.00    +0.016 A 
ATOM     31  C   UNL     1      27.681  50.695   6.011  0.00  0.00    +0.174 C 
ATOM     32  C   UNL     1      28.823  47.767   7.869  0.00  0.00    +0.044 A 
ENDROOT
BRANCH  17  18
ATOM     18  N   UNL     1      28.653  42.917  10.935  0.00  0.00    -0.340 N 
ATOM     19  H   UNL     1      27.814  42.723  11.570  0.00  0.00    +0.144 HD
ATOM     20  H   UNL     1      29.457  42.213  10.880  0.00  0.00    +0.144 HD
ENDBRANCH  17  18
BRANCH   3   1
ATOM      1  C   UNL     1      26.334  48.375   7.474  0.00  0.00    +0.119 C 
ATOM      2  N   UNL     1      25.191  48.232   7.578  0.00  0.00    -0.189 NA
ENDBRANCH   3   1
TORSDOF 2
