REMARK  Name = 9BM
REMARK  6 active torsions:
REMARK  status: ('A' for Active; 'I' for Inactive)
REMARK    1  A    between atoms: C05_7  and  C06_8
REMARK    2  A    between atoms: C07_9  and  O05_32
REMARK    3  A    between atoms: C10_11  and  N02_12
REMARK    4  A    between atoms: N02_12  and  C11_13
REMARK    5  A    between atoms: C16_18  and  C17_19
REMARK    6  A    between atoms: C21_23  and  C1_28
REMARK                            x       y       z     vdW  Elec       q    Type
REMARK                         _______ _______ _______ _____ _____    ______ ____
ROOT
ATOM      8  C   UNL     1      12.892   4.653  10.852  0.00  0.00    +0.059 A 
ATOM      9  C   UNL     1      13.204   3.793  11.867  0.00  0.00    +0.025 A 
ATOM     10  C   UNL     1      13.886   2.619  11.483  0.00  0.00    +0.100 A 
ATOM     11  N   UNL     1      14.221   1.725  12.469  0.00  0.00    -0.242 NA
ATOM     12  C   UNL     1      14.857   0.638  12.106  0.00  0.00    +0.107 A 
ATOM     13  C   UNL     1      15.229   0.290  10.800  0.00  0.00    +0.116 A 
ATOM     17  C   UNL     1      14.914   1.183   9.755  0.00  0.00    +0.098 A 
ATOM     29  C   UNL     1      14.212   2.374  10.107  0.00  0.00    +0.117 A 
ATOM     30  N   UNL     1      13.883   3.262   9.115  0.00  0.00    -0.209 NA
ATOM     31  C   UNL     1      13.256   4.323   9.537  0.00  0.00    +0.225 A 
ENDROOT
BRANCH   8   7
ATOM      1  C   UNL     1       9.949   5.065  12.235  0.00  0.00    +0.056 C 
ATOM      2  C   UNL     1      10.904   6.086  11.715  0.00  0.00    +0.101 A 
ATOM      3  N   UNL     1      10.582   7.348  11.779  0.00  0.00    -0.082 NA
ATOM      4  O   UNL     1      11.672   8.062  11.216  0.00  0.00    -0.358 OA
ATOM      5  C   UNL     1      12.605   7.175  10.845  0.00  0.00    +0.155 A 
ATOM      6  C   UNL     1      13.833   7.735  10.229  0.00  0.00    +0.075 C 
ATOM      7  C   UNL     1      12.176   5.919  11.123  0.00  0.00    +0.054 A 
ENDBRANCH   8   7
BRANCH  13  14
ATOM     14  C   UNL     1      15.962  -0.991  10.583  0.00  0.00    +0.391 C 
ATOM     15  O   UNL     1      16.145  -1.723  11.644  0.00  0.00    -0.240 OA
ATOM     16  O   UNL     1      16.374  -1.306   9.473  0.00  0.00    -0.240 OA
ENDBRANCH  13  14
BRANCH  31  32
ATOM     32  O   UNL     1      12.879   5.253   8.637  0.00  0.00    -0.456 OA
ATOM     33  C   UNL     1      13.642   5.354   7.431  0.00  0.00    +0.254 C 
ENDBRANCH  31  32
BRANCH  17  18
ATOM     18  N   UNL     1      15.220   0.888   8.432  0.00  0.00    -0.211 NA
BRANCH  18  19
ATOM     19  C   UNL     1      15.461   1.780   7.352  0.00  0.00    +0.067 A 
ATOM     20  C   UNL     1      16.650   2.510   7.335  0.00  0.00    +0.016 A 
ATOM     21  C   UNL     1      16.926   3.374   6.290  0.00  0.00    +0.001 A 
ATOM     22  C   UNL     1      16.039   3.515   5.247  0.00  0.00    -0.000 A 
ATOM     23  C   UNL     1      14.856   2.795   5.229  0.00  0.00    -0.003 A 
ATOM     24  C   UNL     1      14.529   1.923   6.265  0.00  0.00    -0.008 A 
BRANCH  24  25
ATOM     25  C   UNL     1      13.195   1.137   6.176  0.00  0.00    +0.020 C 
ATOM     26  C   UNL     1      12.456   1.029   7.514  0.00  0.00    +0.004 C 
ATOM     27  C   UNL     1      13.452  -0.281   5.669  0.00  0.00    +0.004 C 
ATOM     28  C   UNL     1      12.209   1.804   5.201  0.00  0.00    +0.004 C 
ENDBRANCH  24  25
ENDBRANCH  18  19
ENDBRANCH  17  18
TORSDOF 6
