REMARK  Name = 6Q4D
REMARK  3 active torsions:
REMARK  status: ('A' for Active; 'I' for Inactive)
REMARK    1  A    between atoms: C7_4  and  C8_5
REMARK    2  A    between atoms: C8_5  and  C9_6
REMARK    3  A    between atoms: O1_9  and  C2_10
REMARK                            x       y       z     vdW  Elec       q    Type
REMARK                         _______ _______ _______ _____ _____    ______ ____
ROOT
ATOM      1  C   UNL     1      -0.703  -7.845 -26.418  0.00  0.00    +0.000 A 
ATOM      2 BR   UNL     1      -0.538  -6.843 -27.973  0.00  0.00    +0.000 Br
ATOM      3  C   UNL     1      -1.004  -9.207 -26.478  0.00  0.00    -0.130 A 
ATOM      4  C   UNL     1      -1.008  -9.960 -25.327  0.00  0.00    +0.185 A 
ATOM      7  C   UNL     1      -0.783  -9.343 -24.059  0.00  0.00    +0.000 A 
ATOM     12  C   UNL     1      -0.567  -7.981 -24.031  0.00  0.00    -0.130 A 
ATOM     13  C   UNL     1      -0.509  -7.242 -25.191  0.00  0.00    -0.130 A 
ENDROOT
BRANCH   4   5
ATOM      5  O   UNL     1      -1.288 -11.285 -25.280  0.00  0.00    -0.365 OA
ATOM      6  C   UNL     1      -1.411 -11.967 -26.511  0.00  0.00    +0.030 C 
ENDBRANCH   4   5
BRANCH   7   8
ATOM      8  C   UNL     1      -0.778 -10.158 -22.813  0.00  0.00    -0.100 C 
BRANCH   8   9
ATOM      9  C   UNL     1      -2.088 -10.430 -22.122  0.00  0.00    +0.200 C 
ATOM     10  O   UNL     1      -3.108  -9.830 -22.503  0.00  0.00    -0.600 OA
ATOM     11  O   UNL     1      -2.060 -11.226 -21.166  0.00  0.00    -0.600 OA
ENDBRANCH   8   9
ENDBRANCH   7   8
TORSDOF 3
