REMARK  Name = 3rhk_ligand
REMARK  2 active torsions:
REMARK  status: ('A' for Active; 'I' for Inactive)
REMARK    1  A    between atoms: C1_1  and  C4_9
REMARK    2  A    between atoms: C2_4  and  C6_11
REMARK                            x       y       z     vdW  Elec       q    Type
REMARK                         _______ _______ _______ _____ _____    ______ ____
ROOT
ATOM      1  C   UNL     1      -7.755  12.169  -3.638  0.00  0.00    +0.161 C 
ATOM      2  C   UNL     1      -7.184  12.603  -4.954  0.00  0.00    +0.216 C 
ATOM      3  N   UNL     1      -5.866  12.395  -4.958  0.00  0.00    -0.197 N 
ATOM      4  H   UNL     1      -5.253  12.703  -5.685  0.00  0.00    +0.226 HD
ATOM      5  C   UNL     1      -5.463  11.724  -3.872  0.00  0.00    +0.216 C 
ATOM      6  O   UNL     1      -4.314  11.490  -3.564  0.00  0.00    -0.384 OA
ATOM      7  O   UNL     1      -7.846  13.086  -5.870  0.00  0.00    -0.384 OA
ATOM      8  C   UNL     1      -6.635  11.283  -3.062  0.00  0.00    +0.160 C 
ENDROOT
BRANCH   8   9
ATOM      9  C   UNL     1      -6.479  11.431  -1.580  0.00  0.00    -0.022 A 
ATOM     10  C   UNL     1      -6.021  12.515  -0.844  0.00  0.00    -0.023 A 
ATOM     11  C   UNL     1      -5.508  13.772  -1.112  0.00  0.00    -0.040 A 
ATOM     12  C   UNL     1      -5.138  14.558  -0.013  0.00  0.00    -0.042 A 
ATOM     13  C   UNL     1      -5.268  14.105   1.310  0.00  0.00    -0.033 A 
ATOM     14  C   UNL     1      -5.796  12.834   1.551  0.00  0.00    -0.012 A 
ATOM     15  C   UNL     1      -5.972  12.285   2.954  0.00  0.00    +0.103 C 
ATOM     16  C   UNL     1      -6.532  10.854   3.029  0.00  0.00    -0.010 C 
ATOM     17  C   UNL     1      -6.936  10.109   1.756  0.00  0.00    +0.124 C 
ATOM     18  N   UNL     1      -6.660  10.846   0.520  0.00  0.00    -0.248 N 
ATOM     19  C   UNL     1      -6.159  12.079   0.459  0.00  0.00    +0.084 A 
ATOM     20  C   UNL     1      -6.890  10.414  -0.733  0.00  0.00    +0.112 A 
ENDBRANCH   8   9
BRANCH   1  21
ATOM     21  C   UNL     1      -9.087  11.524  -3.776  0.00  0.00    -0.020 A 
ATOM     22  C   UNL     1     -10.006  11.458  -2.762  0.00  0.00    -0.019 A 
ATOM     23  C   UNL     1      -9.976  11.893  -1.439  0.00  0.00    -0.020 A 
ATOM     24  C   UNL     1     -11.099  11.659  -0.647  0.00  0.00    -0.028 A 
ATOM     25  C   UNL     1     -12.205  11.004  -1.194  0.00  0.00    -0.024 A 
ATOM     26  C   UNL     1     -12.218  10.574  -2.523  0.00  0.00    +0.010 A 
ATOM     27  C   UNL     1     -11.095  10.798  -3.318  0.00  0.00    +0.061 A 
ATOM     28  N   UNL     1     -10.815  10.517  -4.618  0.00  0.00    -0.288 N 
ATOM     29  H   UNL     1     -11.454  10.038  -5.268  0.00  0.00    +0.222 HD
ATOM     30  C   UNL     1      -9.569  10.959  -4.937  0.00  0.00    +0.100 A 
ENDBRANCH   1  21
TORSDOF 2
