REMARK  Name = 6M8B
REMARK  1 active torsions:
REMARK  status: ('A' for Active; 'I' for Inactive)
REMARK    1  A    between atoms: C11_9  and  C14_10
REMARK                            x       y       z     vdW  Elec       q    Type
REMARK                         _______ _______ _______ _____ _____    ______ ____
ROOT
ATOM      1  C   UNL     1       7.343  24.750  22.019  0.00  0.00    -0.130 A 
ATOM      2  C   UNL     1       7.820  24.356  23.270  0.00  0.00    +0.250 A 
ATOM      3  O   UNL     1       8.769  23.385  23.333  0.00  0.00    -0.650 OA
ATOM      4  C   UNL     1       7.367  24.942  24.451  0.00  0.00    -0.130 A 
ATOM      5  C   UNL     1       6.408  25.939  24.420  0.00  0.00    +0.185 A 
ATOM      6  O   UNL     1       5.962  26.513  25.580  0.00  0.00    -0.185 OA
ATOM      7  C   UNL     1       5.023  27.518  25.653  0.00  0.00    +0.000 A 
ATOM     15  C   UNL     1       4.416  28.029  24.386  0.00  0.00    +0.000 A 
ATOM     16  O   UNL     1       3.494  29.011  24.336  0.00  0.00    -0.400 OA
ATOM     17  C   UNL     1       4.849  27.458  23.099  0.00  0.00    +0.550 A 
ATOM     18  O   UNL     1       4.347  27.856  22.029  0.00  0.00    -0.550 OA
ATOM     19  C   UNL     1       5.869  26.385  23.123  0.00  0.00    +0.000 A 
ATOM     20  C   UNL     1       6.381  25.742  21.905  0.00  0.00    +0.250 A 
ATOM     21  O   UNL     1       5.892  26.121  20.708  0.00  0.00    -0.650 OA
ENDROOT
BRANCH   7   8
ATOM      8  C   UNL     1       4.672  27.993  27.023  0.00  0.00    +0.000 A 
ATOM      9  C   UNL     1       4.969  27.141  28.096  0.00  0.00    -0.130 A 
ATOM     10  C   UNL     1       4.669  27.514  29.400  0.00  0.00    -0.130 A 
ATOM     11  C   UNL     1       4.051  28.735  29.651  0.00  0.00    +0.250 A 
ATOM     12  O   UNL     1       3.754  29.095  30.927  0.00  0.00    -0.650 OA
ATOM     13  C   UNL     1       3.744  29.584  28.599  0.00  0.00    -0.130 A 
ATOM     14  C   UNL     1       4.046  29.219  27.289  0.00  0.00    -0.130 A 
ENDBRANCH   7   8
TORSDOF 1
