REMARK  Name = 3aox_ligand
REMARK  7 active torsions:
REMARK  status: ('A' for Active; 'I' for Inactive)
REMARK    1  A    between atoms: C5_2  and  C18_16
REMARK    2  A    between atoms: C10_6  and  N25_27
REMARK    3  A    between atoms: C17_9  and  C21_10
REMARK    4  A    between atoms: C17_9  and  C22_11
REMARK    5  A    between atoms: C24_12  and  C23_26
REMARK    6  A    between atoms: C26_13  and  N31_31
REMARK    7  A    between atoms: C11_25  and  C23_26
REMARK                            x       y       z     vdW  Elec       q    Type
REMARK                         _______ _______ _______ _____ _____    ______ ____
ROOT
ATOM      1  C   UNL     1     -22.401  14.155 -10.516  0.00  0.00    +0.021 A 
ATOM      2  C   UNL     1     -21.846  13.189  -9.663  0.00  0.00    +0.039 A 
ATOM      3  C   UNL     1     -20.481  13.182  -9.358  0.00  0.00    +0.100 A 
ATOM      4  N   UNL     1     -20.258  12.111  -8.528  0.00  0.00    -0.271 N 
ATOM      5  H   UNL     1     -19.358  11.852  -8.124  0.00  0.00    +0.230 HD
ATOM      6  C   UNL     1     -21.434  11.449  -8.330  0.00  0.00    +0.025 A 
ATOM      7  C   UNL     1     -21.625  10.213  -7.488  0.00  0.00    -0.038 C 
ATOM      8  C   UNL     1     -23.025   9.750  -7.466  0.00  0.00    -0.087 A 
ATOM      9  C   UNL     1     -23.328   8.588  -6.707  0.00  0.00    +0.025 A 
ATOM     10  C   UNL     1     -24.642   8.113  -6.644  0.00  0.00    +0.069 A 
ATOM     23  C   UNL     1     -25.672   8.769  -7.321  0.00  0.00    +0.005 A 
ATOM     26  C   UNL     1     -25.393   9.911  -8.088  0.00  0.00    +0.034 A 
ATOM     27  C   UNL     1     -24.084  10.396  -8.150  0.00  0.00    +0.024 A 
ATOM     28  C   UNL     1     -23.833  11.627  -8.963  0.00  0.00    +0.185 C 
ATOM     29  O   UNL     1     -24.764  12.195  -9.558  0.00  0.00    -0.337 OA
ATOM     30  C   UNL     1     -20.690   9.162  -8.076  0.00  0.00    -0.090 C 
ATOM     31  C   UNL     1     -21.218  10.535  -6.041  0.00  0.00    -0.090 C 
ATOM     32  C   UNL     1     -19.641  14.153  -9.891  0.00  0.00    +0.079 A 
ATOM     33  C   UNL     1     -20.164  15.135 -10.733  0.00  0.00    +0.095 A 
ATOM     36  C   UNL     1     -22.431  12.110  -9.018  0.00  0.00    +0.071 A 
ATOM     37  C   UNL     1     -21.545  15.135 -11.029  0.00  0.00    +0.032 A 
ENDROOT
BRANCH  10  11
ATOM     11  N   UNL     1     -24.954   6.937  -5.882  0.00  0.00    -0.306 N 
ATOM     12  C   UNL     1     -25.167   5.765  -6.769  0.00  0.00    +0.127 C 
ATOM     13  C   UNL     1     -25.975   4.721  -5.988  0.00  0.00    +0.004 C 
ATOM     14  C   UNL     1     -25.187   4.299  -4.747  0.00  0.00    -0.091 C 
ATOM     21  C   UNL     1     -24.795   5.545  -3.940  0.00  0.00    +0.004 C 
ATOM     22  C   UNL     1     -24.026   6.561  -4.805  0.00  0.00    +0.127 C 
BRANCH  14  15
ATOM     15  N   UNL     1     -25.924   3.379  -3.821  0.00  0.00    +0.408 NA
ATOM     16  C   UNL     1     -24.947   2.471  -3.177  0.00  0.00    -0.080 C 
ATOM     17  C   UNL     1     -25.631   1.559  -2.154  0.00  0.00    +0.137 C 
ATOM     18  O   UNL     1     -26.685   0.843  -2.797  0.00  0.00    -0.384 OA
ATOM     19  C   UNL     1     -27.666   1.713  -3.369  0.00  0.00    +0.137 C 
ATOM     20  C   UNL     1     -27.011   2.590  -4.437  0.00  0.00    -0.080 C 
ENDBRANCH  14  15
ENDBRANCH  10  11
BRANCH  23  24
ATOM     24  C   UNL     1     -27.111   8.284  -7.263  0.00  0.00    +0.077 C 
ATOM     25  C   UNL     1     -28.126   9.407  -7.098  0.00  0.00    +0.023 C 
ENDBRANCH  23  24
BRANCH  33  34
ATOM     34  C   UNL     1     -19.354  16.048 -11.224  0.00  0.00    +0.102 C 
ATOM     35  N   UNL     1     -18.601  16.822 -11.688  0.00  0.00    -0.326 NA
ENDBRANCH  33  34
TORSDOF 4
