REMARK  Name = 4j52_ligand
REMARK  9 active torsions:
REMARK  status: ('A' for Active; 'I' for Inactive)
REMARK    1  A    between atoms: C1_1  and  O2_2
REMARK    2  A    between atoms: O2_2  and  C3_3
REMARK    3  A    between atoms: C5_5  and  C31_31
REMARK    4  A    between atoms: C8_8  and  N9_9
REMARK    5  A    between atoms: N14_14  and  C15_15
REMARK    6  A    between atoms: C18_18  and  C29_29
REMARK    7  A    between atoms: N21_21  and  C22_22
REMARK    8  A    between atoms: N33_33  and  N34_34
REMARK    9  A    between atoms: N37_37  and  C38_38
REMARK                            x       y       z     vdW  Elec       q    Type
REMARK                         _______ _______ _______ _____ _____    ______ ____
ROOT
ATOM      5  N   UNL     1      32.424 -33.475 -18.499  0.00  0.00    -0.252 N 
ATOM      6  H   UNL     1      31.729 -33.334 -19.246  0.00  0.00    +0.213 HD
ATOM      7  C   UNL     1      32.513 -32.454 -17.568  0.00  0.00    +0.179 A 
ATOM      8  N   UNL     1      33.393 -32.500 -16.579  0.00  0.00    -0.251 NA
ATOM      9  C   UNL     1      33.513 -31.524 -15.696  0.00  0.00    +0.144 A 
ATOM     10  N   UNL     1      34.476 -31.651 -14.692  0.00  0.00    -0.297 N 
ATOM     16  C   UNL     1      34.110 -31.486 -13.284  0.00  0.00    +0.130 C 
ATOM     17  C   UNL     1      32.924 -30.614 -12.919  0.00  0.00    +0.189 C 
ATOM     20  F   UNL     1      33.121 -30.323 -11.582  0.00  0.00    -0.288 F 
ATOM     21  C   UNL     1      32.872 -29.301 -13.647  0.00  0.00    +0.215 C 
ATOM     22  O   UNL     1      32.935 -28.243 -13.011  0.00  0.00    -0.361 OA
ATOM     23  N   UNL     1      32.720 -29.258 -14.997  0.00  0.00    -0.229 N 
ATOM     24  C   UNL     1      32.687 -27.933 -15.635  0.00  0.00    +0.206 C 
ATOM     25  C   UNL     1      32.658 -30.394 -15.835  0.00  0.00    +0.128 A 
ATOM     26  C   UNL     1      31.751 -30.383 -16.877  0.00  0.00    +0.092 A 
ATOM     27  N   UNL     1      31.698 -31.422 -17.716  0.00  0.00    -0.287 NA
ENDROOT
BRANCH   5   4
ATOM      3  C   UNL     1      32.711 -35.595 -19.529  0.00  0.00    +0.120 A 
ATOM      4  C   UNL     1      33.149 -34.676 -18.568  0.00  0.00    +0.098 A 
ATOM     28  C   UNL     1      34.240 -34.991 -17.746  0.00  0.00    +0.011 A 
ATOM     29  C   UNL     1      34.866 -36.223 -17.888  0.00  0.00    -0.008 A 
ATOM     30  C   UNL     1      34.436 -37.155 -18.852  0.00  0.00    +0.033 A 
ATOM     44  C   UNL     1      33.341 -36.831 -19.673  0.00  0.00    +0.033 A 
BRANCH  30  31
ATOM     31  C   UNL     1      35.090 -38.488 -18.992  0.00  0.00    +0.230 C 
ATOM     32  N   UNL     1      35.409 -39.182 -17.883  0.00  0.00    -0.254 N 
ATOM     33  H   UNL     1      35.215 -38.758 -16.999  0.00  0.00    +0.237 HD
ATOM     43  O   UNL     1      35.299 -38.973 -20.077  0.00  0.00    -0.386 OA
BRANCH  32  34
ATOM     34  N   UNL     1      35.980 -40.426 -17.878  0.00  0.00    +0.378 N 
ATOM     35  H   UNL     1      36.066 -40.739 -18.832  0.00  0.00    +0.230 HD
ATOM     36  C   UNL     1      35.116 -41.382 -17.154  0.00  0.00    +0.208 C 
ATOM     37  C   UNL     1      35.756 -42.775 -17.225  0.00  0.00    +0.184 C 
ATOM     38  N   UNL     1      37.118 -42.709 -16.657  0.00  0.00    +0.240 N 
ATOM     39  H   UNL     1      37.022 -42.352 -15.719  0.00  0.00    +0.203 HD
ATOM     40  C   UNL     1      37.754 -44.026 -16.543  0.00  0.00    +0.191 C 
ATOM     41  C   UNL     1      37.970 -41.760 -17.391  0.00  0.00    +0.184 C 
ATOM     42  C   UNL     1      37.332 -40.375 -17.286  0.00  0.00    +0.208 C 
ENDBRANCH  32  34
ENDBRANCH  30  31
BRANCH   3   2
ATOM      1  C   UNL     1      30.893 -36.254 -20.997  0.00  0.00    +0.229 C 
ATOM      2  O   UNL     1      31.640 -35.238 -20.301  0.00  0.00    -0.324 OA
ENDBRANCH   3   2
ENDBRANCH   5   4
BRANCH  10  11
ATOM     11  C   UNL     1      35.371 -32.826 -14.819  0.00  0.00    +0.096 C 
ATOM     12  C   UNL     1      34.779 -34.092 -14.161  0.00  0.00    +0.028 C 
ATOM     13  C   UNL     1      35.767 -34.537 -13.076  0.00  0.00    +0.002 C 
ATOM     14  C   UNL     1      37.113 -33.935 -13.490  0.00  0.00    +0.002 C 
ATOM     15  C   UNL     1      36.738 -32.567 -14.110  0.00  0.00    +0.028 C 
ENDBRANCH  10  11
BRANCH  17  18
ATOM     18  C   UNL     1      31.628 -31.388 -13.037  0.00  0.00    +0.029 C 
ATOM     19  C   UNL     1      30.983 -31.827 -11.980  0.00  0.00    +0.237 C 
ENDBRANCH  17  18
TORSDOF 6
