REMARK  Name = 2uzd_ligand
REMARK  4 active torsions:
REMARK  status: ('A' for Active; 'I' for Inactive)
REMARK    1  A    between atoms: S2_2  and  N6_4
REMARK    2  A    between atoms: S2_2  and  C16_5
REMARK    3  A    between atoms: C13_8  and  C4_11
REMARK    4  A    between atoms: C1_15  and  C6_16
REMARK                            x       y       z     vdW  Elec       q    Type
REMARK                         _______ _______ _______ _____ _____    ______ ____
ROOT
ATOM      7  C   UNL     1     123.596 105.564  31.428  0.00  0.00    +0.123 A 
ATOM      8  C   UNL     1     124.088 104.457  30.857  0.00  0.00    -0.006 A 
ATOM      9  C   UNL     1     123.316 104.161  29.796  0.00  0.00    -0.008 A 
ATOM     10  C   UNL     1     122.353 105.090  29.715  0.00  0.00    +0.115 A 
ATOM     21  O   UNL     1     122.533 105.956  30.717  0.00  0.00    -0.256 OA
ENDROOT
BRANCH  10  11
ATOM     11  C   UNL     1     121.284 105.171  28.700  0.00  0.00    +0.061 C 
ATOM     12  C   UNL     1     120.649 106.357  28.485  0.00  0.00    +0.122 C 
ATOM     13  C   UNL     1     120.042 106.719  27.279  0.00  0.00    +0.253 C 
ATOM     14  O   UNL     1     120.009 106.000  26.282  0.00  0.00    -0.372 OA
ATOM     15  N   UNL     1     119.482 107.973  27.341  0.00  0.00    -0.190 N 
ATOM     16  H   UNL     1     119.003 108.402  26.575  0.00  0.00    +0.244 HD
ATOM     17  C   UNL     1     119.646 108.566  28.544  0.00  0.00    +0.192 C 
ATOM     18  N   UNL     1     119.188 109.774  28.839  0.00  0.00    -0.384 NA
ATOM     19  H   UNL     1     118.686 110.306  28.145  0.00  0.00    +0.055 HD
ATOM     20  S   UNL     1     120.500 107.587  29.628  0.00  0.00    +0.036 S 
ENDBRANCH  10  11
BRANCH   7   6
ATOM      3  C   UNL     1     125.072 107.593  34.759  0.00  0.00    +0.105 A 
ATOM      4  C   UNL     1     124.131 108.196  33.927  0.00  0.00    +0.026 A 
ATOM      5  C   UNL     1     123.642 107.513  32.823  0.00  0.00    +0.008 A 
ATOM      6  C   UNL     1     124.095 106.223  32.536  0.00  0.00    +0.011 A 
ATOM     22  C   UNL     1     125.033 105.611  33.365  0.00  0.00    +0.008 A 
ATOM     23  C   UNL     1     125.520 106.294  34.484  0.00  0.00    +0.026 A 
BRANCH   3   2
ATOM      1  O   UNL     1     126.177 107.478  37.191  0.00  0.00    -0.151 OA
ATOM      2  S   UNL     1     125.686 108.466  36.163  0.00  0.00    +0.065 S 
ATOM     27  O   UNL     1     126.823 109.359  35.747  0.00  0.00    -0.151 OA
BRANCH   2  24
ATOM     24  N   UNL     1     124.485 109.377  36.805  0.00  0.00    -0.261 NA
ATOM     25  H   UNL     1     124.589 110.370  36.867  0.00  0.00    +0.163 HD
ATOM     26  H   UNL     1     123.648 108.940  37.135  0.00  0.00    +0.163 HD
ENDBRANCH   2  24
ENDBRANCH   3   2
ENDBRANCH   7   6
TORSDOF 4
