REMARK  Name = 4umr_ligand
REMARK  2 active torsions:
REMARK  status: ('A' for Active; 'I' for Inactive)
REMARK    1  A    between atoms: C5_5  and  C8_8
REMARK    2  A    between atoms: N10_10  and  C11_11
REMARK                            x       y       z     vdW  Elec       q    Type
REMARK                         _______ _______ _______ _____ _____    ______ ____
ROOT
ATOM      9  C   UNL     1      28.842  10.975  13.541  0.00  0.00    +0.053 A 
ATOM     10  C   UNL     1      27.750  10.255  14.004  0.00  0.00    +0.001 A 
ATOM     11  C   UNL     1      27.269   9.154  13.298  0.00  0.00    -0.009 A 
ATOM     12  C   UNL     1      26.089   8.380  13.829  0.00  0.00    +0.187 C 
ATOM     13  N   UNL     1      25.474   7.504  12.825  0.00  0.00    +0.239 N 
ATOM     14  H   UNL     1      24.993   8.069  12.143  0.00  0.00    +0.203 HD
ATOM     15  H   UNL     1      24.815   6.891  13.279  0.00  0.00    +0.203 HD
ATOM     16  C   UNL     1      26.495   6.696  12.147  0.00  0.00    +0.141 C 
ATOM     17  C   UNL     1      27.406   7.588  11.319  0.00  0.00    +0.099 C 
ATOM     18  C   UNL     1      27.894   8.776  12.108  0.00  0.00    -0.045 A 
ATOM     19  C   UNL     1      28.989   9.503  11.647  0.00  0.00    -0.029 A 
ATOM     20  C   UNL     1      29.456  10.594  12.355  0.00  0.00    -0.011 A 
ENDROOT
BRANCH   9   7
ATOM      6  C   UNL     1      30.325  12.925  14.052  0.00  0.00    +0.228 C 
ATOM      7  N   UNL     1      29.281  12.092  14.290  0.00  0.00    -0.239 N 
ATOM      8  H   UNL     1      28.747  12.296  15.110  0.00  0.00    +0.223 HD
ATOM     21  O   UNL     1      31.199  12.682  13.220  0.00  0.00    -0.376 OA
BRANCH   6   5
ATOM      1  F   UNL     1      30.532  17.617  17.105  0.00  0.00    -0.179 F 
ATOM      2  C   UNL     1      30.475  16.478  16.358  0.00  0.00    +0.138 A 
ATOM      3  C   UNL     1      29.252  15.995  15.993  0.00  0.00    +0.039 A 
ATOM      4  C   UNL     1      29.195  14.835  15.240  0.00  0.00    +0.023 A 
ATOM      5  C   UNL     1      30.367  14.179  14.870  0.00  0.00    +0.051 A 
ATOM     22  C   UNL     1      31.595  14.705  15.260  0.00  0.00    +0.023 A 
ATOM     23  C   UNL     1      31.647  15.867  16.009  0.00  0.00    +0.039 A 
ENDBRANCH   6   5
ENDBRANCH   9   7
TORSDOF 2
