REMARK  Name = 3kga_ligand
REMARK  3 active torsions:
REMARK  status: ('A' for Active; 'I' for Inactive)
REMARK    1  A    between atoms: N1_1  and  C29_18
REMARK    2  A    between atoms: C4_4  and  C7_6
REMARK    3  A    between atoms: C32_20  and  C39_24
REMARK                            x       y       z     vdW  Elec       q    Type
REMARK                         _______ _______ _______ _____ _____    ______ ____
ROOT
ATOM      1  N   UNL     1      37.302   5.211  13.638  0.00  0.00    -0.173 N 
ATOM     18  C   UNL     1      37.442   5.462  14.913  0.00  0.00    +0.180 A 
ATOM     19  C   UNL     1      38.635   6.030  15.124  0.00  0.00    +0.028 A 
ATOM     32  C   UNL     1      39.239   6.180  13.792  0.00  0.00    +0.099 A 
ATOM     33  N   UNL     1      40.386   6.703  13.451  0.00  0.00    -0.333 N 
ATOM     34  H   UNL     1      41.000   7.096  14.165  0.00  0.00    +0.170 HD
ATOM     35  H   UNL     1      40.668   6.718  12.471  0.00  0.00    +0.170 HD
ATOM     36  N   UNL     1      38.393   5.661  12.988  0.00  0.00    -0.202 NA
ENDROOT
BRANCH  19  20
ATOM     20  C   UNL     1      39.109   6.493  16.485  0.00  0.00    -0.038 A 
ATOM     21  C   UNL     1      39.770   7.720  16.586  0.00  0.00    -0.013 A 
ATOM     22  C   UNL     1      40.184   8.214  17.820  0.00  0.00    +0.009 A 
ATOM     23  C   UNL     1      39.926   7.480  18.969  0.00  0.00    +0.045 A 
ATOM     24  C   UNL     1      40.339   8.011  20.330  0.00  0.00    +0.196 C 
ATOM     25  O   UNL     1      41.082   8.989  20.418  0.00  0.00    -0.392 OA
ATOM     26  N   UNL     1      39.798   7.432  21.430  0.00  0.00    -0.286 N 
ATOM     27  H   UNL     1      40.064   7.804  22.342  0.00  0.00    +0.184 HD
ATOM     28  C   UNL     1      38.860   6.311  21.399  0.00  0.00    +0.149 C 
ATOM     29  C   UNL     1      38.949   5.427  20.134  0.00  0.00    +0.095 C 
ATOM     30  C   UNL     1      39.243   6.255  18.874  0.00  0.00    -0.027 A 
ATOM     31  C   UNL     1      38.835   5.775  17.637  0.00  0.00    -0.006 A 
ENDBRANCH  19  20
BRANCH   1   2
ATOM      2  C   UNL     1      36.214   4.648  13.098  0.00  0.00    +0.107 A 
ATOM      3  C   UNL     1      35.463   3.674  13.768  0.00  0.00    +0.030 A 
ATOM      4  C   UNL     1      34.316   3.155  13.167  0.00  0.00    -0.007 A 
ATOM      5  C   UNL     1      33.903   3.624  11.916  0.00  0.00    -0.008 A 
ATOM      6  C   UNL     1      34.645   4.598  11.245  0.00  0.00    -0.029 A 
ATOM     17  C   UNL     1      35.796   5.116  11.848  0.00  0.00    +0.037 A 
BRANCH   6   7
ATOM      7  C   UNL     1      34.192   5.106   9.919  0.00  0.00    -0.034 A 
ATOM      8  C   UNL     1      33.398   4.298   9.071  0.00  0.00    -0.018 A 
ATOM      9  C   UNL     1      32.938   4.746   7.820  0.00  0.00    -0.020 A 
ATOM     10  C   UNL     1      33.293   6.050   7.470  0.00  0.00    -0.027 A 
ATOM     11  C   UNL     1      33.038   6.934   6.274  0.00  0.00    -0.034 A 
ATOM     12  C   UNL     1      33.666   8.100   6.542  0.00  0.00    +0.116 A 
ATOM     13  N   UNL     1      34.251   8.057   7.713  0.00  0.00    -0.279 N 
ATOM     14  H   UNL     1      34.782   8.825   8.122  0.00  0.00    +0.227 HD
ATOM     15  C   UNL     1      34.057   6.862   8.305  0.00  0.00    +0.065 A 
ATOM     16  C   UNL     1      34.523   6.417   9.542  0.00  0.00    +0.020 A 
ENDBRANCH   6   7
ENDBRANCH   1   2
TORSDOF 3
