REMARK  Name = 7GK
REMARK  3 active torsions:
REMARK  status: ('A' for Active; 'I' for Inactive)
REMARK    1  A    between atoms: NAQ_6  and  CAN_7
REMARK    2  A    between atoms: CAJ_12  and  CAH_13
REMARK    3  A    between atoms: CAD_16  and  CAK_17
REMARK                            x       y       z     vdW  Elec       q    Type
REMARK                         _______ _______ _______ _____ _____    ______ ____
ROOT
ATOM      3  C   UNL     1      22.373  34.736  -5.910  0.00  0.00    +0.048 A 
ATOM      4  C   UNL     1      22.157  33.714  -4.994  0.00  0.00    +0.015 A 
ATOM      5  C   UNL     1      22.261  33.969  -3.632  0.00  0.00    +0.005 A 
ATOM      6  C   UNL     1      22.584  35.245  -3.186  0.00  0.00    +0.043 A 
ATOM     18  C   UNL     1      22.800  36.267  -4.103  0.00  0.00    +0.005 A 
ATOM     19  C   UNL     1      22.694  36.013  -5.465  0.00  0.00    +0.015 A 
ENDROOT
BRANCH   6   7
ATOM      7  C   UNL     1      22.684  35.483  -1.882  0.00  0.00    +0.194 C 
ATOM      8  N   UNL     1      22.487  34.581  -0.933  0.00  0.00    -0.035 NA
ATOM      9  C   UNL     1      22.687  35.196   0.229  0.00  0.00    +0.372 C 
ATOM     10  N   UNL     1      22.611  34.736   1.486  0.00  0.00    -0.055 NA
ATOM     11  C   UNL     1      22.870  35.585   2.563  0.00  0.00    +0.290 C 
ATOM     12  C   UNL     1      23.206  36.902   2.295  0.00  0.00    +0.042 C 
ATOM     13  C   UNL     1      23.269  37.321   0.973  0.00  0.00    +0.076 C 
ATOM     16  C   UNL     1      23.012  36.470  -0.020  0.00  0.00    +0.101 C 
ATOM     17  C   UNL     1      23.012  36.648  -1.340  0.00  0.00    +0.055 C 
BRANCH  13  14
ATOM     14  C   UNL     1      23.613  38.674   0.678  0.00  0.00    +0.101 C 
ATOM     15  N   UNL     1      23.887  39.749   0.446  0.00  0.00    -0.191 NA
ENDBRANCH  13  14
ENDBRANCH   6   7
BRANCH   3   2
ATOM      1  C   UNL     1      22.069  35.545  -8.220  0.00  0.00    +0.110 C 
ATOM      2  N   UNL     1      22.272  34.488  -7.221  0.00  0.00    -0.304 N 
ATOM     20  C   UNL     1      21.937  33.163  -7.757  0.00  0.00    +0.110 C 
ATOM     21  C   UNL     1      22.710  32.921  -9.044  0.00  0.00    +0.110 C 
ATOM     22  N   UNL     1      22.420  33.923 -10.089  0.00  0.00    -0.214 NA
ATOM     23  C   UNL     1      22.836  35.205  -9.488  0.00  0.00    +0.110 C 
ENDBRANCH   3   2
TORSDOF 3
