REMARK  Name = 4jg7_ligand
REMARK  6 active torsions:
REMARK  status: ('A' for Active; 'I' for Inactive)
REMARK    1  A    between atoms: C02_2  and  C03_3
REMARK    2  A    between atoms: C02_2  and  C16_16
REMARK    3  A    between atoms: C05_5  and  C06_6
REMARK    4  A    between atoms: C06_6  and  C07_7
REMARK    5  A    between atoms: C07_7  and  C08_8
REMARK    6  A    between atoms: C07_7  and  C10_10
REMARK                            x       y       z     vdW  Elec       q    Type
REMARK                         _______ _______ _______ _____ _____    ______ ____
ROOT
ATOM     13  C   UNL     1       6.495   9.252 -21.886  0.00  0.00    +0.021 A 
ATOM     14  C   UNL     1       7.217   9.193 -20.584  0.00  0.00    +0.010 A 
ATOM     15  C   UNL     1       6.873  10.050 -19.564  0.00  0.00    -0.002 A 
ATOM     16  C   UNL     1       5.765  11.048 -19.753  0.00  0.00    +0.003 A 
ATOM     17  C   UNL     1       5.096  11.114 -20.946  0.00  0.00    -0.033 A 
ATOM     27  C   UNL     1       5.474  10.176 -22.059  0.00  0.00    +0.018 A 
ENDROOT
BRANCH  13   2
ATOM      1  O   UNL     1       7.824   7.529 -22.853  0.00  0.00    -0.387 OA
ATOM      2  C   UNL     1       6.885   8.305 -23.006  0.00  0.00    +0.134 C 
BRANCH   2   3
ATOM      3  C   UNL     1       6.123   8.288 -24.318  0.00  0.00    +0.043 A 
ATOM      4  C   UNL     1       6.733   8.276 -25.626  0.00  0.00    +0.018 A 
ATOM      5  C   UNL     1       8.050   8.276 -26.070  0.00  0.00    +0.013 A 
ATOM      6  C   UNL     1       8.296   8.263 -27.443  0.00  0.00    +0.010 A 
ATOM      7  C   UNL     1       7.212   8.250 -28.320  0.00  0.00    +0.070 A 
ATOM      8  N   UNL     1       5.950   8.250 -27.873  0.00  0.00    -0.284 NA
ATOM      9  C   UNL     1       5.692   8.263 -26.561  0.00  0.00    +0.141 A 
ATOM     10  N   UNL     1       4.490   8.266 -25.864  0.00  0.00    -0.255 N 
ATOM     11  H   UNL     1       3.555   8.259 -26.296  0.00  0.00    +0.236 HD
ATOM     12  C   UNL     1       4.738   8.280 -24.499  0.00  0.00    +0.164 A 
ENDBRANCH   2   3
ENDBRANCH  13   2
BRANCH  17  18
ATOM     18  C   UNL     1       3.974  12.118 -21.131  0.00  0.00    +0.121 C 
BRANCH  18  19
ATOM     19  C   UNL     1       2.566  11.648 -20.955  0.00  0.00    +0.266 C 
BRANCH  19  20
ATOM     20  C   UNL     1       2.301  10.450 -21.808  0.00  0.00    +0.205 C 
ATOM     21  O   UNL     1       2.388   9.335 -21.322  0.00  0.00    -0.394 OA
ATOM     22  N   UNL     1       1.950  10.605 -23.196  0.00  0.00    -0.299 N 
ATOM     23  H   UNL     1       1.882  11.519 -23.596  0.00  0.00    +0.181 HD
ATOM     24  H   UNL     1       1.774   9.798 -23.760  0.00  0.00    +0.181 HD
ENDBRANCH  19  20
BRANCH  19  25
ATOM     25  C   UNL     1       2.361  11.256 -19.521  0.00  0.00    +0.117 C 
ATOM     26  N   UNL     1       2.213  10.962 -18.426  0.00  0.00    -0.300 NA
ENDBRANCH  19  25
ENDBRANCH  18  19
ENDBRANCH  17  18
TORSDOF 6
