REMARK  Name = 2UV5
REMARK  8 active torsions:
REMARK  status: ('A' for Active; 'I' for Inactive)
REMARK    1  A    between atoms: C_2  and  C_4
REMARK    2  A    between atoms: C_5  and  N_6
REMARK    3  A    between atoms: N_9  and  C_10
REMARK    4  A    between atoms: C_11  and  O_14
REMARK    5  A    between atoms: C_12  and  O_13
REMARK    6  A    between atoms: C_16  and  C_17
REMARK    7  A    between atoms: C_17  and  O_18
REMARK    8  A    between atoms: O_18  and  P_19
REMARK                            x       y       z     vdW  Elec       q    Type
REMARK                         _______ _______ _______ _____ _____    ______ ____
ROOT
ATOM      7  C   UNL     1      15.997  24.747  32.118  0.00  0.00    +0.253 C 
ATOM      8  O   UNL     1      16.629  25.224  30.912  0.00  0.00    -0.346 OA
ATOM      9  C   UNL     1      18.053  25.247  31.103  0.00  0.00    +0.178 C 
ATOM     16  C   UNL     1      18.332  24.505  32.429  0.00  0.00    +0.178 C 
ATOM     19  C   UNL     1      17.009  23.755  32.722  0.00  0.00    +0.195 C 
ENDROOT
BRANCH   7   6
ATOM      3  C   UNL     1      12.649  23.716  31.235  0.00  0.00    +0.164 A 
ATOM      4  N   UNL     1      13.348  22.589  30.870  0.00  0.00    -0.229 NA
ATOM      5  C   UNL     1      14.613  22.883  31.170  0.00  0.00    +0.203 A 
ATOM      6  N   UNL     1      14.751  24.129  31.719  0.00  0.00    -0.289 N 
ATOM     22  C   UNL     1      13.499  24.691  31.743  0.00  0.00    +0.131 A 
BRANCH   3   2
ATOM      1  O   UNL     1      10.702  24.884  31.273  0.00  0.00    -0.269 OA
ATOM      2  C   UNL     1      11.232  23.828  31.070  0.00  0.00    +0.263 C 
ATOM     26  N   UNL     1      10.583  22.731  30.687  0.00  0.00    -0.324 N 
ATOM     27  H   UNL     1      11.121  21.821  30.524  0.00  0.00    +0.145 HD
ATOM     28  H   UNL     1       9.523  22.759  30.542  0.00  0.00    +0.145 HD
ENDBRANCH   3   2
BRANCH  22  23
ATOM     23  N   UNL     1      13.230  25.933  32.209  0.00  0.00    -0.343 N 
ATOM     24  H   UNL     1      14.025  26.554  32.566  0.00  0.00    +0.144 HD
ATOM     25  H   UNL     1      12.223  26.294  32.220  0.00  0.00    +0.144 HD
ENDBRANCH  22  23
ENDBRANCH   7   6
BRANCH  16  17
ATOM     17  O   UNL     1      18.681  25.423  33.458  0.00  0.00    -0.386 OA
ATOM     18  H   UNL     1      17.921  26.140  33.561  0.00  0.00    +0.210 HD
ENDBRANCH  16  17
BRANCH  19  20
ATOM     20  O   UNL     1      16.777  23.560  34.114  0.00  0.00    -0.385 OA
ATOM     21  H   UNL     1      16.869  24.477  34.617  0.00  0.00    +0.210 HD
ENDBRANCH  19  20
BRANCH   9  10
ATOM     10  C   UNL     1      18.693  24.634  29.885  0.00  0.00    +0.198 C 
BRANCH  10  11
ATOM     11  O   UNL     1      18.379  23.228  29.927  0.00  0.00    -0.365 OA
BRANCH  11  12
ATOM     12  P   UNL     1      18.870  22.272  28.775  0.00  0.00    -0.015 P 
ATOM     13  O   UNL     1      18.559  20.798  29.098  0.00  0.00    -0.577 OA
ATOM     14  O   UNL     1      20.396  22.486  28.580  0.00  0.00    -0.577 OA
ATOM     15  O   UNL     1      18.147  22.677  27.535  0.00  0.00    -0.638 OA
ENDBRANCH  11  12
ENDBRANCH  10  11
ENDBRANCH   9  10
TORSDOF 8
