REMARK  Name = 2JIV
REMARK  16 active torsions:
REMARK  status: ('A' for Active; 'I' for Inactive)
REMARK    1  A    between atoms: C_1  and  C_12
REMARK    2  A    between atoms: C_15  and  N_34
REMARK    3  A    between atoms: C_16  and  N_35
REMARK    4  A    between atoms: C_17  and  N_34
REMARK    5  A    between atoms: C_18  and  O_38
REMARK    6  A    between atoms: C_19  and  O_39
REMARK    7  A    between atoms: C_21  and  C_26
REMARK    8  A    between atoms: C_22  and  C_27
REMARK    9  A    between atoms: C_23  and  C_30
REMARK   10  A    between atoms: C_24  and  N_36
REMARK   11  A    between atoms: C_25  and  N_36
REMARK   12  A    between atoms: C_26  and  O_38
REMARK   13  A    between atoms: C_27  and  C_28
REMARK   14  A    between atoms: C_28  and  C_29
REMARK   15  A    between atoms: C_29  and  N_36
REMARK   16  A    between atoms: C_30  and  O_39
REMARK                            x       y       z     vdW  Elec       q    Type
REMARK                         _______ _______ _______ _____ _____    ______ ____
ROOT
ATOM      3  C   UNL     1       3.968   3.104  14.523  0.00  0.00    +0.091 A 
ATOM      4  C   UNL     1       4.052   3.488  15.849  0.00  0.00    +0.060 A 
ATOM     22  C   UNL     1       2.993   4.188  16.405  0.00  0.00    +0.025 A 
ATOM     23  C   UNL     1       1.885   4.489  15.624  0.00  0.00    +0.076 A 
ATOM     24  N   UNL     1       1.838   4.103  14.342  0.00  0.00    -0.254 NA
ATOM     25  C   UNL     1       0.819   5.191  16.174  0.00  0.00    +0.075 A 
ATOM     26  C   UNL     1       0.864   5.590  17.504  0.00  0.00    +0.144 A 
ATOM     30  C   UNL     1       1.974   5.291  18.282  0.00  0.00    +0.076 A 
ATOM     41  C   UNL     1       3.038   4.588  17.734  0.00  0.00    +0.039 A 
ATOM     42  C   UNL     1       2.836   3.433  13.789  0.00  0.00    +0.132 A 
ENDROOT
BRANCH  30  31
ATOM     31  N   UNL     1       2.019   5.672  19.552  0.00  0.00    -0.283 N 
ATOM     32  H   UNL     1       2.906   6.119  19.948  0.00  0.00    +0.155 HD
ATOM     33  C   UNL     1       0.957   5.495  20.328  0.00  0.00    +0.217 C 
ATOM     34  O   UNL     1      -0.096   4.989  19.948  0.00  0.00    -0.276 OA
BRANCH  33  35
ATOM     35  C   UNL     1       1.124   5.961  21.772  0.00  0.00    +0.097 C 
BRANCH  35  36
ATOM     36  C   UNL     1       1.147   4.766  22.722  0.00  0.00    +0.024 C 
BRANCH  36  37
ATOM     37  C   UNL     1       1.630   5.228  24.095  0.00  0.00    +0.084 C 
BRANCH  37  38
ATOM     38  N   UNL     1       2.542   6.366  23.918  0.00  0.00    -0.308 NA
ATOM     39  C   UNL     1       3.240   6.228  22.632  0.00  0.00    +0.104 C 
ATOM     40  C   UNL     1       3.526   6.390  25.007  0.00  0.00    +0.104 C 
ENDBRANCH  37  38
ENDBRANCH  36  37
ENDBRANCH  35  36
ENDBRANCH  33  35
ENDBRANCH  30  31
BRANCH   3   1
ATOM      1  C   UNL     1       5.040   2.380  13.915  0.00  0.00    +0.103 C 
ATOM      2  N   UNL     1       5.892   1.804  13.429  0.00  0.00    -0.191 NA
ENDBRANCH   3   1
BRANCH   4   5
ATOM      5  N   UNL     1       5.122   3.189  16.581  0.00  0.00    -0.313 N 
ATOM      6  H   UNL     1       5.003   2.993  17.626  0.00  0.00    +0.152 HD
BRANCH   5   7
ATOM      7  C   UNL     1       6.337   3.128  16.042  0.00  0.00    +0.033 A 
ATOM      8  C   UNL     1       6.740   4.058  15.092  0.00  0.00    +0.047 A 
ATOM      9  C   UNL     1       8.013   3.983  14.540  0.00  0.00    +0.084 A 
ATOM     10 CL   UNL     1       8.521   5.138  13.355  0.00  0.00    -0.080 Cl
ATOM     11  C   UNL     1       8.884   2.980  14.938  0.00  0.00    +0.139 A 
ATOM     20  C   UNL     1       8.484   2.052  15.889  0.00  0.00    +0.049 A 
ATOM     21  C   UNL     1       7.212   2.126  16.440  0.00  0.00    +0.027 A 
BRANCH  11  12
ATOM     12  O   UNL     1      10.128   2.907  14.400  0.00  0.00    -0.484 OA
BRANCH  12  13
ATOM     13  C   UNL     1      10.920   2.120  15.176  0.00  0.00    +0.284 C 
BRANCH  13  14
ATOM     14  C   UNL     1      10.680   0.611  15.228  0.00  0.00    +0.078 A 
ATOM     15  N   UNL     1      11.418  -0.156  16.043  0.00  0.00    -0.257 NA
ATOM     16  C   UNL     1      11.237  -1.462  16.112  0.00  0.00    +0.111 A 
ATOM     17  C   UNL     1      10.268  -2.087  15.338  0.00  0.00    +0.020 A 
ATOM     18  C   UNL     1       9.486  -1.327  14.486  0.00  0.00    +0.003 A 
ATOM     19  C   UNL     1       9.696   0.042  14.430  0.00  0.00    +0.027 A 
ENDBRANCH  13  14
ENDBRANCH  12  13
ENDBRANCH  11  12
ENDBRANCH   5   7
ENDBRANCH   4   5
BRANCH  26  27
ATOM     27  O   UNL     1      -0.173   6.279  18.047  0.00  0.00    -0.490 OA
BRANCH  27  28
ATOM     28  C   UNL     1      -1.179   6.493  17.053  0.00  0.00    +0.226 C 
ATOM     29  C   UNL     1      -2.275   7.381  17.640  0.00  0.00    +0.048 C 
ENDBRANCH  27  28
ENDBRANCH  26  27
TORSDOF 13
