REMARK  Name = 3D1
REMARK  2 active torsions:
REMARK  status: ('A' for Active; 'I' for Inactive)
REMARK    1  A    between atoms: C5'_2  and  C4'_3
REMARK    2  A    between atoms: C1'_5  and  N9_6
REMARK                            x       y       z     vdW  Elec       q    Type
REMARK                         _______ _______ _______ _____ _____    ______ ____
ROOT
ATOM      6  N9    A A   1     110.203  23.097  -9.028  0.00  0.00    -0.271 N 
ATOM      7  C4    A A   1     111.499  22.905  -8.910  0.00  0.00    +0.169 A 
ATOM      8  N3    A A   1     112.089  21.678  -8.790  0.00  0.00    -0.205 NA
ATOM      9  C2    A A   1     113.517  21.587  -8.714  0.00  0.00    +0.202 A 
ATOM     10  N1    A A   1     114.174  22.835  -8.558  0.00  0.00    -0.204 NA
ATOM     11  C6    A A   1     113.655  24.061  -8.656  0.00  0.00    +0.192 A 
ATOM     12  N6    A A   1     114.355  25.144  -8.579  0.00  0.00    -0.105 NA
ATOM     13  C5    A A   1     112.201  24.069  -8.827  0.00  0.00    +0.152 A 
ATOM     14  N7    A A   1     111.290  25.057  -8.913  0.00  0.00    -0.219 NA
ATOM     15  C8    A A   1     110.060  24.449  -9.045  0.00  0.00    +0.181 A 
ENDROOT
BRANCH   6   5
ATOM      3  C4*   A A   1     108.777  20.070  -7.915  0.00  0.00    +0.180 C 
ATOM      4  O4*   A A   1     109.388  21.379  -7.760  0.00  0.00    -0.333 OA
ATOM      5  C1*   A A   1     109.117  22.111  -8.988  0.00  0.00    +0.209 C 
ATOM     16  C2*   A A   1     109.143  21.083 -10.100  0.00  0.00    +0.089 C 
ATOM     17  C3*   A A   1     108.465  19.913  -9.417  0.00  0.00    +0.186 C 
ATOM     18  O3*   A A   1     107.052  19.859  -9.583  0.00  0.00    -0.220 OA
BRANCH   3   2
ATOM      1  O5*   A A   1     110.960  19.151  -8.361  0.00  0.00    -0.218 OA
ATOM      2  C5*   A A   1     109.821  19.038  -7.481  0.00  0.00    +0.214 C 
ENDBRANCH   3   2
ENDBRANCH   6   5
TORSDOF 2
