REMARK  Name = OQC
REMARK  6 active torsions:
REMARK  status: ('A' for Active; 'I' for Inactive)
REMARK    1  A    between atoms: C7_1  and  C4_8
REMARK    2  A    between atoms: C1_5  and  C_6
REMARK    3  A    between atoms: C7_15  and  C4_22
REMARK    4  A    between atoms: C1_19  and  C_20
REMARK    5  A    between atoms: C7_29  and  C4_36
REMARK    6  A    between atoms: C1_33  and  C_34
REMARK                            x       y       z     vdW  Elec       q    Type
REMARK                         _______ _______ _______ _____ _____    ______ ____
ROOT
ATOM      6  C   UNL     1      33.691 148.695 367.413  0.00  0.00    +0.014 A 
ATOM      7  C   UNL     1      33.320 147.428 367.856  0.00  0.00    +0.001 A 
ATOM      8  C   UNL     1      33.350 146.342 367.000  0.00  0.00    -0.003 A 
ATOM      9  C   UNL     1      33.747 146.480 365.682  0.00  0.00    -0.002 A 
ATOM     10  C   UNL     1      34.115 147.741 365.232  0.00  0.00    +0.009 A 
ATOM     13  C   UNL     1      34.081 148.827 366.086  0.00  0.00    +0.057 A 
ATOM     14 CL   UNL     1      34.522 150.375 365.444  0.00  0.00    -0.082 Cl
ENDROOT
BRANCH   6   1
ATOM      1  C   UNL     1      33.693 149.833 368.362  0.00  0.00    +0.042 A 
ATOM      2  C   UNL     1      32.532 150.235 369.075  0.00  0.00    +0.044 A 
ATOM      3  C   UNL     1      32.880 151.263 369.854  0.00  0.00    +0.180 A 
ATOM      4  O   UNL     1      34.200 151.555 369.691  0.00  0.00    -0.447 OA
ATOM      5  C   UNL     1      34.673 150.666 368.771  0.00  0.00    +0.180 A 
ENDBRANCH   6   1
BRANCH   9  11
ATOM     11  C   UNL     1      33.786 145.300 364.752  0.00  0.00    +0.136 C 
ATOM     12  N   UNL     1      34.802 144.310 365.081  0.00  0.00    -0.126 NA
ENDBRANCH   9  11
TORSDOF 2
