REMARK  Name = 2xa4_ligand
REMARK  5 active torsions:
REMARK  status: ('A' for Active; 'I' for Inactive)
REMARK    1  A    between atoms: C2_7  and  C1_12
REMARK    2  A    between atoms: C4_8  and  N7_21
REMARK    3  A    between atoms: C17_10  and  C15_14
REMARK    4  A    between atoms: C16_13  and  C15_14
REMARK    5  A    between atoms: C15_14  and  N14_22
REMARK                            x       y       z     vdW  Elec       q    Type
REMARK                         _______ _______ _______ _____ _____    ______ ____
ROOT
ATOM      3  N   UNL     1       0.245   2.046  27.420  0.00  0.00    -0.229 N 
ATOM      4  H   UNL     1       0.161   1.773  28.410  0.00  0.00    +0.222 HD
ATOM      5  C   UNL     1      -0.867   2.663  26.904  0.00  0.00    +0.151 A 
ATOM      6  N   UNL     1      -0.868   3.000  25.691  0.00  0.00    -0.237 NA
ATOM      7  C   UNL     1      -1.987   3.602  25.161  0.00  0.00    +0.177 A 
ATOM      8  N   UNL     1      -2.030   3.913  23.829  0.00  0.00    -0.273 N 
ATOM      9  H   UNL     1      -2.875   4.369  23.456  0.00  0.00    +0.190 HD
ATOM     19  N   UNL     1      -3.041   3.861  25.862  0.00  0.00    -0.272 NA
ATOM     20  C   UNL     1      -3.078   3.562  27.182  0.00  0.00    +0.100 A 
ATOM     21  C   UNL     1      -1.920   2.885  27.700  0.00  0.00    +0.098 A 
ATOM     22 CL   UNL     1      -1.979   2.438  29.360  0.00  0.00    -0.075 Cl
ENDROOT
BRANCH   3   2
ATOM      1  C   UNL     1       1.818   1.946  25.489  0.00  0.00    -0.010 A 
ATOM      2  C   UNL     1       1.442   1.733  26.846  0.00  0.00    +0.173 A 
ATOM     23  N   UNL     1       2.445   1.158  27.520  0.00  0.00    -0.211 N 
ATOM     24  H   UNL     1       2.454   0.888  28.514  0.00  0.00    +0.247 HD
ATOM     25  N   UNL     1       3.431   1.008  26.634  0.00  0.00    -0.253 NA
ATOM     26  C   UNL     1       3.107   1.466  25.392  0.00  0.00    -0.015 A 
ATOM     27  C   UNL     1       4.053   1.390  24.270  0.00  0.00    +0.079 C 
ENDBRANCH   3   2
BRANCH   8  10
ATOM     10  C   UNL     1      -0.942   3.629  22.924  0.00  0.00    +0.184 C 
ATOM     11  C   UNL     1      -1.457   3.742  21.514  0.00  0.00    +0.058 C 
BRANCH  10  12
ATOM     12  C   UNL     1       0.155   4.626  23.076  0.00  0.00    +0.126 A 
ATOM     13  N   UNL     1      -0.192   5.830  23.545  0.00  0.00    -0.264 NA
ATOM     14  C   UNL     1       0.822   6.690  23.660  0.00  0.00    +0.146 A 
ATOM     15  C   UNL     1       2.115   6.380  23.316  0.00  0.00    +0.178 A 
ATOM     16  F   UNL     1       3.110   7.271  23.440  0.00  0.00    -0.173 F 
ATOM     17  C   UNL     1       2.342   5.110  22.847  0.00  0.00    +0.146 A 
ATOM     18  N   UNL     1       1.373   4.207  22.716  0.00  0.00    -0.264 NA
ENDBRANCH  10  12
ENDBRANCH   8  10
TORSDOF 3
