REMARK  Name = 4app_ligand
REMARK  8 active torsions:
REMARK  status: ('A' for Active; 'I' for Inactive)
REMARK    1  A    between atoms: C1_1  and  O41_41
REMARK    2  A    between atoms: C7_7  and  C39_39
REMARK    3  A    between atoms: C9_9  and  O41_41
REMARK    4  A    between atoms: C13_13  and  C37_37
REMARK    5  A    between atoms: C20_20  and  C37_37
REMARK    6  A    between atoms: N22_22  and  C36_36
REMARK    7  A    between atoms: C28_28  and  C32_32
REMARK    8  A    between atoms: C28_28  and  C33_33
REMARK                            x       y       z     vdW  Elec       q    Type
REMARK                         _______ _______ _______ _____ _____    ______ ____
ROOT
ATOM      8  C   UNL     1      44.021  18.134  20.052  0.00  0.00    +0.226 C 
ATOM      9  O   UNL     1      44.607  18.777  19.188  0.00  0.00    -0.376 OA
ATOM     10  N   UNL     1      43.726  18.676  21.241  0.00  0.00    -0.222 N 
ATOM     11  H   UNL     1      43.253  18.119  21.924  0.00  0.00    +0.220 HD
ATOM     12  C   UNL     1      44.080  20.082  21.578  0.00  0.00    +0.191 A 
ATOM     13  C   UNL     1      44.461  21.083  20.640  0.00  0.00    +0.071 A 
ATOM     14  C   UNL     1      44.642  21.457  19.219  0.00  0.00    +0.221 C 
ATOM     15  N   UNL     1      44.948  22.928  19.295  0.00  0.00    -0.287 N 
ATOM     16  C   UNL     1      45.073  23.735  18.223  0.00  0.00    +0.254 C 
ATOM     17  O   UNL     1      45.393  24.922  18.354  0.00  0.00    -0.401 OA
ATOM     18  N   UNL     1      44.842  23.180  16.869  0.00  0.00    -0.245 N 
ATOM     19  C   UNL     1      43.373  23.254  16.646  0.00  0.00    +0.189 C 
ATOM     20  C   UNL     1      43.024  22.594  15.316  0.00  0.00    +0.155 C 
ATOM     21  N   UNL     1      43.737  23.292  14.211  0.00  0.00    +0.236 N 
ATOM     22  H   UNL     1      43.487  24.267  14.260  0.00  0.00    +0.203 HD
ATOM     23  C   UNL     1      43.348  22.816  12.874  0.00  0.00    +0.191 C 
ATOM     24  C   UNL     1      45.197  23.190  14.421  0.00  0.00    +0.161 C 
ATOM     25  C   UNL     1      45.540  23.891  15.784  0.00  0.00    +0.158 C 
ATOM     33  C   UNL     1      45.081  23.445  20.692  0.00  0.00    +0.043 C 
ATOM     34  C   UNL     1      44.083  24.567  21.054  0.00  0.00    -0.047 C 
ATOM     35  C   UNL     1      46.521  23.895  21.031  0.00  0.00    -0.047 C 
ATOM     36  C   UNL     1      44.661  22.189  21.425  0.00  0.00    +0.070 A 
ATOM     37  N   UNL     1      44.417  21.967  22.720  0.00  0.00    -0.214 N 
ATOM     38  H   UNL     1      44.483  22.648  23.489  0.00  0.00    +0.251 HD
ATOM     39  N   UNL     1      44.053  20.619  22.817  0.00  0.00    -0.150 NA
ENDROOT
BRANCH   8   7
ATOM      3  C   UNL     1      43.156  14.821  18.380  0.00  0.00    +0.121 A 
ATOM      4  C   UNL     1      42.814  14.018  19.523  0.00  0.00    +0.035 A 
ATOM      5  C   UNL     1      42.888  14.568  20.833  0.00  0.00    -0.004 A 
ATOM      6  C   UNL     1      43.296  15.927  21.004  0.00  0.00    +0.006 A 
ATOM      7  C   UNL     1      43.617  16.738  19.868  0.00  0.00    +0.047 A 
ATOM     40  C   UNL     1      43.566  16.178  18.560  0.00  0.00    +0.052 A 
BRANCH   3   2
ATOM      2  O   UNL     1      43.040  14.409  16.985  0.00  0.00    -0.257 OA
BRANCH   2   1
ATOM      1  C   UNL     1      43.297  13.082  16.466  0.00  0.00    +0.116 A 
ATOM     41  C   UNL     1      44.401  12.240  16.850  0.00  0.00    +0.027 A 
ATOM     42  C   UNL     1      44.633  11.013  16.168  0.00  0.00    -0.011 A 
ATOM     43  C   UNL     1      43.754  10.628  15.112  0.00  0.00    -0.020 A 
ATOM     44  C   UNL     1      42.641  11.442  14.734  0.00  0.00    -0.011 A 
ATOM     45  C   UNL     1      42.409  12.669  15.423  0.00  0.00    +0.027 A 
ENDBRANCH   2   1
ENDBRANCH   3   2
ENDBRANCH   8   7
BRANCH  25  26
ATOM     26  C   UNL     1      47.055  24.034  16.110  0.00  0.00    +0.099 C 
BRANCH  26  27
ATOM     27  C   UNL     1      47.865  24.888  15.213  0.00  0.00    -0.041 A 
ATOM     28  C   UNL     1      49.277  24.649  15.186  0.00  0.00    -0.005 A 
ATOM     29  C   UNL     1      50.135  25.521  14.444  0.00  0.00    -0.009 A 
ATOM     30  C   UNL     1      49.565  26.619  13.719  0.00  0.00    -0.013 A 
ATOM     31  C   UNL     1      48.154  26.849  13.724  0.00  0.00    -0.009 A 
ATOM     32  C   UNL     1      47.302  25.977  14.467  0.00  0.00    -0.005 A 
ENDBRANCH  26  27
ENDBRANCH  25  26
TORSDOF 5
