REMARK  Name = 5HG9
REMARK  8 active torsions:
REMARK  status: ('A' for Active; 'I' for Inactive)
REMARK    1  A    between atoms: C_3  and  C_4
REMARK    2  A    between atoms: C_5  and  C_15
REMARK    3  A    between atoms: C_9  and  N_26
REMARK    4  A    between atoms: C_10  and  C_18
REMARK    5  A    between atoms: C_15  and  C_16
REMARK    6  A    between atoms: C_18  and  O_19
REMARK    7  A    between atoms: O_19  and  C_20
REMARK    8  A    between atoms: N_28  and  C_31
REMARK                            x       y       z     vdW  Elec       q    Type
REMARK                         _______ _______ _______ _____ _____    ______ ____
ROOT
ATOM      6  C   UNL     1     -12.665  15.772 -28.574  0.00  0.00    +0.229 A 
ATOM      7  N   UNL     1     -13.346  14.654 -28.158  0.00  0.00    -0.179 NA
ATOM      8  C   UNL     1     -12.895  13.394 -28.442  0.00  0.00    +0.225 A 
ATOM      9  N   UNL     1     -13.644  12.280 -27.976  0.00  0.00    -0.281 N 
ATOM     10  H   UNL     1     -13.238  11.324 -28.233  0.00  0.00    +0.155 HD
ATOM     17  N   UNL     1     -11.746  13.151 -29.154  0.00  0.00    -0.194 NA
ATOM     18  C   UNL     1     -11.086  14.285 -29.555  0.00  0.00    +0.168 A 
ATOM     19  N   UNL     1      -9.924  14.313 -30.272  0.00  0.00    -0.235 NA
ATOM     20  C   UNL     1      -9.546  15.619 -30.496  0.00  0.00    +0.114 A 
ATOM     21  C   UNL     1     -10.487  16.452 -29.910  0.00  0.00    +0.036 A 
ATOM     22  C   UNL     1     -11.468  15.622 -29.312  0.00  0.00    +0.082 A 
ENDROOT
BRANCH   9  11
ATOM     11  C   UNL     1     -14.805  12.238 -27.249  0.00  0.00    +0.071 A 
ATOM     12  C   UNL     1     -15.627  13.270 -26.729  0.00  0.00    +0.157 A 
ATOM     13  N   UNL     1     -16.681  12.802 -26.062  0.00  0.00    -0.178 NA
ATOM     14  N   UNL     1     -16.535  11.470 -26.155  0.00  0.00    -0.273 N 
ATOM     15  C   UNL     1     -17.515  10.615 -25.532  0.00  0.00    +0.172 C 
ATOM     16  C   UNL     1     -15.432  11.079 -26.855  0.00  0.00    +0.131 A 
ENDBRANCH   9  11
BRANCH   6   5
ATOM      5  O   UNL     1     -13.194  17.010 -28.240  0.00  0.00    -0.475 OA
BRANCH   5   4
ATOM      4  C   UNL     1     -13.271  17.130 -26.801  0.00  0.00    +0.236 C 
BRANCH   4   3
ATOM      1  N   UNL     1     -14.517  18.110 -24.045  0.00  0.00    -0.300 N 
ATOM      2  C   UNL     1     -15.176  17.524 -25.201  0.00  0.00    +0.115 C 
ATOM      3  C   UNL     1     -14.424  18.057 -26.426  0.00  0.00    +0.057 C 
ATOM     23  C   UNL     1     -13.870  19.420 -25.961  0.00  0.00    +0.118 C 
ATOM     28  C   UNL     1     -14.703  17.567 -22.761  0.00  0.00    +0.215 C 
ATOM     29  O   UNL     1     -15.427  16.584 -22.554  0.00  0.00    -0.276 OA
ATOM     32  C   UNL     1     -13.697  19.271 -24.435  0.00  0.00    +0.120 C 
BRANCH  23  24
ATOM     24  C   UNL     1     -14.815  20.586 -26.340  0.00  0.00    +0.395 C 
ATOM     25  F   UNL     1     -14.313  21.773 -25.924  0.00  0.00    -0.170 F 
ATOM     26  F   UNL     1     -16.058  20.458 -25.819  0.00  0.00    -0.170 F 
ATOM     27  F   UNL     1     -14.957  20.671 -27.684  0.00  0.00    -0.170 F 
ENDBRANCH  23  24
BRANCH  28  30
ATOM     30  C   UNL     1     -13.956  18.263 -21.620  0.00  0.00    +0.092 C 
ATOM     31  C   UNL     1     -14.006  17.529 -20.282  0.00  0.00    +0.013 C 
ENDBRANCH  28  30
ENDBRANCH   4   3
ENDBRANCH   5   4
ENDBRANCH   6   5
TORSDOF 6
