REMARK  Name = 4f9y_ligand
REMARK  4 active torsions:
REMARK  status: ('A' for Active; 'I' for Inactive)
REMARK    1  A    between atoms: C3_1  and  N2_2
REMARK    2  A    between atoms: N2_2  and  C1_3
REMARK    3  A    between atoms: C7_7  and  C11_16
REMARK    4  A    between atoms: C6_8  and  C10_9
REMARK                            x       y       z     vdW  Elec       q    Type
REMARK                         _______ _______ _______ _____ _____    ______ ____
ROOT
ATOM      1  C   UNL     1       0.243   5.328  21.517  0.00  0.00    +0.171 C 
ATOM      2  N   UNL     1      -0.205   4.072  22.134  0.00  0.00    -0.289 N 
ATOM      3  C   UNL     1      -1.216   3.260  21.555  0.00  0.00    +0.127 A 
ATOM      4  C   UNL     1      -1.553   1.965  21.973  0.00  0.00    +0.111 A 
ATOM      5  C   UNL     1      -2.579   1.263  21.335  0.00  0.00    +0.050 A 
ATOM     12  C   UNL     1      -3.206   1.874  20.253  0.00  0.00    +0.075 A 
ATOM     23  N   UNL     1      -2.861   3.161  19.915  0.00  0.00    -0.272 NA
ATOM     24  N   UNL     1      -1.912   3.800  20.511  0.00  0.00    -0.270 NA
ATOM     25  C   UNL     1       0.520   3.794  23.379  0.00  0.00    +0.171 C 
ENDROOT
BRANCH  12  13
ATOM     13  C   UNL     1      -4.331   1.301  19.489  0.00  0.00    +0.022 A 
ATOM     14  C   UNL     1      -5.472   1.010  20.218  0.00  0.00    +0.028 A 
ATOM     15  C   UNL     1      -6.593   0.507  19.626  0.00  0.00    +0.013 A 
ATOM     16  C   UNL     1      -6.581   0.279  18.280  0.00  0.00    +0.023 A 
ATOM     17  C   UNL     1      -5.478   0.577  17.536  0.00  0.00    -0.010 A 
ATOM     18  C   UNL     1      -5.532   0.330  16.177  0.00  0.00    +0.013 A 
ATOM     19  C   UNL     1      -4.414   0.624  15.412  0.00  0.00    +0.003 A 
ATOM     20  C   UNL     1      -3.277   1.142  15.989  0.00  0.00    +0.004 A 
ATOM     21  C   UNL     1      -3.229   1.399  17.353  0.00  0.00    +0.012 A 
ATOM     22  C   UNL     1      -4.327   1.101  18.135  0.00  0.00    -0.002 A 
ENDBRANCH  12  13
BRANCH   5   6
ATOM      6  C   UNL     1      -2.876  -0.136  21.757  0.00  0.00    +0.019 A 
ATOM      7  C   UNL     1      -2.838  -1.133  20.787  0.00  0.00    +0.052 A 
ATOM      8  C   UNL     1      -3.064  -2.459  21.104  0.00  0.00    +0.096 A 
ATOM      9  N   UNL     1      -3.310  -2.789  22.433  0.00  0.00    -0.295 NA
ATOM     10  C   UNL     1      -3.335  -1.800  23.402  0.00  0.00    +0.096 A 
ATOM     11  C   UNL     1      -3.113  -0.470  23.075  0.00  0.00    +0.052 A 
ENDBRANCH   5   6
TORSDOF 2
