REMARK  Name = A42J
REMARK  4 active torsions:
REMARK  status: ('A' for Active; 'I' for Inactive)
REMARK    1  A    between atoms: C2_8  and  C1_9
REMARK    2  A    between atoms: C1_9  and  C_10
REMARK    3  A    between atoms: C2_19  and  C1_20
REMARK    4  A    between atoms: C1_20  and  C_21
REMARK                            x       y       z     vdW  Elec       q    Type
REMARK                         _______ _______ _______ _____ _____    ______ ____
ROOT
ATOM      1 CL   UNL     1      -5.675 170.834 400.158  0.00  0.00    -0.081 Cl
ATOM      2  C   UNL     1      -5.494 169.134 399.873  0.00  0.00    +0.068 A 
ATOM      3  C   UNL     1      -4.220 168.598 399.824  0.00  0.00    +0.008 A 
ATOM      4  C   UNL     1      -4.034 167.239 399.589  0.00  0.00    -0.020 A 
ATOM      8  C   UNL     1      -5.151 166.440 399.401  0.00  0.00    -0.003 A 
ATOM      9  C   UNL     1      -6.425 166.972 399.452  0.00  0.00    +0.012 A 
ATOM     10  C   UNL     1      -6.600 168.319 399.690  0.00  0.00    +0.068 A 
ATOM     11 CL   UNL     1      -8.208 168.965 399.766  0.00  0.00    -0.081 Cl
ENDROOT
BRANCH   4   5
ATOM      5  C   UNL     1      -2.643 166.654 399.552  0.00  0.00    +0.047 C 
BRANCH   5   6
ATOM      6  C   UNL     1      -1.717 167.356 398.538  0.00  0.00    +0.114 C 
ATOM      7  N   UNL     1      -0.422 166.691 398.382  0.00  0.00    -0.131 NA
ENDBRANCH   5   6
ENDBRANCH   4   5
TORSDOF 2
