REMARK  Name = 3rni_ligand
REMARK  6 active torsions:
REMARK  status: ('A' for Active; 'I' for Inactive)
REMARK    1  A    between atoms: N02_2  and  C09_9
REMARK    2  A    between atoms: N03_3  and  C06_6
REMARK    3  A    between atoms: N04_4  and  S25_25
REMARK    4  A    between atoms: C05_5  and  C08_8
REMARK    5  A    between atoms: C08_8  and  C10_10
REMARK    6  A    between atoms: C12_12  and  S25_25
REMARK                            x       y       z     vdW  Elec       q    Type
REMARK                         _______ _______ _______ _____ _____    ______ ____
ROOT
ATOM      1  N   UNL     1     -38.413 118.267  86.007  0.00  0.00    -0.272 NA
ATOM      2  C   UNL     1     -38.156 118.161  84.715  0.00  0.00    +0.204 A 
ATOM      3  S   UNL     1     -39.249 117.146  83.828  0.00  0.00    +0.010 S 
ATOM      4  C   UNL     1     -40.126 116.806  85.266  0.00  0.00    +0.092 A 
ATOM     13  N   UNL     1     -37.147 118.787  84.197  0.00  0.00    -0.233 N 
ATOM     14  H   UNL     1     -36.686 119.477  84.808  0.00  0.00    +0.224 HD
ATOM     27  C   UNL     1     -39.531 117.501  86.328  0.00  0.00    +0.085 A 
ENDROOT
BRANCH  13  15
ATOM     15  C   UNL     1     -36.638 118.657  83.000  0.00  0.00    +0.072 A 
ATOM     16  C   UNL     1     -36.710 117.443  82.221  0.00  0.00    +0.017 A 
ATOM     17  C   UNL     1     -36.127 117.381  80.920  0.00  0.00    -0.010 A 
ATOM     18  C   UNL     1     -35.465 118.526  80.391  0.00  0.00    +0.008 A 
ATOM     19  C   UNL     1     -35.388 119.717  81.162  0.00  0.00    +0.099 A 
ATOM     26  C   UNL     1     -35.969 119.780  82.449  0.00  0.00    +0.045 A 
BRANCH  19  20
ATOM     20  S   UNL     1     -34.553 121.146  80.508  0.00  0.00    +0.063 S 
ATOM     21  O   UNL     1     -35.186 121.533  79.249  0.00  0.00    -0.151 OA
ATOM     22  O   UNL     1     -33.158 120.797  80.276  0.00  0.00    -0.151 OA
BRANCH  20  23
ATOM     23  N   UNL     1     -34.630 122.401  81.630  0.00  0.00    -0.261 NA
ATOM     24  H   UNL     1     -35.097 122.263  82.503  0.00  0.00    +0.164 HD
ATOM     25  H   UNL     1     -34.208 123.284  81.423  0.00  0.00    +0.164 HD
ENDBRANCH  20  23
ENDBRANCH  19  20
ENDBRANCH  13  15
BRANCH  27  28
ATOM     28  N   UNL     1     -39.970 117.434  87.518  0.00  0.00    -0.332 N 
ATOM     29  H   UNL     1     -39.497 117.953  88.271  0.00  0.00    +0.175 HD
ATOM     30  H   UNL     1     -40.799 116.860  87.730  0.00  0.00    +0.175 HD
ENDBRANCH  27  28
BRANCH   4   5
ATOM      5  C   UNL     1     -41.245 115.966  85.354  0.00  0.00    +0.130 C 
ATOM      6  O   UNL     1     -41.925 115.971  86.370  0.00  0.00    -0.402 OA
BRANCH   5   7
ATOM      7  C   UNL     1     -41.597 115.110  84.316  0.00  0.00    +0.023 A 
ATOM      8  C   UNL     1     -42.925 115.141  83.791  0.00  0.00    +0.022 A 
ATOM      9  C   UNL     1     -43.300 114.271  82.727  0.00  0.00    +0.006 A 
ATOM     10  C   UNL     1     -42.351 113.366  82.180  0.00  0.00    +0.007 A 
ATOM     11  C   UNL     1     -41.031 113.323  82.693  0.00  0.00    +0.006 A 
ATOM     12  C   UNL     1     -40.650 114.188  83.757  0.00  0.00    +0.022 A 
ENDBRANCH   5   7
ENDBRANCH   4   5
TORSDOF 6
