REMARK  Name = 2xbj_ligand
REMARK  12 active torsions:
REMARK  status: ('A' for Active; 'I' for Inactive)
REMARK    1  A    between atoms: C02_2  and  O31_31
REMARK    2  A    between atoms: C03_3  and  O29_29
REMARK    3  A    between atoms: C07_7  and  C21_21
REMARK    4  A    between atoms: C09_9  and  N11_11
REMARK    5  A    between atoms: N11_11  and  C12_12
REMARK    6  A    between atoms: C13_13  and  C17_17
REMARK    7  A    between atoms: C17_17  and  C18_18
REMARK    8  A    between atoms: C17_17  and  C19_19
REMARK    9  A    between atoms: C17_17  and  O20_20
REMARK   10  A    between atoms: C22_22  and  O28_28
REMARK   11  A    between atoms: O29_29  and  C30_30
REMARK   12  A    between atoms: O31_31  and  C32_32
REMARK                            x       y       z     vdW  Elec       q    Type
REMARK                         _______ _______ _______ _____ _____    ______ ____
ROOT
ATOM      1  C   UNL     1      -5.657  49.197   8.303  0.00  0.00    +0.100 C 
ATOM      2  C   UNL     1      -7.202  49.165   8.099  0.00  0.00    +0.027 A 
ATOM      3  C   UNL     1      -7.838  48.695   6.844  0.00  0.00    +0.120 A 
ATOM     18  N   UNL     1      -9.218  48.666   6.703  0.00  0.00    -0.269 NA
ATOM     19  C   UNL     1     -10.078  49.171   7.767  0.00  0.00    +0.089 A 
ATOM     29  N   UNL     1      -9.514  49.597   9.027  0.00  0.00    -0.292 NA
ATOM     30  C   UNL     1      -8.092  49.618   9.176  0.00  0.00    +0.032 A 
ATOM     31  C   UNL     1      -7.538  50.122  10.520  0.00  0.00    +0.121 C 
ATOM     32  C   UNL     1      -6.039  50.164  10.739  0.00  0.00    +0.162 C 
ATOM     35  C   UNL     1      -5.093  49.704   9.649  0.00  0.00    +0.159 C 
ENDROOT
BRANCH  19  20
ATOM     20  C   UNL     1     -11.537  49.053   7.540  0.00  0.00    +0.040 A 
ATOM     21  C   UNL     1     -12.010  48.552   6.174  0.00  0.00    +0.038 A 
ATOM     22  C   UNL     1     -13.357  48.348   5.983  0.00  0.00    +0.124 A 
ATOM     23  F   UNL     1     -13.777  47.933   4.802  0.00  0.00    -0.192 F 
ATOM     24  C   UNL     1     -14.341  48.608   7.116  0.00  0.00    +0.027 A 
ATOM     25  C   UNL     1     -13.876  49.061   8.403  0.00  0.00    +0.024 A 
ATOM     26  C   UNL     1     -12.427  49.283   8.609  0.00  0.00    +0.100 A 
BRANCH  26  27
ATOM     27  O   UNL     1     -11.909  49.720   9.814  0.00  0.00    -0.331 OA
ATOM     28  H   UNL     1     -10.955  49.800   9.741  0.00  0.00    +0.250 HD
ENDBRANCH  26  27
ENDBRANCH  19  20
BRANCH   3   4
ATOM      4  N   UNL     1      -7.225  48.139   5.658  0.00  0.00    -0.298 N 
ATOM      5  H   UNL     1      -6.238  48.397   5.671  0.00  0.00    +0.182 HD
BRANCH   4   6
ATOM      6  C   UNL     1      -7.461  47.348   4.439  0.00  0.00    +0.150 C 
ATOM      7  C   UNL     1      -8.253  46.111   4.694  0.00  0.00    +0.158 C 
ATOM      8  N   UNL     1      -8.103  45.346   3.424  0.00  0.00    +0.229 N 
ATOM      9  H   UNL     1      -8.793  45.620   2.725  0.00  0.00    +0.201 HD
ATOM     10  H   UNL     1      -8.264  44.347   3.554  0.00  0.00    +0.201 HD
ATOM     11  C   UNL     1      -6.707  45.641   2.986  0.00  0.00    +0.138 C 
ATOM     12  C   UNL     1      -6.383  47.024   3.474  0.00  0.00    +0.096 C 
BRANCH  12  13
ATOM     13  C   UNL     1      -6.200  48.117   2.449  0.00  0.00    +0.070 C 
ATOM     16  C   UNL     1      -7.530  48.310   1.766  0.00  0.00    +0.041 C 
ATOM     17  C   UNL     1      -5.138  47.737   1.437  0.00  0.00    +0.041 C 
BRANCH  13  14
ATOM     14  O   UNL     1      -5.859  49.289   3.084  0.00  0.00    -0.389 OA
ATOM     15  H   UNL     1      -6.540  49.516   3.721  0.00  0.00    +0.210 HD
ENDBRANCH  13  14
ENDBRANCH  12  13
ENDBRANCH   4   6
ENDBRANCH   3   4
BRANCH  32  33
ATOM     33  O   UNL     1      -5.613  50.633  11.980  0.00  0.00    -0.375 OA
ATOM     34  C   UNL     1      -6.560  50.636  13.011  0.00  0.00    +0.194 C 
ENDBRANCH  32  33
BRANCH  35  36
ATOM     36  O   UNL     1      -3.724  49.741   9.847  0.00  0.00    -0.375 OA
ATOM     37  C   UNL     1      -2.889  49.322   8.811  0.00  0.00    +0.194 C 
ENDBRANCH  35  36
TORSDOF 8
