REMARK  Name = 5HZN
REMARK  7 active torsions:
REMARK  status: ('A' for Active; 'I' for Inactive)
REMARK    1  A    between atoms: C_1  and  C_28
REMARK    2  A    between atoms: C_3  and  O_30
REMARK    3  A    between atoms: C_11  and  C_16
REMARK    4  A    between atoms: C_16  and  N_20
REMARK    5  A    between atoms: C_19  and  N_27
REMARK    6  A    between atoms: O_30  and  C_31
REMARK    7  A    between atoms: C_31  and  C_32
REMARK                            x       y       z     vdW  Elec       q    Type
REMARK                         _______ _______ _______ _____ _____    ______ ____
ROOT
ATOM      2  C   UNL     1      19.675   0.446  12.996  0.00  0.00    +0.012 A 
ATOM      3  C   UNL     1      20.880   0.326  13.668  0.00  0.00    +0.097 A 
ATOM      4  N   UNL     1      20.745  -0.775  14.474  0.00  0.00    -0.328 N 
ATOM      5  C   UNL     1      19.532  -1.303  14.257  0.00  0.00    +0.147 A 
ATOM      6  N   UNL     1      19.021  -2.486  14.892  0.00  0.00    -0.218 NA
ATOM      7  C   UNL     1      17.794  -2.870  14.544  0.00  0.00    +0.225 A 
ATOM      8  N   UNL     1      17.070  -2.189  13.645  0.00  0.00    -0.220 NA
ATOM      9  C   UNL     1      17.508  -1.076  13.043  0.00  0.00    +0.129 A 
ATOM     10  N   UNL     1      16.667  -0.501  12.151  0.00  0.00    -0.343 N 
ATOM     11  H   UNL     1      16.960   0.391  11.637  0.00  0.00    +0.144 HD
ATOM     12  H   UNL     1      15.709  -0.938  11.960  0.00  0.00    +0.144 HD
ATOM     22  C   UNL     1      18.786  -0.688  13.381  0.00  0.00    +0.066 A 
ENDROOT
BRANCH   2   1
ATOM      1  C   UNL     1      19.525   1.484  11.974  0.00  0.00    -0.012 A 
ATOM     23  C   UNL     1      19.030   1.056  10.750  0.00  0.00    +0.009 A 
ATOM     24  C   UNL     1      18.893   1.944   9.694  0.00  0.00    +0.004 A 
ATOM     25  C   UNL     1      19.323   3.252   9.856  0.00  0.00    +0.045 A 
ATOM     26  C   UNL     1      19.896   3.657  11.051  0.00  0.00    +0.122 A 
ATOM     35  C   UNL     1      20.023   2.776  12.123  0.00  0.00    +0.054 A 
BRANCH  26  27
ATOM     27  O   UNL     1      20.297   4.961  11.143  0.00  0.00    -0.487 OA
BRANCH  27  28
ATOM     28  C   UNL     1      19.427   5.903  10.462  0.00  0.00    +0.264 C 
BRANCH  28  29
ATOM     29  C   UNL     1      19.638   7.331  10.930  0.00  0.00    -0.010 A 
ATOM     30  C   UNL     1      20.753   8.035  10.496  0.00  0.00    +0.007 A 
ATOM     31  C   UNL     1      20.949   9.337  10.949  0.00  0.00    +0.000 A 
ATOM     32  C   UNL     1      20.023   9.918  11.820  0.00  0.00    +0.000 A 
ATOM     33  C   UNL     1      18.899   9.215  12.249  0.00  0.00    +0.000 A 
ATOM     34  C   UNL     1      18.712   7.914  11.799  0.00  0.00    +0.007 A 
ENDBRANCH  28  29
ENDBRANCH  27  28
ENDBRANCH  26  27
ENDBRANCH   2   1
BRANCH   4  13
ATOM     13  C   UNL     1      21.718  -1.358  15.441  0.00  0.00    +0.089 C 
ATOM     14  C   UNL     1      23.017  -1.967  14.919  0.00  0.00    +0.030 C 
ATOM     15  C   UNL     1      23.800  -1.132  15.940  0.00  0.00    +0.007 C 
ATOM     21  C   UNL     1      22.510  -0.432  16.366  0.00  0.00    +0.030 C 
BRANCH  15  16
ATOM     16  C   UNL     1      24.961  -0.253  15.463  0.00  0.00    +0.088 C 
BRANCH  16  17
ATOM     17  N   UNL     1      26.131  -1.137  15.341  0.00  0.00    -0.302 NA
ATOM     18  C   UNL     1      27.462  -0.533  15.237  0.00  0.00    +0.086 C 
ATOM     19  C   UNL     1      27.677  -1.454  14.033  0.00  0.00    +0.031 C 
ATOM     20  C   UNL     1      26.277  -2.055  14.197  0.00  0.00    +0.086 C 
ENDBRANCH  16  17
ENDBRANCH  15  16
ENDBRANCH   4  13
TORSDOF 7
