REMARK  Name = 2vto_ligand
REMARK  4 active torsions:
REMARK  status: ('A' for Active; 'I' for Inactive)
REMARK    1  A    between atoms: C5_5  and  N6_6
REMARK    2  A    between atoms: C7_7  and  C9_9
REMARK    3  A    between atoms: C13_13  and  N14_14
REMARK    4  A    between atoms: C15_15  and  C17_17
REMARK                            x       y       z     vdW  Elec       q    Type
REMARK                         _______ _______ _______ _____ _____    ______ ____
ROOT
ATOM      9  C   UNL     1      28.192   5.168  64.994  0.00  0.00    +0.172 A 
ATOM     10  C   UNL     1      27.063   4.888  64.207  0.00  0.00    +0.101 A 
ATOM     21  C   UNL     1      26.724   3.579  64.504  0.00  0.00    +0.100 A 
ATOM     22  N   UNL     1      27.606   3.149  65.401  0.00  0.00    -0.215 NA
ATOM     23  N   UNL     1      28.515   4.106  65.723  0.00  0.00    -0.218 N 
ATOM     24  H   UNL     1      29.293   4.025  66.393  0.00  0.00    +0.249 HD
ENDROOT
BRANCH   9   8
ATOM      6  N   UNL     1      30.113   6.345  65.815  0.00  0.00    -0.238 N 
ATOM      7  H   UNL     1      30.334   5.478  66.261  0.00  0.00    +0.223 HD
ATOM      8  C   UNL     1      28.989   6.412  65.092  0.00  0.00    +0.239 C 
ATOM     25  O   UNL     1      28.632   7.448  64.532  0.00  0.00    -0.387 OA
BRANCH   6   5
ATOM      1  F   UNL     1      33.577  10.578  66.507  0.00  0.00    -0.196 F 
ATOM      2  C   UNL     1      32.722   9.552  66.334  0.00  0.00    +0.116 A 
ATOM      3  C   UNL     1      32.344   8.807  67.432  0.00  0.00    +0.015 A 
ATOM      4  C   UNL     1      31.486   7.739  67.258  0.00  0.00    +0.007 A 
ATOM      5  C   UNL     1      31.003   7.423  65.986  0.00  0.00    +0.061 A 
ATOM     26  C   UNL     1      31.390   8.202  64.889  0.00  0.00    +0.007 A 
ATOM     27  C   UNL     1      32.258   9.266  65.064  0.00  0.00    +0.015 A 
ENDBRANCH   6   5
ENDBRANCH   9   8
BRANCH  10  11
ATOM     11  N   UNL     1      26.468   5.783  63.336  0.00  0.00    -0.244 N 
ATOM     12  H   UNL     1      26.916   6.671  63.231  0.00  0.00    +0.218 HD
ATOM     13  C   UNL     1      25.343   5.583  62.612  0.00  0.00    +0.226 C 
ATOM     20  O   UNL     1      24.690   4.540  62.663  0.00  0.00    -0.376 OA
BRANCH  13  14
ATOM     14  C   UNL     1      24.921   6.724  61.742  0.00  0.00    +0.055 A 
ATOM     15  C   UNL     1      25.865   7.441  61.013  0.00  0.00    +0.025 A 
ATOM     16  C   UNL     1      25.475   8.504  60.219  0.00  0.00    +0.007 A 
ATOM     17  C   UNL     1      24.143   8.861  60.147  0.00  0.00    +0.008 A 
ATOM     18  C   UNL     1      23.199   8.159  60.871  0.00  0.00    +0.007 A 
ATOM     19  C   UNL     1      23.584   7.094  61.665  0.00  0.00    +0.025 A 
ENDBRANCH  13  14
ENDBRANCH  10  11
TORSDOF 4
