REMARK  Name = E8V
REMARK  2 active torsions:
REMARK  status: ('A' for Active; 'I' for Inactive)
REMARK    1  A    between atoms: C4_1  and  C7_6
REMARK    2  A    between atoms: C6_4  and  C1_15
REMARK                            x       y       z     vdW  Elec       q    Type
REMARK                         _______ _______ _______ _____ _____    ______ ____
ROOT
ATOM      1  C   UNL     1      29.743   5.452  13.179  0.00  0.00    +0.019 A 
ATOM     11  C   UNL     1      29.211   4.281  13.710  0.00  0.00    +0.004 A 
ATOM     12  C   UNL     1      28.379   3.466  12.944  0.00  0.00    +0.035 A 
ATOM     22  C   UNL     1      28.047   3.869  11.641  0.00  0.00    +0.170 A 
ATOM     23  N   UNL     1      28.549   5.000  11.118  0.00  0.00    -0.226 NA
ATOM     24  N   UNL     1      27.261   3.143  10.851  0.00  0.00    -0.107 NA
ATOM     25  C   UNL     1      29.370   5.749  11.877  0.00  0.00    +0.100 A 
ENDROOT
BRANCH   1   2
ATOM      2  C   UNL     1      30.628   6.340  13.987  0.00  0.00    +0.006 A 
ATOM      3  C   UNL     1      30.995   5.998  15.292  0.00  0.00    +0.033 A 
ATOM      4  C   UNL     1      31.797   6.843  16.034  0.00  0.00    +0.181 A 
ATOM      5  F   UNL     1      32.163   6.475  17.302  0.00  0.00    -0.201 F 
ATOM      6  C   UNL     1      32.254   8.047  15.519  0.00  0.00    +0.250 A 
ATOM      7  O   UNL     1      33.048   8.860  16.253  0.00  0.00    -0.282 OA
ATOM      8  C   UNL     1      31.879   8.384  14.226  0.00  0.00    +0.181 A 
ATOM      9  F   UNL     1      32.305   9.565  13.686  0.00  0.00    -0.201 F 
ATOM     10  C   UNL     1      31.075   7.560  13.471  0.00  0.00    +0.033 A 
ENDBRANCH   1   2
BRANCH  12  13
ATOM     13  C   UNL     1      27.783   2.263  13.566  0.00  0.00    +0.007 A 
ATOM     14  C   UNL     1      28.560   1.425  14.345  0.00  0.00    +0.033 A 
ATOM     15  C   UNL     1      27.987   0.355  14.987  0.00  0.00    +0.181 A 
ATOM     16  F   UNL     1      28.763  -0.496  15.715  0.00  0.00    -0.201 F 
ATOM     17  C   UNL     1      26.638   0.100  14.908  0.00  0.00    +0.250 A 
ATOM     18  O   UNL     1      26.180  -0.960  15.570  0.00  0.00    -0.282 OA
ATOM     19  C   UNL     1      25.864   0.949  14.137  0.00  0.00    +0.181 A 
ATOM     20  F   UNL     1      24.521   0.727  14.031  0.00  0.00    -0.201 F 
ATOM     21  C   UNL     1      26.415   2.021  13.481  0.00  0.00    +0.033 A 
ENDBRANCH  12  13
TORSDOF 2
