REMARK  Name = 6O95
REMARK  4 active torsions:
REMARK  status: ('A' for Active; 'I' for Inactive)
REMARK    1  A    between atoms: C6_3  and  N17_17
REMARK    2  A    between atoms: C7_4  and  N11_13
REMARK    3  A    between atoms: C2_11  and  C29_29
REMARK    4  A    between atoms: C18_18  and  C20_20
REMARK                            x       y       z     vdW  Elec       q    Type
REMARK                         _______ _______ _______ _____ _____    ______ ____
ROOT
ATOM      1  C   UNL     1       3.818  10.203  29.650  0.00  0.00    +0.000 A 
ATOM      2  C   UNL     1       4.471  11.314  28.903  0.00  0.00    -0.100 C 
ATOM      3  C   UNL     1       5.211  10.602  27.762  0.00  0.00    +0.180 C 
ATOM      6  O   UNL     1       5.123   9.242  28.097  0.00  0.00    -0.180 OA
ATOM      7  C   UNL     1       6.657  11.056  27.789  0.00  0.00    -0.150 C 
ATOM      8  C   UNL     1       4.282   9.034  29.092  0.00  0.00    +0.000 A 
ATOM      9  C   UNL     1       3.834   7.847  29.596  0.00  0.00    -0.130 A 
ATOM     10  C   UNL     1       2.933   7.802  30.618  0.00  0.00    +0.000 A 
ATOM     17  C   UNL     1       2.439   8.989  31.178  0.00  0.00    +0.050 A 
ATOM     30  C   UNL     1       2.915  10.178  30.674  0.00  0.00    -0.130 A 
ENDROOT
BRANCH  10  11
ATOM     11  N   UNL     1       2.485   6.594  31.122  0.00  0.00    -0.400 N 
ATOM     12  C   UNL     1       3.496   5.752  31.684  0.00  0.00    +0.100 C 
ATOM     13  C   UNL     1       2.922   4.574  32.437  0.00  0.00    +0.080 C 
ATOM     14  O   UNL     1       2.093   3.840  31.612  0.00  0.00    -0.360 OA
ATOM     15  C   UNL     1       1.079   4.616  31.044  0.00  0.00    +0.080 C 
ATOM     16  C   UNL     1       1.585   5.837  30.290  0.00  0.00    +0.100 C 
ENDBRANCH  10  11
BRANCH  17  18
ATOM     18  N   UNL     1       1.545   8.874  32.244  0.00  0.00    -0.350 NA
ATOM     19  C   UNL     1       0.867   9.829  32.885  0.00  0.00    +0.600 C 
ATOM     29  O   UNL     1       0.968  10.950  32.623  0.00  0.00    -0.550 OA
BRANCH  19  20
ATOM     20  C   UNL     1       0.072   9.441  34.039  0.00  0.00    +0.000 A 
ATOM     21  C   UNL     1      -0.330   8.169  34.407  0.00  0.00    +0.100 A 
ATOM     22  N   UNL     1      -0.187   6.983  33.843  0.00  0.00    -0.150 NA
ATOM     23  C   UNL     1      -0.670   5.914  34.383  0.00  0.00    +0.000 C 
ATOM     24  C   UNL     1      -1.376   5.992  35.583  0.00  0.00    -0.100 C 
ATOM     25  C   UNL     1      -1.525   7.196  36.162  0.00  0.00    +0.000 C 
ATOM     26  N   UNL     1      -0.997   8.288  35.579  0.00  0.00    -0.150 N 
ATOM     27  N   UNL     1      -0.992   9.585  35.923  0.00  0.00    -0.350 NA
ATOM     28  C   UNL     1      -0.376  10.276  35.065  0.00  0.00    +0.000 A 
ENDBRANCH  19  20
ENDBRANCH  17  18
BRANCH   3   4
ATOM      4  C   UNL     1       4.582  10.895  26.397  0.00  0.00    +0.150 C 
ATOM      5  O   UNL     1       5.101  10.110  25.369  0.00  0.00    -0.650 OA
ENDBRANCH   3   4
TORSDOF 4
