REMARK  Name = 4Y83
REMARK  3 active torsions:
REMARK  status: ('A' for Active; 'I' for Inactive)
REMARK    1  A    between atoms: C_2  and  C_19
REMARK    2  A    between atoms: S_9  and  C_10
REMARK    3  A    between atoms: C_14  and  C_15
REMARK                            x       y       z     vdW  Elec       q    Type
REMARK                         _______ _______ _______ _____ _____    ______ ____
ROOT
ATOM      1  C   UNL     1      -8.170  -4.067  -9.448  0.00  0.00    +0.121 A 
ATOM      2  N   UNL     1      -7.900  -3.808  -8.151  0.00  0.00    -0.239 NA
ATOM      3  C   UNL     1      -7.652  -4.791  -7.259  0.00  0.00    +0.129 A 
ATOM      4  N   UNL     1      -7.347  -4.385  -6.007  0.00  0.00    -0.343 N 
ATOM      5  H   UNL     1      -7.331  -3.341  -5.772  0.00  0.00    +0.144 HD
ATOM      6  H   UNL     1      -7.122  -5.107  -5.250  0.00  0.00    +0.144 HD
ATOM      7  C   UNL     1      -7.701  -6.148  -7.672  0.00  0.00    +0.078 A 
ATOM     16  C   UNL     1      -7.917  -6.420  -9.036  0.00  0.00    +0.026 A 
ATOM     17  C   UNL     1      -8.213  -5.386  -9.930  0.00  0.00    +0.003 A 
ENDROOT
BRANCH  17  18
ATOM     18  C   UNL     1      -8.509  -5.637 -11.374  0.00  0.00    +0.002 A 
ATOM     19  C   UNL     1      -7.898  -6.686 -12.103  0.00  0.00    +0.120 A 
ATOM     20  N   UNL     1      -8.165  -6.860 -13.419  0.00  0.00    -0.254 NA
ATOM     21  C   UNL     1      -8.972  -5.997 -14.096  0.00  0.00    +0.071 A 
ATOM     22  C   UNL     1      -9.196  -6.188 -15.475  0.00  0.00    +0.028 A 
ATOM     23  C   UNL     1     -10.038  -5.303 -16.167  0.00  0.00    +0.002 A 
ATOM     24  C   UNL     1     -10.646  -4.221 -15.498  0.00  0.00    +0.001 A 
ATOM     25  C   UNL     1     -10.438  -4.019 -14.121  0.00  0.00    +0.010 A 
ATOM     26  C   UNL     1      -9.592  -4.904 -13.429  0.00  0.00    +0.001 A 
ATOM     27  C   UNL     1      -9.341  -4.731 -12.066  0.00  0.00    +0.020 A 
ENDBRANCH  17  18
BRANCH   7   8
ATOM      8  C   UNL     1      -7.349  -7.332  -6.791  0.00  0.00    +0.250 C 
ATOM      9  O   UNL     1      -7.284  -8.579  -7.263  0.00  0.00    -0.413 OA
ATOM     10  C   UNL     1      -6.719  -9.248  -6.258  0.00  0.00    +0.250 C 
ATOM     11  N   UNL     1      -6.693  -8.528  -5.172  0.00  0.00    -0.238 NA
ATOM     12  H   UNL     1      -6.477  -8.858  -4.177  0.00  0.00    +0.193 HD
ATOM     15  N   UNL     1      -6.996  -7.282  -5.571  0.00  0.00    -0.132 NA
BRANCH  10  13
ATOM     13  S   UNL     1      -6.163 -10.860  -6.425  0.00  0.00    -0.085 S 
ATOM     14  H   UNL     1      -4.857 -10.916  -6.129  0.00  0.00    +0.112 HD
ENDBRANCH  10  13
ENDBRANCH   7   8
TORSDOF 3
