REMARK  Name = 1y57_ligand
REMARK  7 active torsions:
REMARK  status: ('A' for Active; 'I' for Inactive)
REMARK    1  A    between atoms: C15_2  and  C14_3
REMARK    2  A    between atoms: C09_8  and  C08_9
REMARK    3  A    between atoms: C08_9  and  N07_10
REMARK    4  A    between atoms: NP2_15  and  C01_16
REMARK    5  A    between atoms: N17_17  and  C18_18
REMARK    6  A    between atoms: C23_22  and  N24_24
REMARK    7  A    between atoms: C30_29  and  C31_31
REMARK                            x       y       z     vdW  Elec       q    Type
REMARK                         _______ _______ _______ _____ _____    ______ ____
ROOT
ATOM      1  O   UNL     1      22.073  35.130  38.668  0.00  0.00    -0.376 OA
ATOM      2  C   UNL     1      20.995  35.336  39.245  0.00  0.00    +0.227 C 
ATOM      3  N   UNL     1      20.428  34.548  40.196  0.00  0.00    -0.237 N 
ATOM      4  H   UNL     1      19.514  34.815  40.500  0.00  0.00    +0.225 HD
ENDROOT
BRANCH   3   5
ATOM      5  C   UNL     1      20.969  33.410  40.800  0.00  0.00    +0.056 A 
ATOM      6  C   UNL     1      20.000  32.656  41.479  0.00  0.00    +0.022 A 
ATOM      7  C   UNL     1      20.345  31.522  42.214  0.00  0.00    +0.051 A 
ATOM     22  C   UNL     1      21.704  31.137  42.299  0.00  0.00    -0.012 A 
ATOM     23  C   UNL     1      22.694  31.892  41.633  0.00  0.00    -0.029 A 
ATOM     24  C   UNL     1      22.327  33.036  40.905  0.00  0.00    -0.011 A 
BRANCH   7   8
ATOM      8  N   UNL     1      19.443  30.721  42.895  0.00  0.00    -0.245 N 
ATOM      9  H   UNL     1      19.802  29.849  43.308  0.00  0.00    +0.218 HD
ATOM     10  C   UNL     1      18.071  31.004  43.068  0.00  0.00    +0.211 A 
ATOM     11  N   UNL     1      17.394  32.050  42.569  0.00  0.00    -0.245 NA
ATOM     12  C   UNL     1      16.067  32.180  42.839  0.00  0.00    +0.062 A 
ATOM     19  C   UNL     1      15.414  31.276  43.588  0.00  0.00    +0.053 A 
ATOM     20  C   UNL     1      16.124  30.234  44.080  0.00  0.00    +0.104 A 
ATOM     21  N   UNL     1      17.455  30.108  43.824  0.00  0.00    -0.251 NA
BRANCH  12  13
ATOM     13  C   UNL     1      15.383  33.338  42.213  0.00  0.00    +0.032 A 
ATOM     14  C   UNL     1      14.114  33.821  42.619  0.00  0.00    +0.111 A 
ATOM     15  N   UNL     1      13.508  34.872  42.023  0.00  0.00    -0.292 NA
ATOM     16  C   UNL     1      14.128  35.479  40.992  0.00  0.00    +0.099 A 
ATOM     17  C   UNL     1      15.363  35.067  40.521  0.00  0.00    +0.042 A 
ATOM     18  C   UNL     1      15.995  33.983  41.134  0.00  0.00    +0.048 A 
ENDBRANCH  12  13
ENDBRANCH   7   8
ENDBRANCH   3   5
BRANCH   2  25
ATOM     25  C   UNL     1      20.224  36.578  38.910  0.00  0.00    +0.049 A 
ATOM     26  C   UNL     1      18.981  36.954  39.529  0.00  0.00    +0.017 A 
ATOM     27  C   UNL     1      18.336  38.165  39.195  0.00  0.00    +0.008 A 
ATOM     28  C   UNL     1      18.920  39.055  38.264  0.00  0.00    +0.006 A 
ATOM     39  C   UNL     1      20.157  38.704  37.679  0.00  0.00    +0.008 A 
ATOM     40  C   UNL     1      20.799  37.496  38.002  0.00  0.00    +0.017 A 
BRANCH  28  29
ATOM     29  C   UNL     1      18.232  40.362  37.887  0.00  0.00    +0.203 C 
BRANCH  29  30
ATOM     30  N   UNL     1      18.329  40.598  36.435  0.00  0.00    +0.255 N 
ATOM     31  H   UNL     1      19.310  40.708  36.233  0.00  0.00    +0.205 HD
ATOM     32  C   UNL     1      17.662  41.855  36.003  0.00  0.00    +0.185 C 
ATOM     33  C   UNL     1      17.925  42.112  34.510  0.00  0.00    +0.183 C 
ATOM     34  N   UNL     1      17.546  40.944  33.663  0.00  0.00    +0.240 N 
ATOM     35  H   UNL     1      16.547  40.834  33.737  0.00  0.00    +0.203 HD
ATOM     36  C   UNL     1      17.866  41.157  32.229  0.00  0.00    +0.191 C 
ATOM     37  C   UNL     1      18.172  39.690  34.149  0.00  0.00    +0.183 C 
ATOM     38  C   UNL     1      17.855  39.445  35.628  0.00  0.00    +0.185 C 
ENDBRANCH  29  30
ENDBRANCH  28  29
ENDBRANCH   2  25
TORSDOF 6
