REMARK  Name = AETU
REMARK  4 active torsions:
REMARK  status: ('A' for Active; 'I' for Inactive)
REMARK    1  A    between atoms: N1_6  and  C5_14
REMARK    2  A    between atoms: O1_7  and  C6_16
REMARK    3  A    between atoms: O1_7  and  C7_18
REMARK    4  A    between atoms: C5_14  and  C6_16
REMARK                            x       y       z     vdW  Elec       q    Type
REMARK                         _______ _______ _______ _____ _____    ______ ____
ROOT
ATOM      1  C   UNL     1     -42.815  10.892 125.200  0.00  0.00    +0.027 C 
ATOM      2  C   UNL     1     -41.966  10.119 126.201  0.00  0.00    +0.137 C 
ATOM      3  N   UNL     1     -42.766   9.163 126.992  0.00  0.00    -0.262 NA
ATOM     10  C   UNL     1     -41.972   8.044 127.521  0.00  0.00    +0.096 C 
ATOM     11  C   UNL     1     -41.366   7.237 126.405  0.00  0.00    +0.132 C 
ATOM     12  N   UNL     1     -40.539   8.161 125.641  0.00  0.00    -0.203 NA
ATOM     13  C   UNL     1     -40.778   9.475 125.494  0.00  0.00    +0.256 C 
ATOM     14  O   UNL     1     -40.053  10.207 124.839  0.00  0.00    -0.272 OA
ENDROOT
BRANCH   3   4
ATOM      4  C   UNL     1     -43.592   9.806 128.045  0.00  0.00    +0.120 C 
BRANCH   4   5
ATOM      5  C   UNL     1     -42.844  10.299 129.286  0.00  0.00    +0.223 C 
BRANCH   5   6
ATOM      6  O   UNL     1     -42.358   9.117 129.941  0.00  0.00    -0.471 OA
BRANCH   6   7
ATOM      7  C   UNL     1     -41.648   9.187 131.114  0.00  0.00    +0.168 C 
ATOM      8  C   UNL     1     -41.210   7.999 131.683  0.00  0.00    +0.014 C 
ATOM      9  C   UNL     1     -40.502   8.026 132.871  0.00  0.00    +0.034 C 
ENDBRANCH   6   7
ENDBRANCH   5   6
ENDBRANCH   4   5
ENDBRANCH   3   4
TORSDOF 4
