REMARK  Name = 4i5c_ligand
REMARK  3 active torsions:
REMARK  status: ('A' for Active; 'I' for Inactive)
REMARK    1  A    between atoms: N13_12  and  C14_13
REMARK    2  A    between atoms: C21_19  and  C23_21
REMARK    3  A    between atoms: C23_21  and  C24_22
REMARK                            x       y       z     vdW  Elec       q    Type
REMARK                         _______ _______ _______ _____ _____    ______ ____
ROOT
ATOM      1  C   UNL     1      16.934   2.700   0.826  0.00  0.00    -0.028 A 
ATOM      2  C   UNL     1      15.731   2.250   0.133  0.00  0.00    +0.029 A 
ATOM      3  C   UNL     1      14.530   2.875  -0.297  0.00  0.00    +0.123 A 
ATOM      4  N   UNL     1      14.005   4.142  -0.228  0.00  0.00    -0.154 N 
ATOM     16  N   UNL     1      12.708   4.108  -0.756  0.00  0.00    -0.077 NA
ATOM     17  N   UNL     1      12.491   2.912  -1.191  0.00  0.00    -0.201 NA
ATOM     18  C   UNL     1      13.541   2.094  -0.917  0.00  0.00    +0.088 A 
ATOM     19  C   UNL     1      13.795   0.715  -1.102  0.00  0.00    +0.082 A 
ATOM     20  N   UNL     1      14.929   0.156  -0.694  0.00  0.00    -0.296 NA
ATOM     21  C   UNL     1      15.897   0.854  -0.083  0.00  0.00    +0.126 A 
ATOM     22  N   UNL     1      17.123   0.500   0.452  0.00  0.00    -0.272 N 
ATOM     23  H   UNL     1      17.523  -0.449   0.446  0.00  0.00    +0.230 HD
ATOM     24  C   UNL     1      17.723   1.612   0.992  0.00  0.00    +0.115 A 
ENDROOT
BRANCH   4   5
ATOM      5  C   UNL     1      14.635   5.273   0.465  0.00  0.00    +0.177 C 
ATOM      6  C   UNL     1      14.051   6.622   0.006  0.00  0.00    +0.177 C 
ATOM      7  N   UNL     1      14.663   7.637   0.880  0.00  0.00    -0.268 N 
ATOM      8  C   UNL     1      15.532   8.562   0.373  0.00  0.00    +0.205 C 
ATOM     12  O   UNL     1      15.755   8.608  -0.837  0.00  0.00    -0.395 OA
ATOM     13  C   UNL     1      14.401   7.516   2.337  0.00  0.00    +0.139 C 
ATOM     14  C   UNL     1      15.009   6.180   2.815  0.00  0.00    +0.028 C 
ATOM     15  C   UNL     1      14.393   5.055   1.989  0.00  0.00    +0.043 C 
BRANCH   8   9
ATOM      9  C   UNL     1      16.185   9.572   1.295  0.00  0.00    +0.321 C 
BRANCH   9  10
ATOM     10  C   UNL     1      17.276  10.305   0.632  0.00  0.00    +0.112 C 
ATOM     11  N   UNL     1      18.118  10.868   0.125  0.00  0.00    -0.301 NA
ENDBRANCH   9  10
ENDBRANCH   8   9
ENDBRANCH   4   5
TORSDOF 3
