REMARK  Name = 4GFG
REMARK  6 active torsions:
REMARK  status: ('A' for Active; 'I' for Inactive)
REMARK    1  A    between atoms: C_2  and  C_16
REMARK    2  A    between atoms: C_3  and  N_15
REMARK    3  A    between atoms: C_5  and  C_19
REMARK    4  A    between atoms: C_10  and  N_26
REMARK    5  A    between atoms: N_13  and  C_25
REMARK    6  A    between atoms: C_23  and  C_24
REMARK                            x       y       z     vdW  Elec       q    Type
REMARK                         _______ _______ _______ _____ _____    ______ ____
ROOT
ATOM      1  N   UNL     1       4.571   2.347  13.766  0.00  0.00    -0.134 NA
ATOM      2  N   UNL     1       5.187   1.386  14.590  0.00  0.00    -0.141 NA
ATOM      3  C   UNL     1       4.440   0.347  15.085  0.00  0.00    +0.169 A 
ATOM      9  C   UNL     1       3.062   0.203  14.788  0.00  0.00    +0.068 A 
ATOM     20  C   UNL     1       2.504   1.197  13.958  0.00  0.00    +0.071 A 
ATOM     21  C   UNL     1       3.242   2.267  13.442  0.00  0.00    +0.143 A 
ATOM     22  N   UNL     1       2.698   3.251  12.631  0.00  0.00    -0.323 N 
ATOM     23  H   UNL     1       3.392   3.949  12.210  0.00  0.00    +0.148 HD
ENDROOT
BRANCH   9  10
ATOM     10  N   UNL     1       2.298  -0.872  15.322  0.00  0.00    -0.297 N 
ATOM     11  H   UNL     1       2.853  -1.497  15.990  0.00  0.00    +0.154 HD
ATOM     12  C   UNL     1       0.954  -1.286  15.152  0.00  0.00    +0.123 A 
ATOM     13  N   UNL     1       0.099  -0.604  14.321  0.00  0.00    -0.237 NA
ATOM     14  C   UNL     1      -1.212  -1.005  14.159  0.00  0.00    +0.043 A 
ATOM     15  C   UNL     1      -2.032  -0.156  13.211  0.00  0.00    +0.066 C 
ATOM     16  C   UNL     1      -1.737  -2.138  14.837  0.00  0.00    -0.029 A 
ATOM     17  C   UNL     1      -0.845  -2.840  15.695  0.00  0.00    +0.008 A 
ATOM     18  C   UNL     1      -3.155  -2.603  14.686  0.00  0.00    +0.045 C 
ATOM     19  C   UNL     1       0.503  -2.422  15.858  0.00  0.00    +0.044 A 
ENDBRANCH   9  10
BRANCH  22  24
ATOM     24  C   UNL     1       1.285   3.454  12.278  0.00  0.00    +0.088 C 
ATOM     25  C   UNL     1       0.473   4.023  13.522  0.00  0.00    +0.071 C 
ATOM     29  C   UNL     1      -1.017   4.210  13.121  0.00  0.00    +0.020 C 
ATOM     30  C   UNL     1      -1.208   5.041  11.835  0.00  0.00    +0.002 C 
ATOM     31  C   UNL     1      -0.323   4.553  10.669  0.00  0.00    +0.002 C 
ATOM     32  C   UNL     1       1.153   4.389  11.061  0.00  0.00    +0.024 C 
BRANCH  25  26
ATOM     26  N   UNL     1       1.021   5.294  14.059  0.00  0.00    -0.326 NA
ATOM     27  H   UNL     1       0.952   6.057  13.312  0.00  0.00    +0.118 HD
ATOM     28  H   UNL     1       0.460   5.589  14.921  0.00  0.00    +0.118 HD
ENDBRANCH  25  26
ENDBRANCH  22  24
BRANCH   3   4
ATOM      4  C   UNL     1       5.161  -0.620  15.960  0.00  0.00    +0.264 C 
ATOM      5  N   UNL     1       6.514  -0.475  16.051  0.00  0.00    -0.324 N 
ATOM      6  H   UNL     1       7.083  -1.141  16.665  0.00  0.00    +0.145 HD
ATOM      7  H   UNL     1       7.006   0.305  15.509  0.00  0.00    +0.145 HD
ATOM      8  O   UNL     1       4.554  -1.492  16.579  0.00  0.00    -0.269 OA
ENDBRANCH   3   4
TORSDOF 4
