REMARK  Name = 5M4N
REMARK  6 active torsions:
REMARK  status: ('A' for Active; 'I' for Inactive)
REMARK    1  A    between atoms: C_1  and  O_7
REMARK    2  A    between atoms: C_3  and  O_8
REMARK    3  A    between atoms: C_4  and  C_9
REMARK    4  A    between atoms: C_12  and  C_15
REMARK    5  A    between atoms: C_19  and  C_22
REMARK    6  A    between atoms: C_25  and  C_32
REMARK                            x       y       z     vdW  Elec       q    Type
REMARK                         _______ _______ _______ _____ _____    ______ ____
ROOT
ATOM      7  C   UNL     1      31.612 -34.718  10.785  0.00  0.00    +0.255 C 
ATOM      8  N   UNL     1      31.762 -33.469  10.309  0.00  0.00    -0.264 N 
ATOM      9  C   UNL     1      32.947 -33.061   9.740  0.00  0.00    +0.040 A 
ATOM     10  C   UNL     1      34.172 -33.376  10.327  0.00  0.00    +0.024 A 
ATOM     11  C   UNL     1      35.360 -32.970   9.724  0.00  0.00    +0.012 A 
ATOM     12  C   UNL     1      35.316 -32.210   8.575  0.00  0.00    +0.001 A 
ATOM     24  C   UNL     1      34.093 -31.852   8.026  0.00  0.00    +0.015 A 
ATOM     25  C   UNL     1      32.900 -32.285   8.598  0.00  0.00    -0.025 A 
ATOM     26  C   UNL     1      31.569 -31.889   7.995  0.00  0.00    +0.039 C 
ATOM     27  C   UNL     1      30.726 -31.417   9.179  0.00  0.00    +0.027 C 
ATOM     28  C   UNL     1      30.669 -32.449  10.340  0.00  0.00    +0.079 C 
ATOM     29  C   UNL     1      30.555 -31.733  11.662  0.00  0.00    +0.028 C 
ATOM     30  O   UNL     1      30.598 -35.034  11.380  0.00  0.00    -0.270 OA
ENDROOT
BRANCH  12  13
ATOM     13  C   UNL     1      36.467 -31.717   7.988  0.00  0.00    +0.075 A 
ATOM     14  C   UNL     1      37.314 -32.414   7.093  0.00  0.00    -0.024 A 
ATOM     15  C   UNL     1      37.072 -33.858   6.657  0.00  0.00    +0.046 C 
ATOM     16  C   UNL     1      38.433 -31.756   6.572  0.00  0.00    +0.015 A 
ATOM     17  C   UNL     1      38.676 -30.427   6.948  0.00  0.00    +0.001 A 
ATOM     18  C   UNL     1      39.779 -29.739   6.436  0.00  0.00    +0.010 A 
ATOM     19  C   UNL     1      40.004 -28.415   6.829  0.00  0.00    +0.001 A 
ATOM     20  C   UNL     1      39.133 -27.780   7.722  0.00  0.00    +0.002 A 
ATOM     21  C   UNL     1      38.024 -28.454   8.237  0.00  0.00    +0.028 A 
ATOM     22  C   UNL     1      37.799 -29.776   7.846  0.00  0.00    +0.072 A 
ATOM     23  N   UNL     1      36.730 -30.430   8.336  0.00  0.00    -0.246 NA
ENDBRANCH  12  13
BRANCH   7   6
ATOM      1  C   UNL     1      34.612 -37.809  10.318  0.00  0.00    +0.120 A 
ATOM      4  C   UNL     1      34.129 -37.133   9.187  0.00  0.00    +0.046 A 
ATOM      5  C   UNL     1      33.146 -36.145   9.355  0.00  0.00    +0.020 A 
ATOM      6  C   UNL     1      32.679 -35.809  10.645  0.00  0.00    +0.079 A 
ATOM     31  C   UNL     1      33.182 -36.490  11.758  0.00  0.00    +0.132 A 
ATOM     34  C   UNL     1      34.151 -37.489  11.602  0.00  0.00    +0.091 A 
BRANCH   1   2
ATOM      2  O   UNL     1      35.546 -38.770  10.166  0.00  0.00    -0.507 OA
ATOM      3  H   UNL     1      36.414 -38.501  10.692  0.00  0.00    +0.292 HD
ENDBRANCH   1   2
BRANCH  31  32
ATOM     32  O   UNL     1      32.727 -36.175  12.994  0.00  0.00    -0.506 OA
ATOM     33  H   UNL     1      32.290 -37.023  13.433  0.00  0.00    +0.292 HD
ENDBRANCH  31  32
ENDBRANCH   7   6
TORSDOF 4
