REMARK  Name = 4rg0_ligand
REMARK  13 active torsions:
REMARK  status: ('A' for Active; 'I' for Inactive)
REMARK    1  A    between atoms: C1_1  and  N7_7
REMARK    2  A    between atoms: C3_3  and  C8_8
REMARK    3  A    between atoms: N6_6  and  C27_27
REMARK    4  A    between atoms: N7_7  and  C29_29
REMARK    5  A    between atoms: C12_12  and  N14_14
REMARK    6  A    between atoms: C13_13  and  C25_25
REMARK    7  A    between atoms: C21_21  and  C41_41
REMARK    8  A    between atoms: C25_25  and  O26_26
REMARK    9  A    between atoms: C32_32  and  N35_35
REMARK   10  A    between atoms: N38_38  and  C46_46
REMARK   11  A    between atoms: C41_41  and  C42_42
REMARK   12  A    between atoms: C41_41  and  C43_43
REMARK   13  A    between atoms: C41_41  and  C44_44
REMARK                            x       y       z     vdW  Elec       q    Type
REMARK                         _______ _______ _______ _____ _____    ______ ____
ROOT
ATOM     24  C   UNL     1      25.101   6.232   3.350  0.00  0.00    -0.049 A 
ATOM     25  C   UNL     1      25.024   7.230   4.364  0.00  0.00    +0.002 A 
ATOM     29  C   UNL     1      26.187   7.587   5.083  0.00  0.00    +0.067 A 
ATOM     47  C   UNL     1      27.410   6.962   4.821  0.00  0.00    -0.010 A 
ATOM     48  C   UNL     1      27.476   5.983   3.841  0.00  0.00    -0.038 A 
ATOM     49  C   UNL     1      26.346   5.626   3.116  0.00  0.00    -0.044 A 
ENDROOT
BRANCH  29  30
ATOM     30  N   UNL     1      26.089   8.558   6.093  0.00  0.00    -0.220 N 
ATOM     31  C   UNL     1      25.872   8.144   7.394  0.00  0.00    +0.247 C 
ATOM     32  O   UNL     1      25.809   6.948   7.676  0.00  0.00    -0.368 OA
ATOM     33  C   UNL     1      25.713   9.174   8.466  0.00  0.00    +0.119 A 
ATOM     34  C   UNL     1      25.740   8.871   9.850  0.00  0.00    +0.175 A 
ATOM     35  F   UNL     1      25.953   7.619  10.309  0.00  0.00    -0.172 F 
ATOM     36  C   UNL     1      25.557   9.879  10.783  0.00  0.00    +0.072 A 
ATOM     37  C   UNL     1      25.324  11.192  10.375  0.00  0.00    -0.029 A 
ATOM     43  C   UNL     1      25.278  11.492   9.017  0.00  0.00    +0.039 A 
ATOM     44  C   UNL     1      25.456  10.502   8.063  0.00  0.00    +0.006 A 
ATOM     45  C   UNL     1      25.374  10.899   6.603  0.00  0.00    +0.108 C 
ATOM     46  C   UNL     1      26.190   9.973   5.703  0.00  0.00    +0.186 C 
BRANCH  37  38
ATOM     38  C   UNL     1      25.167  12.309  11.373  0.00  0.00    +0.079 C 
ATOM     39  C   UNL     1      26.403  13.186  11.169  0.00  0.00    -0.011 C 
ATOM     40  C   UNL     1      25.194  11.781  12.812  0.00  0.00    -0.011 C 
BRANCH  38  41
ATOM     41  C   UNL     1      23.932  13.093  11.140  0.00  0.00    +0.057 C 
ATOM     42  N   UNL     1      22.973  13.702  10.963  0.00  0.00    -0.314 NA
ENDBRANCH  38  41
ENDBRANCH  37  38
ENDBRANCH  29  30
BRANCH  24  23
ATOM      1  C   UNL     1      22.835   5.247   0.414  0.00  0.00    +0.120 A 
ATOM     18  C   UNL     1      21.634   4.947   1.143  0.00  0.00    +0.241 A 
ATOM     19  O   UNL     1      20.631   4.594   0.524  0.00  0.00    -0.408 OA
ATOM     20  N   UNL     1      21.624   5.055   2.507  0.00  0.00    -0.214 N 
ATOM     21  C   UNL     1      20.423   4.760   3.281  0.00  0.00    +0.238 C 
ATOM     22  C   UNL     1      22.742   5.455   3.188  0.00  0.00    +0.171 A 
ATOM     23  C   UNL     1      23.912   5.784   2.541  0.00  0.00    -0.021 A 
ATOM     50  C   UNL     1      23.959   5.667   1.120  0.00  0.00    -0.007 A 
BRANCH   1   2
ATOM      2  N   UNL     1      22.799   5.115  -0.995  0.00  0.00    -0.271 N 
ATOM      3  H   UNL     1      21.870   4.961  -1.413  0.00  0.00    +0.207 HD
BRANCH   2   4
ATOM      4  C   UNL     1      23.878   5.169  -1.889  0.00  0.00    +0.116 A 
ATOM      5  N   UNL     1      25.095   5.559  -1.501  0.00  0.00    -0.296 NA
ATOM      6  C   UNL     1      26.116   5.595  -2.349  0.00  0.00    +0.081 A 
ATOM      7  C   UNL     1      25.964   5.245  -3.702  0.00  0.00    +0.056 A 
ATOM     16  C   UNL     1      24.687   4.837  -4.144  0.00  0.00    +0.027 A 
ATOM     17  C   UNL     1      23.640   4.805  -3.227  0.00  0.00    +0.037 A 
BRANCH   7   8
ATOM      8  N   UNL     1      27.069   5.283  -4.594  0.00  0.00    -0.299 N 
ATOM      9  C   UNL     1      28.348   5.199  -3.832  0.00  0.00    +0.179 C 
ATOM     10  C   UNL     1      29.584   5.079  -4.747  0.00  0.00    +0.155 C 
ATOM     11  N   UNL     1      29.452   3.947  -5.695  0.00  0.00    +0.236 N 
ATOM     12  H   UNL     1      29.407   3.100  -5.151  0.00  0.00    +0.203 HD
ATOM     13  C   UNL     1      30.628   3.842  -6.586  0.00  0.00    +0.190 C 
ATOM     14  C   UNL     1      28.195   4.046  -6.477  0.00  0.00    +0.155 C 
ATOM     15  C   UNL     1      26.967   4.144  -5.545  0.00  0.00    +0.179 C 
ENDBRANCH   7   8
ENDBRANCH   2   4
ENDBRANCH   1   2
ENDBRANCH  24  23
BRANCH  25  26
ATOM     26  C   UNL     1      23.705   7.931   4.668  0.00  0.00    +0.208 C 
BRANCH  26  27
ATOM     27  O   UNL     1      23.142   7.521   5.914  0.00  0.00    -0.386 OA
ATOM     28  H   UNL     1      22.325   7.983   6.058  0.00  0.00    +0.212 HD
ENDBRANCH  26  27
ENDBRANCH  25  26
TORSDOF 9
