REMARK  Name = 5DGZ
REMARK  8 active torsions:
REMARK  status: ('A' for Active; 'I' for Inactive)
REMARK    1  A    between atoms: C_1  and  C_2
REMARK    2  A    between atoms: C_8  and  C_11
REMARK    3  A    between atoms: C_15  and  O_16
REMARK    4  A    between atoms: O_16  and  C_17
REMARK    5  A    between atoms: C_17  and  C_18
REMARK    6  A    between atoms: C_18  and  N_19
REMARK    7  A    between atoms: C_18  and  C_20
REMARK    8  A    between atoms: C_20  and  C_21
REMARK                            x       y       z     vdW  Elec       q    Type
REMARK                         _______ _______ _______ _____ _____    ______ ____
ROOT
ATOM      6  C   UNL     1      39.412  -2.831   0.634  0.00  0.00    +0.004 A 
ATOM      7  C   UNL     1      39.228  -3.380  -0.621  0.00  0.00    +0.057 A 
ATOM      8  C   UNL     1      37.951  -3.636  -1.029  0.00  0.00    +0.139 A 
ATOM     25  C   UNL     1      36.943  -3.341  -0.162  0.00  0.00    +0.156 A 
ATOM     26  N   UNL     1      37.145  -2.836   1.009  0.00  0.00    -0.259 NA
ATOM     27  C   UNL     1      38.327  -2.587   1.425  0.00  0.00    +0.119 A 
ENDROOT
BRANCH   6   5
ATOM      1  C   UNL     1      44.598  -1.110  -1.034  0.00  0.00    +0.068 C 
ATOM      2  C   UNL     1      44.271  -1.451   0.377  0.00  0.00    +0.067 A 
ATOM      3  C   UNL     1      43.007  -1.895   0.892  0.00  0.00    +0.023 A 
ATOM      4  C   UNL     1      41.766  -2.129   0.348  0.00  0.00    +0.020 A 
ATOM      5  C   UNL     1      40.752  -2.546   1.157  0.00  0.00    -0.016 A 
ATOM     28  C   UNL     1      40.987  -2.737   2.506  0.00  0.00    +0.010 A 
ATOM     29  C   UNL     1      42.187  -2.511   3.040  0.00  0.00    +0.028 A 
ATOM     30  C   UNL     1      43.204  -2.089   2.241  0.00  0.00    +0.066 A 
ATOM     31  N   UNL     1      44.487  -1.788   2.483  0.00  0.00    -0.277 N 
ATOM     32  H   UNL     1      44.959  -1.838   3.442  0.00  0.00    +0.189 HD
ATOM     33  N   UNL     1      45.101  -1.410   1.331  0.00  0.00    -0.178 NA
ENDBRANCH   6   5
BRANCH   8   9
ATOM      9  O   UNL     1      37.648  -4.149  -2.218  0.00  0.00    -0.489 OA
BRANCH   9  10
ATOM     10  C   UNL     1      38.551  -4.995  -2.876  0.00  0.00    +0.247 C 
BRANCH  10  11
ATOM     11  C   UNL     1      37.905  -5.547  -4.129  0.00  0.00    +0.093 C 
BRANCH  11  22
ATOM     22  N   UNL     1      36.735  -6.286  -3.714  0.00  0.00    -0.324 NA
ATOM     23  H   UNL     1      37.028  -7.080  -3.060  0.00  0.00    +0.119 HD
ATOM     24  H   UNL     1      36.062  -5.631  -3.200  0.00  0.00    +0.119 HD
ENDBRANCH  11  22
BRANCH  11  12
ATOM     12  C   UNL     1      37.500  -4.423  -5.086  0.00  0.00    +0.059 C 
BRANCH  12  13
ATOM     13  C   UNL     1      38.693  -3.689  -5.620  0.00  0.00    -0.019 A 
ATOM     14  C   UNL     1      39.344  -2.568  -5.002  0.00  0.00    +0.005 A 
ATOM     15  C   UNL     1      39.112  -1.858  -3.857  0.00  0.00    +0.010 A 
ATOM     16  C   UNL     1      39.924  -0.830  -3.551  0.00  0.00    +0.001 A 
ATOM     17  C   UNL     1      40.981  -0.500  -4.355  0.00  0.00    +0.002 A 
ATOM     18  C   UNL     1      41.227  -1.185  -5.496  0.00  0.00    +0.028 A 
ATOM     19  C   UNL     1      40.406  -2.231  -5.822  0.00  0.00    +0.071 A 
ATOM     20  N   UNL     1      40.387  -3.087  -6.858  0.00  0.00    -0.255 NA
ATOM     21  C   UNL     1      39.365  -3.944  -6.725  0.00  0.00    +0.115 A 
ENDBRANCH  12  13
ENDBRANCH  11  12
ENDBRANCH  10  11
ENDBRANCH   9  10
ENDBRANCH   8   9
TORSDOF 7
