REMARK  Name = 3p23_ligand
REMARK  9 active torsions:
REMARK  status: ('A' for Active; 'I' for Inactive)
REMARK    1  A    between atoms: PB_1  and  O3A_8
REMARK    2  A    between atoms: PA_5  and  O3A_8
REMARK    3  A    between atoms: PA_5  and  O5'_9
REMARK    4  A    between atoms: O5'_9  and  C5'_10
REMARK    5  A    between atoms: C5'_10  and  C4'_11
REMARK    6  A    between atoms: C3'_13  and  O3'_14
REMARK    7  A    between atoms: C2'_15  and  O2'_16
REMARK    8  A    between atoms: C1'_17  and  N9_18
REMARK    9  A    between atoms: C6_22  and  N6_23
REMARK                            x       y       z     vdW  Elec       q    Type
REMARK                         _______ _______ _______ _____ _____    ______ ____
ROOT
ATOM      6  C   UNL     1      23.884 -41.982  49.234  0.00  0.00    +0.184 C 
ATOM      7  C   UNL     1      25.030 -41.999  48.232  0.00  0.00    +0.180 C 
ATOM      8  C   UNL     1      24.483 -42.748  47.035  0.00  0.00    +0.206 C 
ATOM      9  C   UNL     1      22.976 -42.800  47.230  0.00  0.00    +0.301 C 
ATOM     26  O   UNL     1      22.687 -42.157  48.474  0.00  0.00    -0.336 OA
ENDROOT
BRANCH   9  10
ATOM     10  N   UNL     1      22.340 -42.073  46.104  0.00  0.00    -0.192 N 
ATOM     11  C   UNL     1      21.806 -42.631  45.014  0.00  0.00    +0.161 A 
ATOM     12  N   UNL     1      21.641 -43.899  44.569  0.00  0.00    -0.271 NA
ATOM     13  C   UNL     1      21.041 -44.145  43.391  0.00  0.00    +0.153 A 
ATOM     14  N   UNL     1      20.570 -43.179  42.581  0.00  0.00    -0.270 NA
ATOM     15  C   UNL     1      20.668 -41.868  42.901  0.00  0.00    +0.130 A 
ATOM     19  C   UNL     1      21.317 -41.521  44.186  0.00  0.00    +0.105 A 
ATOM     20  N   UNL     1      21.601 -40.386  44.848  0.00  0.00    -0.296 NA
ATOM     21  C   UNL     1      22.221 -40.735  46.002  0.00  0.00    +0.247 A 
BRANCH  15  16
ATOM     16  N   UNL     1      20.189 -40.900  42.082  0.00  0.00    -0.315 N 
ATOM     17  H   UNL     1      19.744 -41.153  41.200  0.00  0.00    +0.182 HD
ATOM     18  H   UNL     1      20.273 -39.919  42.348  0.00  0.00    +0.182 HD
ENDBRANCH  15  16
ENDBRANCH   9  10
BRANCH   8  22
ATOM     22  O   UNL     1      25.015 -44.075  47.019  0.00  0.00    -0.384 OA
ATOM     23  H   UNL     1      25.972 -44.034  46.961  0.00  0.00    +0.210 HD
ENDBRANCH   8  22
BRANCH   7  24
ATOM     24  O   UNL     1      26.181 -42.672  48.753  0.00  0.00    -0.386 OA
ATOM     25  H   UNL     1      25.951 -43.580  48.965  0.00  0.00    +0.210 HD
ENDBRANCH   7  24
BRANCH   6   5
ATOM      5  C   UNL     1      23.817 -40.693  50.048  0.00  0.00    +0.243 C 
BRANCH   5   4
ATOM      4  O   UNL     1      23.765 -39.550  49.198  0.00  0.00    -0.244 OA
BRANCH   4   3
ATOM      3  P   UNL     1      23.729 -38.078  49.847  0.00  0.00    +0.328 P 
ATOM     27  O   UNL     1      22.620 -38.088  50.870  0.00  0.00    -0.556 OA
ATOM     28  O   UNL     1      23.746 -37.054  48.739  0.00  0.00    -0.556 OA
BRANCH   3   2
ATOM      2  O   UNL     1      25.138 -38.001  50.620  0.00  0.00    -0.155 OA
BRANCH   2   1
ATOM      1  P   UNL     1      26.515 -38.301  49.843  0.00  0.00    +0.207 P 
ATOM     29  O   UNL     1      26.695 -39.796  49.986  0.00  0.00    -0.589 OA
ATOM     30  O   UNL     1      26.256 -37.821  48.433  0.00  0.00    -0.589 OA
ATOM     31  O   UNL     1      27.515 -37.444  50.577  0.00  0.00    -0.589 OA
ENDBRANCH   2   1
ENDBRANCH   3   2
ENDBRANCH   4   3
ENDBRANCH   5   4
ENDBRANCH   6   5
TORSDOF 9
