REMARK  Name = 5UG9
REMARK  11 active torsions:
REMARK  status: ('A' for Active; 'I' for Inactive)
REMARK    1  A    between atoms: C_3  and  N_20
REMARK    2  A    between atoms: N_5  and  C_7
REMARK    3  A    between atoms: C_7  and  C_8
REMARK    4  A    between atoms: C_7  and  C_19
REMARK    5  A    between atoms: C_10  and  N_22
REMARK    6  A    between atoms: C_11  and  N_28
REMARK    7  A    between atoms: N_20  and  C_21
REMARK    8  A    between atoms: C_24  and  O_25
REMARK    9  A    between atoms: O_25  and  C_26
REMARK   10  A    between atoms: C_29  and  C_30
REMARK   11  A    between atoms: C_30  and  C_31
REMARK                            x       y       z     vdW  Elec       q    Type
REMARK                         _______ _______ _______ _____ _____    ______ ____
ROOT
ATOM      1  C   UNL     1     -15.044  16.768 -25.718  0.00  0.00    +0.133 C 
ATOM      2  N   UNL     1     -13.867  16.926 -26.565  0.00  0.00    -0.295 N 
ATOM      3  C   UNL     1     -13.365  18.285 -26.590  0.00  0.00    +0.146 C 
ATOM      4  C   UNL     1     -14.594  19.080 -26.156  0.00  0.00    +0.205 C 
ATOM      5  F   UNL     1     -15.445  19.229 -27.215  0.00  0.00    -0.242 F 
ATOM      6  C   UNL     1     -13.289  15.888 -27.250  0.00  0.00    +0.222 A 
ATOM      7  N   UNL     1     -12.175  16.118 -27.994  0.00  0.00    -0.195 NA
ATOM      8  C   UNL     1     -11.677  15.011 -28.597  0.00  0.00    +0.168 A 
ATOM      9  C   UNL     1     -12.185  13.714 -28.527  0.00  0.00    +0.148 A 
ATOM     10  N   UNL     1     -11.411  12.856 -29.266  0.00  0.00    -0.231 NA
ATOM     11  C   UNL     1     -10.456  13.612 -29.774  0.00  0.00    +0.202 A 
ATOM     12  C   UNL     1     -13.359  13.536 -27.750  0.00  0.00    +0.156 A 
ATOM     24  N   UNL     1     -10.572  14.937 -29.401  0.00  0.00    -0.312 N 
ATOM     28  N   UNL     1     -13.863  14.660 -27.134  0.00  0.00    -0.197 NA
ATOM     29  C   UNL     1     -15.255  18.177 -25.137  0.00  0.00    +0.126 C 
ENDROOT
BRANCH  29  30
ATOM     30  N   UNL     1     -14.552  18.323 -23.854  0.00  0.00    -0.308 N 
ATOM     31  H   UNL     1     -13.629  18.864 -23.848  0.00  0.00    +0.149 HD
ATOM     32  C   UNL     1     -15.007  17.806 -22.652  0.00  0.00    +0.213 C 
ATOM     33  O   UNL     1     -16.044  17.165 -22.506  0.00  0.00    -0.276 OA
BRANCH  32  34
ATOM     34  C   UNL     1     -14.037  18.146 -21.524  0.00  0.00    +0.092 C 
ATOM     35  C   UNL     1     -14.359  17.468 -20.200  0.00  0.00    +0.013 C 
ENDBRANCH  32  34
ENDBRANCH  29  30
BRANCH  24  25
ATOM     25  C   UNL     1      -9.721  16.085 -29.761  0.00  0.00    +0.084 C 
ATOM     26  C   UNL     1     -10.325  16.858 -30.941  0.00  0.00    +0.030 C 
ATOM     27  C   UNL     1      -8.279  15.692 -30.111  0.00  0.00    +0.030 C 
ENDBRANCH  24  25
BRANCH  12  13
ATOM     13  N   UNL     1     -13.998  12.292 -27.613  0.00  0.00    -0.296 N 
ATOM     14  H   UNL     1     -13.521  11.465 -28.096  0.00  0.00    +0.154 HD
BRANCH  13  15
ATOM     15  C   UNL     1     -15.154  12.007 -26.939  0.00  0.00    +0.084 C 
ATOM     16  C   UNL     1     -15.928  10.861 -27.168  0.00  0.00    +0.213 C 
ATOM     19  N   UNL     1     -17.026  10.809 -26.396  0.00  0.00    -0.247 N 
ATOM     20  H   UNL     1     -17.782  10.052 -26.366  0.00  0.00    +0.169 HD
ATOM     21  N   UNL     1     -16.945  11.939 -25.669  0.00  0.00    -0.224 NA
ATOM     22  C   UNL     1     -17.976  12.242 -24.706  0.00  0.00    +0.128 C 
ATOM     23  C   UNL     1     -15.845  12.696 -25.952  0.00  0.00    +0.161 C 
BRANCH  16  17
ATOM     17  O   UNL     1     -15.601   9.901 -28.086  0.00  0.00    -0.481 OA
ATOM     18  C   UNL     1     -16.500   8.795 -28.206  0.00  0.00    +0.278 C 
ENDBRANCH  16  17
ENDBRANCH  13  15
ENDBRANCH  12  13
TORSDOF 6
