REMARK  Name = EZB
REMARK  1 active torsions:
REMARK  status: ('A' for Active; 'I' for Inactive)
REMARK    1  A    between atoms: C03_3  and  C13_10
REMARK                            x       y       z     vdW  Elec       q    Type
REMARK                         _______ _______ _______ _____ _____    ______ ____
ROOT
ATOM      1  C   UNL     1     -12.949 156.141 161.352  0.00  0.00    +0.031 C 
ATOM      2  C   UNL     1     -13.681 154.820 161.193  0.00  0.00    -0.016 A 
ATOM      3  C   UNL     1     -13.034 153.594 161.453  0.00  0.00    -0.004 A 
ATOM     14  C   UNL     1     -13.725 152.398 161.278  0.00  0.00    +0.001 A 
ATOM     15  C   UNL     1     -15.052 152.398 160.887  0.00  0.00    +0.019 A 
ATOM     16  C   UNL     1     -15.713 153.627 160.642  0.00  0.00    +0.087 A 
ATOM     17  N   UNL     1     -17.104 153.569 160.232  0.00  0.00    -0.224 NA
ATOM     18  C   UNL     1     -17.824 154.781 159.974  0.00  0.00    +0.202 A 
ATOM     19  N   UNL     1     -17.172 156.034 160.121  0.00  0.00    -0.186 NA
ATOM     20  C   UNL     1     -15.832 156.100 160.511  0.00  0.00    +0.282 A 
ATOM     21  O   UNL     1     -15.336 157.203 160.612  0.00  0.00    -0.265 OA
ATOM     22  C   UNL     1     -15.059 154.822 160.787  0.00  0.00    +0.072 A 
ENDROOT
BRANCH   3   4
ATOM      4  C   UNL     1     -11.691 153.441 161.807  0.00  0.00    +0.001 A 
ATOM      5  C   UNL     1     -11.076 153.965 162.986  0.00  0.00    +0.018 A 
ATOM      6  C   UNL     1     -11.805 154.728 163.944  0.00  0.00    +0.003 A 
ATOM      7  C   UNL     1     -11.143 155.215 165.069  0.00  0.00    +0.021 A 
ATOM      8  C   UNL     1      -9.785 154.949 165.253  0.00  0.00    +0.099 A 
ATOM      9  N   UNL     1      -9.115 154.227 164.338  0.00  0.00    -0.244 NA
ATOM     10  C   UNL     1      -9.745 153.734 163.214  0.00  0.00    +0.081 A 
ATOM     11  C   UNL     1      -8.969 152.970 162.299  0.00  0.00    +0.019 A 
ATOM     12  C   UNL     1      -9.563 152.462 161.153  0.00  0.00    +0.002 A 
ATOM     13  C   UNL     1     -10.919 152.693 160.917  0.00  0.00    +0.000 A 
ENDBRANCH   3   4
TORSDOF 1
