REMARK  Name = 4h1j_ligand
REMARK  12 active torsions:
REMARK  status: ('A' for Active; 'I' for Inactive)
REMARK    1  A    between atoms: C1_1  and  C16_16
REMARK    2  A    between atoms: C2_2  and  C17_17
REMARK    3  A    between atoms: C3_3  and  C26_26
REMARK    4  A    between atoms: C4_4  and  C26_26
REMARK    5  A    between atoms: C5_5  and  C26_26
REMARK    6  A    between atoms: C6_6  and  O34_34
REMARK    7  A    between atoms: C18_18  and  N32_32
REMARK    8  A    between atoms: C19_19  and  O34_34
REMARK    9  A    between atoms: C20_20  and  C21_21
REMARK   10  A    between atoms: C22_22  and  C26_26
REMARK   11  A    between atoms: C23_23  and  N30_30
REMARK   12  A    between atoms: C24_24  and  N31_31
REMARK                            x       y       z     vdW  Elec       q    Type
REMARK                         _______ _______ _______ _____ _____    ______ ____
ROOT
ATOM     15  N   UNL     1      -6.163  -1.752  11.801  0.00  0.00    -0.179 N 
ATOM     16  H   UNL     1      -6.830  -2.044  12.515  0.00  0.00    +0.234 HD
ATOM     17  C   UNL     1      -5.234  -2.657  11.427  0.00  0.00    +0.328 C 
ATOM     18  O   UNL     1      -4.405  -2.425  10.567  0.00  0.00    -0.377 OA
ATOM     19  N   UNL     1      -5.273  -3.847  12.058  0.00  0.00    -0.185 N 
ATOM     20  H   UNL     1      -6.030  -3.983  12.728  0.00  0.00    +0.233 HD
ENDROOT
BRANCH  19  21
ATOM     21  C   UNL     1      -4.390  -4.910  11.892  0.00  0.00    +0.179 A 
ATOM     22  N   UNL     1      -3.940  -5.646  12.936  0.00  0.00    -0.208 N 
ATOM     23  H   UNL     1      -4.159  -5.486  13.919  0.00  0.00    +0.248 HD
ATOM     24  N   UNL     1      -3.130  -6.656  12.436  0.00  0.00    -0.250 NA
ATOM     25  C   UNL     1      -3.053  -6.531  11.135  0.00  0.00    -0.001 A 
ATOM     35  C   UNL     1      -3.869  -5.438  10.750  0.00  0.00    -0.017 A 
BRANCH  25  26
ATOM     26  C   UNL     1      -2.287  -7.443  10.241  0.00  0.00    -0.028 A 
ATOM     27  C   UNL     1      -0.984  -7.908  10.538  0.00  0.00    -0.046 A 
ATOM     28  C   UNL     1      -0.363  -8.786   9.659  0.00  0.00    +0.017 A 
ATOM     29  C   UNL     1      -1.014  -9.238   8.499  0.00  0.00    +0.085 A 
ATOM     32  C   UNL     1      -2.306  -8.789   8.225  0.00  0.00    +0.011 A 
ATOM     33  C   UNL     1      -0.192  -7.486  11.750  0.00  0.00    +0.086 C 
ATOM     34  C   UNL     1      -2.934  -7.897   9.080  0.00  0.00    -0.011 A 
BRANCH  29  30
ATOM     30  O   UNL     1      -0.423 -10.101   7.615  0.00  0.00    -0.322 OA
ATOM     31  C   UNL     1       0.948 -10.501   7.784  0.00  0.00    +0.233 C 
ENDBRANCH  29  30
ENDBRANCH  25  26
ENDBRANCH  19  21
BRANCH  15  14
ATOM      6  N   UNL     1      -6.870   0.596  11.985  0.00  0.00    -0.107 N 
ATOM      7  N   UNL     1      -6.851   1.706  11.136  0.00  0.00    -0.167 NA
ATOM      8  C   UNL     1      -6.276   1.391  10.001  0.00  0.00    -0.004 A 
ATOM     13  C   UNL     1      -5.921   0.037  10.070  0.00  0.00    +0.003 A 
ATOM     14  C   UNL     1      -6.299  -0.447  11.301  0.00  0.00    +0.219 A 
BRANCH   6   5
ATOM      1  C   UNL     1      -9.464   0.905  17.056  0.00  0.00    +0.083 C 
ATOM      2  C   UNL     1      -8.771   0.798  15.715  0.00  0.00    -0.049 A 
ATOM      3  C   UNL     1      -9.382   1.330  14.579  0.00  0.00    -0.006 A 
ATOM      4  C   UNL     1      -8.747   1.227  13.346  0.00  0.00    +0.033 A 
ATOM      5  C   UNL     1      -7.485   0.613  13.246  0.00  0.00    +0.123 A 
ATOM     36  C   UNL     1      -6.873   0.093  14.392  0.00  0.00    +0.033 A 
ATOM     37  C   UNL     1      -7.536   0.164  15.621  0.00  0.00    -0.006 A 
ENDBRANCH   6   5
BRANCH   8   9
ATOM      9  C   UNL     1      -6.097   2.365   8.853  0.00  0.00    -0.046 C 
ATOM     10  C   UNL     1      -5.812   3.763   9.408  0.00  0.00    -0.047 C 
ATOM     11  C   UNL     1      -4.957   1.995   7.888  0.00  0.00    -0.047 C 
ATOM     12  C   UNL     1      -7.418   2.390   8.078  0.00  0.00    -0.047 C 
ENDBRANCH   8   9
ENDBRANCH  15  14
TORSDOF 6
