REMARK  Name = 3l9l_ligand
REMARK  7 active torsions:
REMARK  status: ('A' for Active; 'I' for Inactive)
REMARK    1  A    between atoms: N1_3  and  C12_21
REMARK    2  A    between atoms: N3_11  and  C7_16
REMARK    3  A    between atoms: C6_15  and  C9_18
REMARK    4  A    between atoms: C7_16  and  C12_21
REMARK    5  A    between atoms: C7_16  and  C20_29
REMARK    6  A    between atoms: C15_24  and  C19_28
REMARK    7  A    between atoms: C18_27  and  C20_29
REMARK                            x       y       z     vdW  Elec       q    Type
REMARK                         _______ _______ _______ _____ _____    ______ ____
ROOT
ATOM      3  C   UNL     1      30.357   4.860   6.727  0.00  0.00    +0.030 A 
ATOM      4  C   UNL     1      31.202   4.958   5.564  0.00  0.00    +0.018 A 
ATOM      5  N   UNL     1      31.903   3.786   5.327  0.00  0.00    -0.318 NA
ATOM      6  C   UNL     1      31.623   2.836   6.255  0.00  0.00    +0.181 A 
ATOM      7  N   UNL     1      32.041   1.453   6.144  0.00  0.00    -0.278 N 
ATOM      8  H   UNL     1      32.717   1.169   5.421  0.00  0.00    +0.191 HD
ATOM     26  S   UNL     1      30.485   3.324   7.459  0.00  0.00    +0.016 S 
ENDROOT
BRANCH   3   2
ATOM      1  C   UNL     1      28.943   7.025   6.434  0.00  0.00    -0.026 A 
ATOM      2  C   UNL     1      29.360   5.868   7.227  0.00  0.00    -0.039 A 
ATOM     27  C   UNL     1      28.778   5.738   8.577  0.00  0.00    -0.017 A 
ATOM     28  C   UNL     1      27.871   6.748   9.043  0.00  0.00    -0.003 A 
ATOM     29  C   UNL     1      27.122   6.833  10.354  0.00  0.00    +0.201 C 
ATOM     30  C   UNL     1      26.233   8.043  10.024  0.00  0.00    +0.209 C 
ATOM     31  N   UNL     1      26.581   8.567   8.835  0.00  0.00    -0.235 N 
ATOM     32  H   UNL     1      26.179   9.398   8.450  0.00  0.00    +0.226 HD
ATOM     33  O   UNL     1      25.340   8.490  10.718  0.00  0.00    -0.388 OA
ATOM     34  C   UNL     1      27.523   7.848   8.233  0.00  0.00    +0.071 A 
ATOM     35  C   UNL     1      28.041   8.032   6.896  0.00  0.00    +0.001 A 
ENDBRANCH   3   2
BRANCH   7   9
ATOM      9  C   UNL     1      31.490   0.468   7.071  0.00  0.00    +0.197 C 
BRANCH   9  10
ATOM     10  C   UNL     1      30.201  -0.150   6.522  0.00  0.00    +0.102 C 
BRANCH  10  22
ATOM     22  N   UNL     1      30.548  -1.039   5.366  0.00  0.00    +0.224 N 
ATOM     23  H   UNL     1      31.107  -1.812   5.692  0.00  0.00    +0.200 HD
ATOM     24  H   UNL     1      29.701  -1.390   4.946  0.00  0.00    +0.200 HD
ATOM     25  H   UNL     1      31.069  -0.513   4.682  0.00  0.00    +0.200 HD
ENDBRANCH  10  22
BRANCH  10  11
ATOM     11  C   UNL     1      29.406  -0.917   7.586  0.00  0.00    +0.152 C 
BRANCH  11  12
ATOM     12  C   UNL     1      28.907   0.033   8.673  0.00  0.00    -0.006 A 
ATOM     13  C   UNL     1      29.561   0.023   9.960  0.00  0.00    +0.037 A 
ATOM     14  C   UNL     1      29.146   1.040  10.890  0.00  0.00    +0.046 A 
ATOM     15  C   UNL     1      28.029   1.974  10.596  0.00  0.00    +0.039 A 
ATOM     20  C   UNL     1      27.418   1.889   9.258  0.00  0.00    +0.046 A 
ATOM     21  C   UNL     1      27.838   0.896   8.295  0.00  0.00    +0.037 A 
BRANCH  15  16
ATOM     16  C   UNL     1      27.565   3.004  11.688  0.00  0.00    +0.368 C 
ATOM     17  F   UNL     1      26.433   3.647  11.191  0.00  0.00    -0.227 F 
ATOM     18  F   UNL     1      27.335   2.290  12.809  0.00  0.00    -0.227 F 
ATOM     19  F   UNL     1      28.655   3.799  11.845  0.00  0.00    -0.227 F 
ENDBRANCH  15  16
ENDBRANCH  11  12
ENDBRANCH  10  11
ENDBRANCH   9  10
ENDBRANCH   7   9
TORSDOF 7
