REMARK  Name = 4af3_ligand
REMARK  7 active torsions:
REMARK  status: ('A' for Active; 'I' for Inactive)
REMARK    1  A    between atoms: N1_1  and  C7_7
REMARK    2  A    between atoms: N4_4  and  C8_8
REMARK    3  A    between atoms: C12_12  and  S23_21
REMARK    4  A    between atoms: C18_17  and  C21_20
REMARK    5  A    between atoms: S23_21  and  C24_22
REMARK    6  A    between atoms: C27_25  and  N30_28
REMARK    7  A    between atoms: C31_29  and  C33_31
REMARK                            x       y       z     vdW  Elec       q    Type
REMARK                         _______ _______ _______ _____ _____    ______ ____
ROOT
ATOM      6  C   UNL     1      23.346 -21.455 -12.981  0.00  0.00    +0.108 A 
ATOM      7  N   UNL     1      23.598 -22.182 -11.883  0.00  0.00    -0.259 NA
ATOM      8  C   UNL     1      22.650 -22.486 -10.995  0.00  0.00    +0.144 A 
ATOM     23  N   UNL     1      21.389 -22.061 -11.188  0.00  0.00    -0.257 NA
ATOM     24  C   UNL     1      21.053 -21.332 -12.277  0.00  0.00    +0.122 A 
ATOM     25  N   UNL     1      19.800 -20.879 -12.502  0.00  0.00    -0.261 N 
ATOM     26  H   UNL     1      19.667 -20.185 -13.237  0.00  0.00    +0.212 HD
ATOM     27  C   UNL     1      18.709 -21.291 -11.810  0.00  0.00    +0.096 A 
ATOM     28  N   UNL     1      17.538 -20.693 -11.995  0.00  0.00    -0.229 NA
ATOM     29  N   UNL     1      16.683 -21.195 -11.273  0.00  0.00    -0.234 N 
ATOM     30  H   UNL     1      15.704 -20.912 -11.225  0.00  0.00    +0.245 HD
ATOM     31  C   UNL     1      17.241 -22.162 -10.569  0.00  0.00    +0.056 A 
ATOM     32  C   UNL     1      16.452 -23.009  -9.561  0.00  0.00    +0.127 C 
ATOM     33  C   UNL     1      18.529 -22.247 -10.889  0.00  0.00    -0.004 A 
ATOM     34  C   UNL     1      22.041 -21.012 -13.210  0.00  0.00    +0.068 A 
ENDROOT
BRANCH   6   5
ATOM      1  N   UNL     1      26.828 -20.575 -15.182  0.00  0.00    +0.404 NA
ATOM      2  C   UNL     1      27.452 -19.236 -14.994  0.00  0.00    -0.131 C 
ATOM      3  C   UNL     1      26.813 -21.315 -13.893  0.00  0.00    -0.085 C 
ATOM      4  C   UNL     1      25.577 -22.127 -13.690  0.00  0.00    +0.114 C 
ATOM      5  N   UNL     1      24.395 -21.237 -13.801  0.00  0.00    -0.296 N 
ATOM     35  C   UNL     1      24.451 -20.153 -14.812  0.00  0.00    +0.114 C 
ATOM     36  C   UNL     1      25.486 -20.521 -15.837  0.00  0.00    -0.085 C 
ENDBRANCH   6   5
BRANCH   8   9
ATOM      9  S   UNL     1      23.137 -23.446  -9.585  0.00  0.00    -0.016 S 
BRANCH   9  10
ATOM     10  C   UNL     1      21.775 -23.261  -8.558  0.00  0.00    +0.022 A 
ATOM     11  C   UNL     1      20.823 -24.263  -8.467  0.00  0.00    -0.006 A 
ATOM     12  C   UNL     1      19.724 -24.111  -7.634  0.00  0.00    +0.003 A 
ATOM     13  C   UNL     1      19.573 -22.941  -6.868  0.00  0.00    +0.060 A 
ATOM     21  C   UNL     1      20.545 -21.947  -6.975  0.00  0.00    +0.003 A 
ATOM     22  C   UNL     1      21.638 -22.103  -7.812  0.00  0.00    -0.006 A 
BRANCH  13  14
ATOM     14  N   UNL     1      18.549 -22.683  -6.029  0.00  0.00    -0.237 N 
ATOM     15  H   UNL     1      18.556 -21.826  -5.475  0.00  0.00    +0.224 HD
ATOM     16  C   UNL     1      17.519 -23.540  -5.913  0.00  0.00    +0.205 C 
ATOM     20  O   UNL     1      17.404 -24.606  -6.511  0.00  0.00    -0.385 OA
BRANCH  16  17
ATOM     17  C   UNL     1      16.424 -23.095  -4.950  0.00  0.00    +0.109 C 
ATOM     18  C   UNL     1      15.358 -24.128  -4.604  0.00  0.00    +0.028 C 
ATOM     19  C   UNL     1      14.999 -22.971  -5.509  0.00  0.00    +0.028 C 
ENDBRANCH  16  17
ENDBRANCH  13  14
ENDBRANCH   9  10
ENDBRANCH   8   9
TORSDOF 5
