REMARK  Name = AE6W
REMARK  5 active torsions:
REMARK  status: ('A' for Active; 'I' for Inactive)
REMARK    1  A    between atoms: C4_1  and  C3_10
REMARK    2  A    between atoms: C5_2  and  C6_3
REMARK    3  A    between atoms: C7_5  and  C8_6
REMARK    4  A    between atoms: C2_11  and  C1_12
REMARK    5  A    between atoms: C1_12  and  C_14
REMARK                            x       y       z     vdW  Elec       q    Type
REMARK                         _______ _______ _______ _____ _____    ______ ____
ROOT
ATOM      1  C   UNL     1      35.959  29.930  79.119  0.00  0.00    -0.000 C 
ATOM      7  C   UNL     1      35.934  30.949  78.071  0.00  0.00    -0.000 C 
ENDROOT
BRANCH   1   2
ATOM      2  C   UNL     1      36.067  28.545  79.090  0.00  0.00    -0.005 C 
ATOM      3  C   UNL     1      36.167  27.833  80.270  0.00  0.00    -0.025 C 
BRANCH   3   4
ATOM      4  C   UNL     1      36.184  28.497  81.489  0.00  0.00    +0.047 C 
BRANCH   4   5
ATOM      5  C   UNL     1      36.394  27.966  82.873  0.00  0.00    +0.114 C 
ATOM      6  N   UNL     1      36.294  29.176  83.664  0.00  0.00    -0.131 NA
ENDBRANCH   4   5
ENDBRANCH   3   4
ENDBRANCH   1   2
BRANCH   7   8
ATOM      8  C   UNL     1      35.945  30.681  76.602  0.00  0.00    -0.000 C 
ATOM      9  C   UNL     1      34.836  30.983  75.819  0.00  0.00    -0.000 C 
BRANCH   9  10
ATOM     10  C   UNL     1      34.872  30.797  74.444  0.00  0.00    +0.000 C 
ATOM     11  C   UNL     1      36.007  30.305  73.837  0.00  0.00    +0.000 C 
ENDBRANCH   9  10
ENDBRANCH   7   8
TORSDOF 5
