REMARK  Name = 5ANE
REMARK  2 active torsions:
REMARK  status: ('A' for Active; 'I' for Inactive)
REMARK    1  A    between atoms: C_9  and  O_10
REMARK    2  A    between atoms: O_10  and  C_11
REMARK                            x       y       z     vdW  Elec       q    Type
REMARK                         _______ _______ _______ _____ _____    ______ ____
ROOT
ATOM      1  C   UNL     1      -0.064  -5.616 -28.090  0.00  0.00    +0.169 A 
ATOM      2  C   UNL     1       0.401  -6.858 -28.321  0.00  0.00    +0.246 A 
ATOM      5  N   UNL     1       1.419  -7.063 -29.150  0.00  0.00    -0.200 NA
ATOM      6  C   UNL     1       1.957  -6.013 -29.884  0.00  0.00    +0.227 A 
ATOM      7  N   UNL     1       1.443  -4.785 -29.669  0.00  0.00    -0.216 NA
ATOM      8  C   UNL     1       0.447  -4.567 -28.778  0.00  0.00    +0.165 A 
ATOM      9  N   UNL     1      -0.193  -3.446 -28.412  0.00  0.00    -0.329 N 
ATOM     10  H   UNL     1      -0.014  -2.453 -28.767  0.00  0.00    +0.168 HD
ATOM     11  C   UNL     1      -1.109  -3.835 -27.504  0.00  0.00    +0.199 A 
ATOM     12  N   UNL     1      -1.023  -5.141 -27.351  0.00  0.00    -0.229 NA
ENDROOT
BRANCH   2   3
ATOM      3  O   UNL     1      -0.159  -7.846 -27.610  0.00  0.00    -0.478 OA
ATOM      4  C   UNL     1       0.371  -9.110 -27.816  0.00  0.00    +0.279 C 
ENDBRANCH   2   3
TORSDOF 1
