REMARK  Name = 6O94
REMARK  4 active torsions:
REMARK  status: ('A' for Active; 'I' for Inactive)
REMARK    1  A    between atoms: C4_1  and  N3_15
REMARK    2  A    between atoms: C14_2  and  C17_31
REMARK    3  A    between atoms: C3_14  and  N4_27
REMARK    4  A    between atoms: C18_17  and  C19_18
REMARK                            x       y       z     vdW  Elec       q    Type
REMARK                         _______ _______ _______ _____ _____    ______ ____
ROOT
ATOM      1  C   UNL     1      17.368  -6.915   6.666  0.00  0.00    +0.050 A 
ATOM     10  C   UNL     1      17.703  -8.118   6.022  0.00  0.00    +0.050 A 
ATOM     11  C   UNL     1      17.373  -9.343   6.607  0.00  0.00    -0.130 A 
ATOM     12  C   UNL     1      16.724  -9.334   7.837  0.00  0.00    +0.200 A 
ATOM     13  N   UNL     1      16.264 -10.359   8.667  0.00  0.00    -0.350 N 
ATOM     14  C   UNL     1      16.216 -11.771   8.296  0.00  0.00    -0.100 C 
ATOM     15  C   UNL     1      15.743  -9.714   9.788  0.00  0.00    +0.250 A 
ATOM     16  N   UNL     1      15.333 -10.392  10.929  0.00  0.00    -0.250 N 
ATOM     17  C   UNL     1      16.027 -11.573  11.466  0.00  0.00    +0.000 C 
ATOM     18  C   UNL     1      16.395 -11.341  12.906  0.00  0.00    +0.080 C 
ATOM     19  O   UNL     1      15.253 -10.982  13.682  0.00  0.00    -0.360 OA
ATOM     20  C   UNL     1      14.709  -9.757  13.198  0.00  0.00    +0.080 C 
ATOM     21  C   UNL     1      14.244  -9.885  11.775  0.00  0.00    +0.000 C 
ATOM     22  N   UNL     1      15.785  -8.408   9.708  0.00  0.00    -0.300 NA
ATOM     23  C   UNL     1      16.402  -8.146   8.493  0.00  0.00    +0.200 A 
ATOM     36  C   UNL     1      16.716  -6.926   7.902  0.00  0.00    -0.130 A 
ENDROOT
BRANCH   1   2
ATOM      2  N   UNL     1      17.754  -5.690   6.049  0.00  0.00    -0.250 N 
ATOM      3  C   UNL     1      16.618  -4.880   5.593  0.00  0.00    +0.000 C 
ATOM      4  C   UNL     1      17.079  -3.621   4.855  0.00  0.00    -0.100 C 
ATOM      5  C   UNL     1      18.031  -2.791   5.707  0.00  0.00    -0.050 C 
ATOM      8  C   UNL     1      19.212  -3.668   6.128  0.00  0.00    -0.100 C 
ATOM      9  C   UNL     1      18.761  -4.953   6.826  0.00  0.00    +0.000 C 
BRANCH   5   6
ATOM      6  C   UNL     1      18.478  -1.528   4.984  0.00  0.00    +0.150 C 
ATOM      7  O   UNL     1      19.093  -1.803   3.723  0.00  0.00    -0.650 OA
ENDBRANCH   5   6
ENDBRANCH   1   2
BRANCH  10  24
ATOM     24  N   UNL     1      18.388  -8.032   4.781  0.00  0.00    -0.350 NA
ATOM     25  C   UNL     1      18.915  -9.007   3.984  0.00  0.00    +0.600 C 
ATOM     35  O   UNL     1      18.747 -10.214   4.163  0.00  0.00    -0.550 OA
BRANCH  25  26
ATOM     26  C   UNL     1      19.789  -8.518   2.867  0.00  0.00    +0.000 A 
ATOM     27  C   UNL     1      20.690  -9.271   2.093  0.00  0.00    +0.000 A 
ATOM     28  N   UNL     1      21.363  -8.543   1.184  0.00  0.00    -0.350 NA
ATOM     29  N   UNL     1      20.871  -7.271   1.375  0.00  0.00    -0.150 N 
ATOM     30  C   UNL     1      21.254  -6.104   0.752  0.00  0.00    +0.000 C 
ATOM     31  C   UNL     1      20.726  -4.900   1.171  0.00  0.00    -0.100 C 
ATOM     32  C   UNL     1      19.803  -4.929   2.213  0.00  0.00    +0.000 C 
ATOM     33  N   UNL     1      19.389  -6.054   2.821  0.00  0.00    -0.150 NA
ATOM     34  C   UNL     1      19.927  -7.208   2.392  0.00  0.00    +0.100 A 
ENDBRANCH  25  26
ENDBRANCH  10  24
TORSDOF 4
