REMARK  Name = DXH
REMARK  5 active torsions:
REMARK  status: ('A' for Active; 'I' for Inactive)
REMARK    1  A    between atoms: C03_3  and  N21_21
REMARK    2  A    between atoms: C05_5  and  C08_8
REMARK    3  A    between atoms: N10_10  and  C11_11
REMARK    4  A    between atoms: C15_15  and  C17_17
REMARK    5  A    between atoms: C24_24  and  C32_32
REMARK                            x       y       z     vdW  Elec       q    Type
REMARK                         _______ _______ _______ _____ _____    ______ ____
ROOT
ATOM      1  C   UNL     1      20.877  96.052   3.201  0.00  0.00    +0.032 C 
ATOM      2  C   UNL     1      20.050  95.188   2.256  0.00  0.00    -0.006 A 
ATOM      3  C   UNL     1      18.652  95.269   2.292  0.00  0.00    +0.069 A 
ATOM     21  C   UNL     1      17.891  94.497   1.442  0.00  0.00    +0.021 A 
ATOM     22  C   UNL     1      18.510  93.625   0.570  0.00  0.00    +0.057 A 
ATOM     23  C   UNL     1      19.899  93.548   0.511  0.00  0.00    +0.004 A 
ATOM     37  C   UNL     1      20.666  94.336   1.373  0.00  0.00    -0.003 A 
ENDROOT
BRANCH   3   4
ATOM      4  N   UNL     1      17.962  96.189   3.223  0.00  0.00    -0.184 NA
ATOM      5  C   UNL     1      17.684  95.801   4.625  0.00  0.00    +0.209 C 
ATOM      6  C   UNL     1      16.885  96.635   5.493  0.00  0.00    +0.100 A 
ATOM      7  C   UNL     1      16.660  96.240   6.784  0.00  0.00    +0.157 A 
ATOM      8  N   UNL     1      15.890  97.200   7.364  0.00  0.00    -0.234 N 
ATOM      9  C   UNL     1      15.408  97.190   8.726  0.00  0.00    +0.155 C 
ATOM     10  N   UNL     1      15.629  98.171   6.500  0.00  0.00    -0.166 NA
ATOM     11  N   UNL     1      17.199  95.061   7.206  0.00  0.00    -0.165 NA
ATOM     12  C   UNL     1      17.928  94.312   6.376  0.00  0.00    +0.208 C 
ATOM     19  C   UNL     1      16.214  97.874   5.342  0.00  0.00    +0.127 A 
ATOM     20  N   UNL     1      18.165  94.683   5.121  0.00  0.00    -0.368 NA
BRANCH  12  13
ATOM     13  C   UNL     1      18.554  92.972   6.852  0.00  0.00    +0.065 A 
ATOM     14  C   UNL     1      18.594  92.645   8.205  0.00  0.00    +0.007 A 
ATOM     15  C   UNL     1      19.174  91.439   8.555  0.00  0.00    +0.021 A 
ATOM     16  C   UNL     1      19.699  90.606   7.537  0.00  0.00    +0.099 A 
ATOM     17  N   UNL     1      19.647  90.952   6.264  0.00  0.00    -0.242 NA
ATOM     18  C   UNL     1      19.101  92.089   5.899  0.00  0.00    +0.103 A 
ENDBRANCH  12  13
ENDBRANCH   3   4
BRANCH  22  24
ATOM     24  C   UNL     1      17.612  92.797  -0.387  0.00  0.00    +0.269 C 
ATOM     25  O   UNL     1      16.461  92.691  -0.169  0.00  0.00    -0.268 OA
ATOM     26  N   UNL     1      18.270  92.225  -1.590  0.00  0.00    -0.175 NA
BRANCH  26  27
ATOM     27  C   UNL     1      17.574  91.487  -2.625  0.00  0.00    +0.074 A 
ATOM     28  C   UNL     1      16.303  91.819  -2.923  0.00  0.00    +0.021 A 
ATOM     29  C   UNL     1      15.621  91.132  -3.956  0.00  0.00    +0.073 A 
ATOM     34  C   UNL     1      16.263  90.153  -4.659  0.00  0.00    +0.004 A 
ATOM     35  C   UNL     1      17.572  89.842  -4.367  0.00  0.00    +0.001 A 
ATOM     36  C   UNL     1      18.243  90.512  -3.352  0.00  0.00    +0.017 A 
BRANCH  29  30
ATOM     30  C   UNL     1      14.174  91.487  -4.258  0.00  0.00    +0.419 C 
ATOM     31  F   UNL     1      13.403  91.018  -3.260  0.00  0.00    -0.166 F 
ATOM     32  F   UNL     1      14.040  92.846  -4.319  0.00  0.00    -0.166 F 
ATOM     33  F   UNL     1      13.834  90.936  -5.449  0.00  0.00    -0.166 F 
ENDBRANCH  29  30
ENDBRANCH  26  27
ENDBRANCH  22  24
TORSDOF 5
