REMARK  Name = 8FC
REMARK  4 active torsions:
REMARK  status: ('A' for Active; 'I' for Inactive)
REMARK    1  A    between atoms: C15_3  and  S26_26
REMARK    2  A    between atoms: C02_10  and  N07_15
REMARK    3  A    between atoms: N07_15  and  S26_26
REMARK    4  A    between atoms: N08_16  and  C14_20
REMARK                            x       y       z     vdW  Elec       q    Type
REMARK                         _______ _______ _______ _____ _____    ______ ____
ROOT
ATOM      1  C   UNL     1     -13.690  -5.458  -0.301  0.00  0.00    +0.245 C 
ATOM      2  C   UNL     1     -13.758  -6.899   0.432  0.00  0.00    +0.127 C 
ATOM      3  N   UNL     1     -12.812  -7.078   1.317  0.00  0.00    -0.304 N 
ATOM      7  C   UNL     1     -11.462  -6.869   0.680  0.00  0.00    +0.063 A 
ATOM      8  C   UNL     1     -10.221  -7.744   1.038  0.00  0.00    +0.034 A 
ATOM      9  C   UNL     1      -8.948  -7.479   0.341  0.00  0.00    +0.092 A 
ATOM     21  C   UNL     1      -8.803  -6.463  -0.657  0.00  0.00    +0.019 A 
ATOM     22  C   UNL     1      -9.975  -5.654  -0.993  0.00  0.00    +0.018 A 
ATOM     23  C   UNL     1     -11.341  -5.938  -0.278  0.00  0.00    +0.067 A 
ATOM     24  C   UNL     1     -15.148  -6.843   1.012  0.00  0.00    +0.029 C 
ATOM     25  C   UNL     1     -13.960  -8.060  -0.549  0.00  0.00    +0.029 C 
ATOM     26  O   UNL     1     -14.704  -4.831  -0.517  0.00  0.00    -0.273 OA
ATOM     27  N   UNL     1     -12.505  -5.050  -0.641  0.00  0.00    -0.254 N 
ATOM     28  C   UNL     1     -12.323  -3.787  -1.299  0.00  0.00    +0.120 C 
ENDROOT
BRANCH   3   4
ATOM      4  C   UNL     1     -13.080  -7.107   2.752  0.00  0.00    +0.073 C 
ATOM      5  C   UNL     1     -12.169  -7.886   3.687  0.00  0.00    +0.021 C 
ATOM      6  C   UNL     1     -13.567  -8.394   3.401  0.00  0.00    +0.021 C 
ENDBRANCH   3   4
BRANCH   9  10
ATOM     10  N   UNL     1      -7.844  -8.267   0.713  0.00  0.00    -0.097 NA
BRANCH  10  11
ATOM     11  S   UNL     1      -7.830  -8.769   2.290  0.00  0.00    +0.093 S 
ATOM     19  O   UNL     1      -6.501  -9.219   2.549  0.00  0.00    -0.148 OA
ATOM     20  O   UNL     1      -8.602  -9.963   2.535  0.00  0.00    -0.148 OA
BRANCH  11  12
ATOM     12  C   UNL     1      -8.206  -7.598   3.574  0.00  0.00    +0.127 A 
ATOM     13  C   UNL     1      -9.032  -8.039   4.767  0.00  0.00    +0.020 A 
ATOM     14  C   UNL     1      -9.341  -7.054   5.878  0.00  0.00    -0.003 A 
ATOM     15  C   UNL     1      -8.796  -5.642   5.770  0.00  0.00    -0.022 A 
ATOM     16  C   UNL     1      -9.069  -4.625   6.855  0.00  0.00    +0.031 C 
ATOM     17  C   UNL     1      -7.965  -5.203   4.588  0.00  0.00    -0.003 A 
ATOM     18  C   UNL     1      -7.678  -6.193   3.483  0.00  0.00    +0.020 A 
ENDBRANCH  11  12
ENDBRANCH  10  11
ENDBRANCH   9  10
TORSDOF 4
