REMARK  Name = Y81
REMARK  2 active torsions:
REMARK  status: ('A' for Active; 'I' for Inactive)
REMARK    1  A    between atoms: C2_2  and  C3_14
REMARK    2  A    between atoms: C6_16  and  C7_20
REMARK                            x       y       z     vdW  Elec       q    Type
REMARK                         _______ _______ _______ _____ _____    ______ ____
ROOT
ATOM      1  O   UNL     1      11.328  -5.974   1.038  0.00  0.00    -0.270 OA
ATOM      2  C   UNL     1      11.289  -6.362  -0.052  0.00  0.00    +0.255 C 
ATOM      3  N   UNL     1      12.440  -6.636  -0.616  0.00  0.00    -0.245 N 
ATOM      4  C   UNL     1      13.716  -6.300   0.139  0.00  0.00    +0.186 C 
ATOM      5  C   UNL     1      14.524  -5.640  -0.878  0.00  0.00    +0.266 C 
ATOM      6  O   UNL     1      15.246  -4.639  -0.513  0.00  0.00    -0.271 OA
ATOM      7  N   UNL     1      14.525  -6.170  -2.196  0.00  0.00    -0.176 NA
ATOM      8  C   UNL     1      13.746  -7.099  -2.613  0.00  0.00    +0.087 A 
ATOM      9  C   UNL     1      13.997  -7.802  -3.821  0.00  0.00    +0.018 A 
ATOM     10  C   UNL     1      13.139  -8.842  -4.255  0.00  0.00    +0.001 A 
ATOM     11  C   UNL     1      12.078  -9.134  -3.461  0.00  0.00    +0.001 A 
ATOM     12  C   UNL     1      11.811  -8.368  -2.309  0.00  0.00    +0.016 A 
ATOM     13  C   UNL     1      12.622  -7.356  -1.852  0.00  0.00    +0.070 A 
ENDROOT
BRANCH   2  14
ATOM     14  C   UNL     1       9.934  -6.322  -0.833  0.00  0.00    +0.073 A 
ATOM     15  C   UNL     1       8.824  -6.711  -0.171  0.00  0.00    +0.103 A 
ATOM     16  N   UNL     1       7.658  -6.576  -0.740  0.00  0.00    -0.242 NA
ATOM     17  C   UNL     1       7.631  -6.177  -2.058  0.00  0.00    +0.099 A 
ATOM     18  C   UNL     1       8.692  -5.765  -2.784  0.00  0.00    +0.019 A 
ATOM     25  C   UNL     1       9.885  -5.843  -2.130  0.00  0.00    +0.008 A 
BRANCH  18  19
ATOM     19  C   UNL     1       8.584  -5.263  -4.179  0.00  0.00    +0.002 A 
ATOM     20  C   UNL     1       7.494  -4.513  -4.587  0.00  0.00    +0.000 A 
ATOM     21  C   UNL     1       7.261  -4.145  -5.934  0.00  0.00    +0.000 A 
ATOM     22  C   UNL     1       8.259  -4.490  -6.836  0.00  0.00    +0.000 A 
ATOM     23  C   UNL     1       9.403  -5.272  -6.438  0.00  0.00    +0.000 A 
ATOM     24  C   UNL     1       9.503  -5.633  -5.098  0.00  0.00    +0.000 A 
ENDBRANCH  18  19
ENDBRANCH   2  14
TORSDOF 2
