REMARK  Name = 4gmy_ligand
REMARK  4 active torsions:
REMARK  status: ('A' for Active; 'I' for Inactive)
REMARK    1  A    between atoms: C4_1  and  C8_5
REMARK    2  A    between atoms: C11_4  and  N10_13
REMARK    3  A    between atoms: C15_15  and  N17_17
REMARK    4  A    between atoms: C18_18  and  C20_20
REMARK                            x       y       z     vdW  Elec       q    Type
REMARK                         _______ _______ _______ _____ _____    ______ ____
ROOT
ATOM     10  C   UNL     1       9.348 -25.515   5.104  0.00  0.00    +0.071 A 
ATOM     11  C   UNL     1       7.972 -25.442   5.187  0.00  0.00    +0.049 A 
ATOM     12  C   UNL     1       7.209 -26.589   5.276  0.00  0.00    +0.120 A 
ATOM     20  N   UNL     1       7.796 -27.779   5.327  0.00  0.00    -0.306 NA
ATOM     21  C   UNL     1       9.112 -27.907   5.274  0.00  0.00    +0.050 A 
ATOM     22  C   UNL     1       9.914 -26.790   5.158  0.00  0.00    +0.018 A 
ENDROOT
BRANCH  10   8
ATOM      7  C   UNL     1      11.378 -24.144   4.918  0.00  0.00    +0.236 C 
ATOM      8  N   UNL     1      10.046 -24.304   5.025  0.00  0.00    -0.228 N 
ATOM      9  H   UNL     1       9.496 -23.469   5.051  0.00  0.00    +0.229 HD
ATOM     23  O   UNL     1      12.139 -25.094   4.857  0.00  0.00    -0.371 OA
BRANCH   7   1
ATOM      1  C   UNL     1      11.925 -22.763   4.880  0.00  0.00    +0.084 A 
ATOM      2  C   UNL     1      12.670 -22.289   5.971  0.00  0.00    +0.061 A 
ATOM      3 CL   UNL     1      12.957 -23.298   7.352  0.00  0.00    -0.065 Cl
ATOM      4  C   UNL     1      13.191 -21.012   5.969  0.00  0.00    +0.021 A 
ATOM      5  C   UNL     1      12.974 -20.180   4.891  0.00  0.00    +0.008 A 
ATOM      6  C   UNL     1      12.237 -20.626   3.814  0.00  0.00    +0.021 A 
ATOM     24  C   UNL     1      11.707 -21.900   3.793  0.00  0.00    +0.061 A 
ATOM     25 CL   UNL     1      10.784 -22.371   2.403  0.00  0.00    -0.065 Cl
ENDBRANCH   7   1
ENDBRANCH  10   8
BRANCH  12  13
ATOM     13  N   UNL     1       5.817 -26.489   5.346  0.00  0.00    -0.222 N 
ATOM     14  H   UNL     1       5.312 -27.251   5.752  0.00  0.00    +0.230 HD
ATOM     15  C   UNL     1       5.106 -25.420   4.897  0.00  0.00    +0.210 C 
ATOM     19  O   UNL     1       5.592 -24.430   4.379  0.00  0.00    -0.383 OA
BRANCH  15  16
ATOM     16  C   UNL     1       3.615 -25.425   5.016  0.00  0.00    +0.110 C 
ATOM     17  C   UNL     1       2.897 -24.711   3.880  0.00  0.00    +0.028 C 
ATOM     18  C   UNL     1       2.959 -24.066   5.262  0.00  0.00    +0.028 C 
ENDBRANCH  15  16
ENDBRANCH  12  13
TORSDOF 4
