REMARK  Name = 35R
REMARK  5 active torsions:
REMARK  status: ('A' for Active; 'I' for Inactive)
REMARK    1  A    between atoms: N3_3  and  C4_4
REMARK    2  A    between atoms: N7_7  and  C8_8
REMARK    3  A    between atoms: C13_12  and  C14_13
REMARK    4  A    between atoms: C19_18  and  C20_19
REMARK    5  A    between atoms: C20_19  and  N21_20
REMARK                            x       y       z     vdW  Elec       q    Type
REMARK                         _______ _______ _______ _____ _____    ______ ____
ROOT
ATOM      9  C   UNL     1       5.893 -13.158  57.524  0.00  0.00    +0.183 A 
ATOM     10  N   UNL     1       4.850 -13.948  57.167  0.00  0.00    -0.224 NA
ATOM     11  C   UNL     1       5.155 -14.475  55.966  0.00  0.00    +0.101 A 
ATOM     12  C   UNL     1       6.378 -14.007  55.595  0.00  0.00    +0.100 A 
ATOM     13  C   UNL     1       6.966 -14.380  54.372  0.00  0.00    +0.018 A 
ATOM     14  C   UNL     1       6.290 -15.255  53.540  0.00  0.00    -0.004 A 
ATOM     15  C   UNL     1       5.040 -15.742  53.896  0.00  0.00    -0.001 A 
ATOM     23  C   UNL     1       4.469 -15.362  55.104  0.00  0.00    +0.020 A 
ATOM     24  N   UNL     1       6.817 -13.205  56.554  0.00  0.00    -0.224 NA
ENDROOT
BRANCH   9   8
ATOM      4  C   UNL     1       5.981 -11.811  59.608  0.00  0.00    +0.118 A 
ATOM      5  C   UNL     1       5.293 -11.546  60.757  0.00  0.00    +0.140 A 
ATOM      6  N   UNL     1       4.182 -12.286  60.723  0.00  0.00    -0.145 NA
ATOM      7  N   UNL     1       4.172 -13.025  59.539  0.00  0.00    -0.143 NA
ATOM      8  C   UNL     1       5.282 -12.715  58.875  0.00  0.00    +0.155 A 
BRANCH   4   3
ATOM      1  O   UNL     1       7.224  -9.204  60.055  0.00  0.00    -0.249 OA
ATOM      2  C   UNL     1       7.792  -9.974  59.357  0.00  0.00    +0.344 C 
ATOM      3  N   UNL     1       7.250 -11.307  59.091  0.00  0.00    -0.158 NA
ATOM     25  N   UNL     1       9.074  -9.634  58.727  0.00  0.00    -0.189 NA
BRANCH  25  26
ATOM     26  C   UNL     1       9.732 -10.637  57.864  0.00  0.00    +0.097 C 
ATOM     27  C   UNL     1       8.955 -11.023  56.600  0.00  0.00    +0.024 C 
ATOM     28  C   UNL     1      10.202 -10.144  56.492  0.00  0.00    +0.024 C 
ENDBRANCH  25  26
ENDBRANCH   4   3
ENDBRANCH   9   8
BRANCH  14  16
ATOM     16  C   UNL     1       6.642 -15.858  52.154  0.00  0.00    +0.099 C 
BRANCH  16  17
ATOM     17  N   UNL     1       8.040 -16.343  51.942  0.00  0.00    -0.265 NA
ATOM     18  C   UNL     1       8.912 -16.597  53.066  0.00  0.00    +0.105 C 
ATOM     19  C   UNL     1       9.263 -18.080  53.262  0.00  0.00    +0.160 C 
ATOM     20  O   UNL     1       8.168 -18.961  52.993  0.00  0.00    -0.351 OA
ATOM     21  C   UNL     1       7.539 -18.733  51.726  0.00  0.00    +0.160 C 
ATOM     22  C   UNL     1       8.012 -17.445  51.032  0.00  0.00    +0.105 C 
ENDBRANCH  16  17
ENDBRANCH  14  16
TORSDOF 5
