REMARK  Name = F8B
REMARK  8 active torsions:
REMARK  status: ('A' for Active; 'I' for Inactive)
REMARK    1  A    between atoms: C1_1  and  C3_3
REMARK    2  A    between atoms: C7_4  and  N3_26
REMARK    3  A    between atoms: C10_7  and  O1_27
REMARK    4  A    between atoms: C13_10  and  O1_27
REMARK    5  A    between atoms: C16_13  and  O3_33
REMARK    6  A    between atoms: C6_19  and  C5_20
REMARK    7  A    between atoms: C5_20  and  N_21
REMARK    8  A    between atoms: C17_31  and  O2_32
REMARK                            x       y       z     vdW  Elec       q    Type
REMARK                         _______ _______ _______ _____ _____    ______ ____
ROOT
ATOM     10  C   UNL     1      13.434   0.516   7.654  0.00  0.00    +0.074 A 
ATOM     11  C   UNL     1      14.054   0.581   8.902  0.00  0.00    +0.020 A 
ATOM     12  C   UNL     1      13.390   0.149  10.037  0.00  0.00    +0.039 A 
ATOM     13  C   UNL     1      12.100  -0.354   9.930  0.00  0.00    +0.147 A 
ATOM     29  C   UNL     1      11.474  -0.426   8.689  0.00  0.00    +0.039 A 
ATOM     30  C   UNL     1      12.140   0.009   7.557  0.00  0.00    +0.020 A 
ENDROOT
BRANCH  10   9
ATOM      7  C   UNL     1      15.405   0.687   6.233  0.00  0.00    +0.271 C 
ATOM      8  O   UNL     1      16.138   0.121   7.043  0.00  0.00    -0.271 OA
ATOM      9  N   UNL     1      14.085   0.920   6.464  0.00  0.00    -0.177 NA
BRANCH   7   6
ATOM      6  C   UNL     1      15.934   1.171   4.892  0.00  0.00    +0.216 C 
BRANCH   6   5
ATOM      3  C   UNL     1      19.175  -0.341   4.646  0.00  0.00    +0.101 A 
ATOM      4  C   UNL     1      17.827  -0.506   4.716  0.00  0.00    +0.114 A 
ATOM      5  N   UNL     1      17.324   0.742   4.791  0.00  0.00    -0.221 N 
ATOM     31  N   UNL     1      18.304   1.656   4.772  0.00  0.00    -0.064 NA
ATOM     32  N   UNL     1      19.438   1.001   4.682  0.00  0.00    -0.133 NA
BRANCH   3   1
ATOM      1  C   UNL     1      20.250  -1.399   4.543  0.00  0.00    +0.044 C 
ATOM      2  C   UNL     1      21.395  -1.134   5.501  0.00  0.00    +0.006 C 
ATOM     33  C   UNL     1      20.773  -1.500   3.129  0.00  0.00    +0.006 C 
ENDBRANCH   3   1
ENDBRANCH   6   5
ENDBRANCH   7   6
ENDBRANCH  10   9
BRANCH  13  14
ATOM     14  O   UNL     1      11.430  -0.794  11.067  0.00  0.00    -0.436 OA
BRANCH  14  15
ATOM     15  C   UNL     1      11.212  -2.145  11.223  0.00  0.00    +0.233 A 
ATOM     16  C   UNL     1      10.704  -2.599  12.486  0.00  0.00    +0.074 A 
ATOM     17  C   UNL     1      10.410  -1.766  13.601  0.00  0.00    +0.046 A 
ATOM     18  C   UNL     1       9.934  -2.305  14.763  0.00  0.00    +0.173 A 
ATOM     21  C   UNL     1       9.718  -3.707  14.866  0.00  0.00    +0.174 A 
ATOM     24  C   UNL     1       9.997  -4.530  13.806  0.00  0.00    +0.059 A 
ATOM     25  C   UNL     1      10.490  -3.997  12.592  0.00  0.00    +0.091 A 
ATOM     26  N   UNL     1      10.752  -4.863  11.559  0.00  0.00    -0.224 NA
ATOM     27  C   UNL     1      11.221  -4.290  10.450  0.00  0.00    +0.202 A 
ATOM     28  N   UNL     1      11.463  -2.986  10.224  0.00  0.00    -0.189 NA
BRANCH  18  19
ATOM     19  O   UNL     1       9.619  -1.592  15.889  0.00  0.00    -0.468 OA
ATOM     20  C   UNL     1       9.941  -0.198  15.912  0.00  0.00    +0.253 C 
ENDBRANCH  18  19
BRANCH  21  22
ATOM     22  O   UNL     1       9.237  -4.123  16.078  0.00  0.00    -0.468 OA
ATOM     23  C   UNL     1       8.908  -5.506  16.231  0.00  0.00    +0.253 C 
ENDBRANCH  21  22
ENDBRANCH  14  15
ENDBRANCH  13  14
TORSDOF 8
