REMARK  Name = 5D1
REMARK  9 active torsions:
REMARK  status: ('A' for Active; 'I' for Inactive)
REMARK    1  A    between atoms: CBA_7  and  CAZ_8
REMARK    2  A    between atoms: CAZ_8  and  NAW_9
REMARK    3  A    between atoms: CAT_14  and  CBH_15
REMARK    4  A    between atoms: CBH_15  and  NAR_16
REMARK    5  A    between atoms: CAQ_17  and  CAP_19
REMARK    6  A    between atoms: CAP_19  and  CAO_20
REMARK    7  A    between atoms: CAO_20  and  CAN_21
REMARK    8  A    between atoms: CAN_21  and  OAM_22
REMARK    9  A    between atoms: OAM_22  and  CAJ_23
REMARK                            x       y       z     vdW  Elec       q    Type
REMARK                         _______ _______ _______ _____ _____    ______ ____
ROOT
ATOM     11  N   UNL     1     -10.638 -11.883   5.262  0.00  0.00    -0.205 NA
ATOM     12  C   UNL     1     -11.030 -10.616   4.976  0.00  0.00    +0.241 C 
ATOM     13  O   UNL     1     -10.151  -9.755   5.132  0.00  0.00    -0.273 OA
ENDROOT
BRANCH  11  10
ATOM     10  C   UNL     1     -11.426 -13.136   5.230  0.00  0.00    +0.115 C 
BRANCH  10   9
ATOM      6  N   UNL     1      -9.056 -16.572   4.355  0.00  0.00    -0.269 NA
ATOM      7  C   UNL     1     -10.096 -16.806   5.399  0.00  0.00    +0.072 C 
ATOM      8  C   UNL     1     -11.115 -15.677   5.425  0.00  0.00    +0.019 C 
ATOM      9  C   UNL     1     -10.392 -14.302   5.197  0.00  0.00    +0.025 C 
ATOM     30  C   UNL     1      -9.574 -14.232   3.863  0.00  0.00    +0.019 C 
ATOM     31  C   UNL     1      -9.420 -15.620   3.278  0.00  0.00    +0.072 C 
BRANCH   6   5
ATOM      5  C   UNL     1      -8.452 -17.826   3.775  0.00  0.00    +0.099 C 
BRANCH   5   4
ATOM      1  C   UNL     1     -11.806 -21.321   3.287  0.00  0.00    +0.031 C 
ATOM      2  C   UNL     1     -11.003 -20.350   2.698  0.00  0.00    -0.022 A 
ATOM      3  C   UNL     1     -10.154 -19.583   3.505  0.00  0.00    -0.007 A 
ATOM      4  C   UNL     1      -9.327 -18.575   2.948  0.00  0.00    -0.006 A 
ATOM     32  C   UNL     1      -9.353 -18.373   1.542  0.00  0.00    -0.003 A 
ATOM     33  C   UNL     1     -10.213 -19.140   0.725  0.00  0.00    -0.001 A 
ATOM     34  C   UNL     1     -11.021 -20.130   1.305  0.00  0.00    -0.004 A 
ENDBRANCH   5   4
ENDBRANCH   6   5
ENDBRANCH  10   9
ENDBRANCH  11  10
BRANCH  12  14
ATOM     14  C   UNL     1     -12.499 -10.278   4.376  0.00  0.00    +0.091 C 
BRANCH  14  15
ATOM     15  C   UNL     1     -12.982  -8.915   4.924  0.00  0.00    +0.057 C 
BRANCH  15  16
ATOM     16  C   UNL     1     -13.603  -7.995   3.848  0.00  0.00    +0.206 C 
BRANCH  16  17
ATOM     17  O   UNL     1     -12.552  -7.737   2.857  0.00  0.00    -0.475 OA
BRANCH  17  18
ATOM     18  C   UNL     1     -12.649  -6.817   1.814  0.00  0.00    +0.145 C 
ATOM     19  C   UNL     1     -13.803  -6.059   1.463  0.00  0.00    +0.098 C 
ATOM     20  C   UNL     1     -13.787  -5.138   0.374  0.00  0.00    +0.264 C 
ATOM     21  O   UNL     1     -14.799  -4.457   0.093  0.00  0.00    -0.267 OA
ATOM     22  N   UNL     1     -12.646  -4.991  -0.324  0.00  0.00    -0.293 N 
ATOM     23  C   UNL     1     -11.469  -5.650   0.004  0.00  0.00    +0.065 A 
ATOM     24  C   UNL     1     -10.309  -5.516  -0.795  0.00  0.00    +0.017 A 
ATOM     25  C   UNL     1      -9.168  -6.216  -0.469  0.00  0.00    +0.002 A 
ATOM     26  C   UNL     1      -9.146  -7.081   0.611  0.00  0.00    +0.000 A 
ATOM     27  C   UNL     1     -10.274  -7.275   1.380  0.00  0.00    +0.004 A 
ATOM     28  C   UNL     1     -12.618  -4.001  -1.442  0.00  0.00    +0.134 C 
ATOM     29  C   UNL     1     -11.461  -6.610   1.060  0.00  0.00    +0.050 A 
ENDBRANCH  17  18
ENDBRANCH  16  17
ENDBRANCH  15  16
ENDBRANCH  14  15
ENDBRANCH  12  14
TORSDOF 9
