REMARK  Name = 4FR4
REMARK  5 active torsions:
REMARK  status: ('A' for Active; 'I' for Inactive)
REMARK    1  A    between atoms: C_4  and  N_34
REMARK    2  A    between atoms: C_5  and  O_32
REMARK    3  A    between atoms: C_6  and  C_7
REMARK    4  A    between atoms: O_32  and  C_33
REMARK    5  A    between atoms: N_34  and  C_35
REMARK                            x       y       z     vdW  Elec       q    Type
REMARK                         _______ _______ _______ _____ _____    ______ ____
ROOT
ATOM      1  O   UNL     1     -67.551 177.108 -82.862  0.00  0.00    -0.328 OA
ATOM      2  C   UNL     1     -66.137 176.836 -82.888  0.00  0.00    +0.174 C 
ATOM      3  N   UNL     1     -65.787 175.896 -81.793  0.00  0.00    -0.307 N 
ATOM      4  C   UNL     1     -64.759 174.981 -81.903  0.00  0.00    +0.053 A 
ATOM      5  C   UNL     1     -63.870 174.548 -82.888  0.00  0.00    +0.026 A 
ATOM      6  C   UNL     1     -62.958 173.533 -82.598  0.00  0.00    +0.002 A 
ATOM      7  C   UNL     1     -62.927 172.925 -81.330  0.00  0.00    +0.001 A 
ATOM      8  C   UNL     1     -63.813 173.324 -80.327  0.00  0.00    +0.010 A 
ATOM      9  C   UNL     1     -64.726 174.318 -80.613  0.00  0.00    +0.008 A 
ATOM     10  C   UNL     1     -65.737 174.890 -79.785  0.00  0.00    +0.019 A 
ATOM     11  C   UNL     1     -66.163 174.709 -78.349  0.00  0.00    +0.013 A 
ATOM     12  C   UNL     1     -65.728 173.795 -77.329  0.00  0.00    +0.110 C 
ATOM     13  N   UNL     1     -66.596 174.166 -76.174  0.00  0.00    -0.184 NA
ATOM     14  C   UNL     1     -67.417 175.190 -76.476  0.00  0.00    +0.269 C 
ATOM     15  O   UNL     1     -68.314 175.635 -75.691  0.00  0.00    -0.268 OA
ATOM     16  C   UNL     1     -67.255 175.538 -77.888  0.00  0.00    +0.058 A 
ATOM     17  C   UNL     1     -67.868 176.616 -78.685  0.00  0.00    +0.022 A 
ATOM     18  C   UNL     1     -68.941 177.523 -78.515  0.00  0.00    +0.009 A 
ATOM     19  C   UNL     1     -69.645 177.827 -77.379  0.00  0.00    +0.010 A 
ATOM     20  C   UNL     1     -70.590 178.832 -77.473  0.00  0.00    +0.001 A 
ATOM     21  C   UNL     1     -70.792 179.542 -78.683  0.00  0.00    +0.002 A 
ATOM     22  C   UNL     1     -70.049 179.245 -79.840  0.00  0.00    +0.026 A 
ATOM     23  C   UNL     1     -69.094 178.260 -79.786  0.00  0.00    +0.052 A 
ATOM     24  N   UNL     1     -68.133 177.805 -80.666  0.00  0.00    -0.312 N 
ATOM     25  C   UNL     1     -67.417 176.802 -80.028  0.00  0.00    +0.077 A 
ATOM     26  C   UNL     1     -66.377 175.904 -80.581  0.00  0.00    +0.077 A 
ATOM     27  C   UNL     1     -65.890 176.180 -84.266  0.00  0.00    +0.069 C 
ATOM     28  C   UNL     1     -65.258 178.098 -82.724  0.00  0.00    +0.187 C 
ATOM     31  C   UNL     1     -66.009 179.292 -83.218  0.00  0.00    +0.091 C 
ATOM     35  C   UNL     1     -67.237 179.496 -82.338  0.00  0.00    +0.076 C 
ATOM     36  C   UNL     1     -68.015 178.225 -82.097  0.00  0.00    +0.224 C 
ENDROOT
BRANCH  31  32
ATOM     32  N   UNL     1     -65.161 180.513 -83.168  0.00  0.00    -0.314 NA
ATOM     33  H   UNL     1     -64.453 180.429 -83.966  0.00  0.00    +0.122 HD
ATOM     34  C   UNL     1     -65.768 181.833 -83.283  0.00  0.00    +0.101 C 
ENDBRANCH  31  32
BRANCH  28  29
ATOM     29  O   UNL     1     -64.954 178.373 -81.342  0.00  0.00    -0.374 OA
ATOM     30  C   UNL     1     -63.670 177.942 -80.866  0.00  0.00    +0.194 C 
ENDBRANCH  28  29
TORSDOF 2
