REMARK  Name = 82Y
REMARK  3 active torsions:
REMARK  status: ('A' for Active; 'I' for Inactive)
REMARK    1  A    between atoms: C17_3  and  N21_23
REMARK    2  A    between atoms: C03_8  and  C05_10
REMARK    3  A    between atoms: C08_13  and  C11_15
REMARK                            x       y       z     vdW  Elec       q    Type
REMARK                         _______ _______ _______ _____ _____    ______ ____
ROOT
ATOM      4  C   UNL     1      25.973 -14.835  -2.604  0.00  0.00    +0.041 A 
ATOM      5  C   UNL     1      25.092 -15.151  -1.488  0.00  0.00    +0.039 A 
ATOM      6  S   UNL     1      25.422 -16.672  -0.965  0.00  0.00    -0.081 S 
ATOM      7  C   UNL     1      26.624 -17.114  -1.970  0.00  0.00    +0.098 A 
ATOM      8  C   UNL     1      27.391 -18.358  -2.059  0.00  0.00    +0.187 C 
ATOM      9  O   UNL     1      27.069 -19.307  -1.425  0.00  0.00    -0.290 OA
ATOM     10  C   UNL     1      28.538 -18.421  -2.918  0.00  0.00    +0.131 C 
ATOM     11  C   UNL     1      28.866 -17.273  -3.838  0.00  0.00    +0.236 C 
ATOM     12  O   UNL     1      27.963 -16.123  -3.944  0.00  0.00    -0.463 OA
ATOM     19  C   UNL     1      26.904 -16.028  -2.887  0.00  0.00    +0.149 A 
ENDROOT
BRANCH   4   3
ATOM      1  C   UNL     1      27.325 -11.782  -4.393  0.00  0.00    +0.002 A 
ATOM      2  C   UNL     1      27.249 -12.970  -3.686  0.00  0.00    +0.000 A 
ATOM      3  C   UNL     1      26.014 -13.523  -3.386  0.00  0.00    +0.003 A 
ATOM     20  C   UNL     1      24.844 -12.896  -3.795  0.00  0.00    +0.000 A 
ATOM     21  C   UNL     1      24.919 -11.704  -4.501  0.00  0.00    +0.002 A 
ATOM     22  C   UNL     1      26.160 -11.151  -4.800  0.00  0.00    +0.023 A 
BRANCH  22  23
ATOM     23  C   UNL     1      26.249  -9.838  -5.581  0.00  0.00    +0.110 C 
ATOM     24  N   UNL     1      27.539  -9.197  -5.790  0.00  0.00    -0.198 NA
ATOM     25  O   UNL     1      27.614  -7.990  -6.508  0.00  0.00    -0.402 OA
ATOM     26  O   UNL     1      25.260  -9.346  -6.013  0.00  0.00    -0.536 OA
ENDBRANCH  22  23
ENDBRANCH   4   3
BRANCH  11  13
ATOM     13  N   UNL     1      30.224 -17.084  -4.310  0.00  0.00    -0.235 NA
ATOM     14  C   UNL     1      31.307 -18.050  -4.121  0.00  0.00    +0.107 C 
ATOM     15  C   UNL     1      32.253 -18.169  -5.311  0.00  0.00    +0.160 C 
ATOM     16  O   UNL     1      32.689 -16.940  -5.771  0.00  0.00    -0.351 OA
ATOM     17  C   UNL     1      31.632 -16.135  -6.156  0.00  0.00    +0.160 C 
ATOM     18  C   UNL     1      30.660 -15.872  -5.009  0.00  0.00    +0.107 C 
ENDBRANCH  11  13
TORSDOF 3
