REMARK  Name = 446
REMARK  9 active torsions:
REMARK  status: ('A' for Active; 'I' for Inactive)
REMARK    1  A    between atoms: C10_4  and  C15_7
REMARK    2  A    between atoms: N12_5  and  C16_15
REMARK    3  A    between atoms: C17_8  and  C11_13
REMARK    4  A    between atoms: C17_8  and  O18_16
REMARK    5  A    between atoms: C16_15  and  C25_20
REMARK    6  A    between atoms: C40_27  and  N47_30
REMARK    7  A    between atoms: C48_31  and  C49_32
REMARK    8  A    between atoms: C49_32  and  C50_33
REMARK    9  A    between atoms: C50_33  and  C53_34
REMARK                            x       y       z     vdW  Elec       q    Type
REMARK                         _______ _______ _______ _____ _____    ______ ____
ROOT
ATOM      1  C   UNL     1      19.392  -8.844  85.781  0.00  0.00    +0.106 A 
ATOM      2  C   UNL     1      19.799  -7.709  86.606  0.00  0.00    +0.009 A 
ATOM      3  C   UNL     1      21.182  -7.667  87.095  0.00  0.00    +0.000 A 
ATOM      4  C   UNL     1      22.098  -8.759  86.757  0.00  0.00    +0.000 A 
ATOM      5  C   UNL     1      21.699  -9.903  85.930  0.00  0.00    +0.001 A 
ATOM      6  C   UNL     1      20.316  -9.917  85.453  0.00  0.00    +0.015 A 
ATOM      7  C   UNL     1      19.850 -10.983  84.587  0.00  0.00    +0.070 C 
ATOM      8  C   UNL     1      18.468 -10.998  84.155  0.00  0.00    +0.298 C 
ATOM      9  N   UNL     1      17.553  -9.994  84.579  0.00  0.00    -0.101 N 
ATOM     35  C   UNL     1      17.960  -8.937  85.277  0.00  0.00    +0.418 C 
ATOM     36  O   UNL     1      17.151  -8.043  85.541  0.00  0.00    -0.214 OA
ENDROOT
BRANCH   7  29
ATOM     29  C   UNL     1      20.754 -12.012  84.111  0.00  0.00    +0.006 A 
ATOM     30  C   UNL     1      21.022 -13.172  84.961  0.00  0.00    +0.000 A 
ATOM     31  C   UNL     1      21.964 -14.191  84.480  0.00  0.00    +0.000 A 
ATOM     32  C   UNL     1      22.612 -14.039  83.159  0.00  0.00    +0.000 A 
ATOM     33  C   UNL     1      22.314 -12.851  82.324  0.00  0.00    +0.000 A 
ATOM     34  C   UNL     1      21.371 -11.828  82.803  0.00  0.00    +0.000 A 
ENDBRANCH   7  29
BRANCH   8  25
ATOM     25  C   UNL     1      18.019 -12.085  83.201  0.00  0.00    +0.405 C 
ATOM     28  O   UNL     1      17.822 -11.804  81.991  0.00  0.00    -0.238 OA
BRANCH  25  26
ATOM     26  O   UNL     1      17.840 -13.255  83.617  0.00  0.00    -0.437 OA
ATOM     27  C   UNL     1      17.377 -14.100  82.688  0.00  0.00    +0.256 C 
ENDBRANCH  25  26
ENDBRANCH   8  25
BRANCH   9  10
ATOM     10  C   UNL     1      16.126 -10.068  84.214  0.00  0.00    +0.345 C 
BRANCH  10  11
ATOM     11  C   UNL     1      15.275 -10.953  85.118  0.00  0.00    +0.055 A 
ATOM     12  C   UNL     1      14.697 -10.387  86.343  0.00  0.00    +0.004 A 
ATOM     13  C   UNL     1      13.750 -11.203  87.120  0.00  0.00    +0.016 A 
ATOM     14  C   UNL     1      13.427 -12.555  86.643  0.00  0.00    +0.073 A 
ATOM     23  C   UNL     1      14.026 -13.110  85.435  0.00  0.00    +0.016 A 
ATOM     24  C   UNL     1      14.965 -12.308  84.660  0.00  0.00    +0.004 A 
BRANCH  14  15
ATOM     15  N   UNL     1      12.415 -13.333  87.268  0.00  0.00    -0.179 NA
ATOM     16  C   UNL     1      12.476 -13.580  88.579  0.00  0.00    +0.246 C 
ATOM     17  O   UNL     1      13.021 -12.783  89.342  0.00  0.00    -0.273 OA
BRANCH  16  18
ATOM     18  C   UNL     1      11.812 -14.861  89.069  0.00  0.00    +0.099 C 
BRANCH  18  19
ATOM     19  C   UNL     1      11.398 -14.815  90.549  0.00  0.00    +0.124 C 
BRANCH  19  20
ATOM     20  C   UNL     1      10.618 -16.050  90.996  0.00  0.00    +0.365 C 
ATOM     21  O   UNL     1      10.006 -16.041  92.068  0.00  0.00    -0.246 OA
ATOM     22  O   UNL     1      10.614 -17.069  90.254  0.00  0.00    -0.246 OA
ENDBRANCH  19  20
ENDBRANCH  18  19
ENDBRANCH  16  18
ENDBRANCH  14  15
ENDBRANCH  10  11
ENDBRANCH   9  10
TORSDOF 9
