REMARK  Name = N1D
REMARK  5 active torsions:
REMARK  status: ('A' for Active; 'I' for Inactive)
REMARK    1  A    between atoms: O05_2  and  C06_3
REMARK    2  A    between atoms: C11_6  and  C20_11
REMARK    3  A    between atoms: C14_8  and  O15_9
REMARK    4  A    between atoms: C33_19  and  C36_22
REMARK    5  A    between atoms: N45_27  and  S52_30
REMARK                            x       y       z     vdW  Elec       q    Type
REMARK                         _______ _______ _______ _____ _____    ______ ____
ROOT
ATOM      7  C   UNL     1      26.360  50.478   0.294  0.00  0.00    +0.024 C 
ATOM      8  C   UNL     1      25.918  49.462   1.071  0.00  0.00    +0.079 C 
ATOM      9  N   UNL     1      24.680  48.935   0.976  0.00  0.00    -0.292 N 
ATOM     10  C   UNL     1      24.289  47.826   1.847  0.00  0.00    +0.134 C 
ATOM     11  C   UNL     1      23.734  49.395   0.060  0.00  0.00    +0.261 C 
ATOM     12  O   UNL     1      22.592  48.889   0.047  0.00  0.00    -0.267 OA
ATOM     13  C   UNL     1      24.121  50.525  -0.799  0.00  0.00    +0.063 A 
ATOM     14  C   UNL     1      23.401  51.225  -1.824  0.00  0.00    +0.016 A 
ATOM     15  C   UNL     1      24.126  52.226  -2.422  0.00  0.00    +0.083 A 
ATOM     16  S   UNL     1      25.726  52.325  -1.774  0.00  0.00    -0.082 S 
ATOM     29  C   UNL     1      25.429  51.024  -0.663  0.00  0.00    +0.036 A 
ENDROOT
BRANCH  15  17
ATOM     17  C   UNL     1      24.015  53.260  -3.511  0.00  0.00    +0.255 C 
ATOM     18  O   UNL     1      25.004  53.934  -3.762  0.00  0.00    -0.269 OA
ATOM     19  N   UNL     1      22.876  53.390  -4.232  0.00  0.00    -0.273 N 
ATOM     20  C   UNL     1      21.576  52.737  -4.159  0.00  0.00    +0.113 C 
ATOM     21  C   UNL     1      20.510  53.755  -3.814  0.00  0.00    +0.117 C 
ATOM     22  N   UNL     1      20.491  54.831  -4.822  0.00  0.00    -0.156 NA
ATOM     27  C   UNL     1      21.822  55.458  -5.010  0.00  0.00    +0.117 C 
ATOM     28  C   UNL     1      22.850  54.389  -5.307  0.00  0.00    +0.113 C 
BRANCH  22  23
ATOM     23  S   UNL     1      19.237  55.866  -4.688  0.00  0.00    +0.046 S 
ATOM     24  O   UNL     1      19.434  56.602  -3.482  0.00  0.00    -0.157 OA
ATOM     25  O   UNL     1      18.045  55.095  -4.822  0.00  0.00    -0.157 OA
ATOM     26  C   UNL     1      19.325  56.982  -6.036  0.00  0.00    +0.196 C 
ENDBRANCH  22  23
ENDBRANCH  15  17
BRANCH   7   6
ATOM      3  C   UNL     1      30.313  51.966   0.922  0.00  0.00    +0.172 A 
ATOM      4  C   UNL     1      29.572  51.493   1.990  0.00  0.00    +0.040 A 
ATOM      5  C   UNL     1      28.295  51.016   1.775  0.00  0.00    +0.003 A 
ATOM      6  C   UNL     1      27.735  51.004   0.498  0.00  0.00    +0.005 A 
ATOM     30  C   UNL     1      28.486  51.459  -0.577  0.00  0.00    +0.040 A 
ATOM     31  C   UNL     1      29.752  51.969  -0.370  0.00  0.00    +0.172 A 
BRANCH   3   2
ATOM      1  C   UNL     1      32.159  52.545   2.332  0.00  0.00    +0.253 C 
ATOM      2  O   UNL     1      31.581  52.469   1.026  0.00  0.00    -0.468 OA
ENDBRANCH   3   2
BRANCH  31  32
ATOM     32  O   UNL     1      30.542  52.457  -1.370  0.00  0.00    -0.468 OA
ATOM     33  C   UNL     1      30.226  52.045  -2.696  0.00  0.00    +0.253 C 
ENDBRANCH  31  32
ENDBRANCH   7   6
TORSDOF 5
