REMARK  Name = A5ID
REMARK  0 active torsions:
REMARK  status: ('A' for Active; 'I' for Inactive)
REMARK                            x       y       z     vdW  Elec       q    Type
REMARK                         _______ _______ _______ _____ _____    ______ ____
ROOT
ATOM      1  N   UNL     1      36.455  45.203  77.750  0.00  0.00    -0.034 NA
ATOM      2  C   UNL     1      36.449  44.976  79.080  0.00  0.00    +0.232 C 
ATOM      3  C   UNL     1      36.360  43.648  79.318  0.00  0.00    +0.049 C 
ATOM      4  C   UNL     1      36.269  42.989  78.078  0.00  0.00    +0.251 C 
ATOM      5  C   UNL     1      36.153  41.659  77.620  0.00  0.00    +0.411 C 
ATOM      6  N   UNL     1      36.022  40.626  78.432  0.00  0.00    +0.212 NA
ATOM      7  N   UNL     1      36.150  41.447  76.292  0.00  0.00    +0.018 NA
ATOM      8  C   UNL     1      36.231  42.497  75.487  0.00  0.00    +0.472 C 
ATOM      9  N   UNL     1      36.323  43.781  75.802  0.00  0.00    +0.016 NA
ATOM     10  C   UNL     1      36.343  43.994  77.114  0.00  0.00    +0.372 C 
ENDROOT
TORSDOF 0
