REMARK  Name = 54E
REMARK  4 active torsions:
REMARK  status: ('A' for Active; 'I' for Inactive)
REMARK    1  A    between atoms: C4_4  and  C7_10
REMARK    2  A    between atoms: C1_7  and  C_8
REMARK    3  A    between atoms: C4_19  and  C7_25
REMARK    4  A    between atoms: C1_22  and  C_23
REMARK                            x       y       z     vdW  Elec       q    Type
REMARK                         _______ _______ _______ _____ _____    ______ ____
ROOT
ATOM      1 CL   UNL     1      -4.826 166.500 397.491  0.00  0.00    -0.082 Cl
ATOM      2  C   UNL     1      -3.610 167.099 398.566  0.00  0.00    +0.057 A 
ATOM      3  C   UNL     1      -3.962 168.023 399.545  0.00  0.00    +0.011 A 
ATOM      4  C   UNL     1      -2.935 168.562 400.327  0.00  0.00    +0.001 A 
ATOM      5  C   UNL     1      -1.620 168.173 400.127  0.00  0.00    -0.003 A 
ATOM      6  C   UNL     1      -1.284 167.229 399.163  0.00  0.00    -0.002 A 
ATOM     15  C   UNL     1      -2.301 166.698 398.379  0.00  0.00    +0.009 A 
ENDROOT
BRANCH   3   9
ATOM      9  C   UNL     1      -5.378 168.434 399.764  0.00  0.00    +0.001 A 
ATOM     10  C   UNL     1      -6.326 167.514 400.221  0.00  0.00    +0.000 A 
ATOM     11  C   UNL     1      -7.669 167.855 400.292  0.00  0.00    +0.000 A 
ATOM     12  C   UNL     1      -8.085 169.122 399.931  0.00  0.00    +0.000 A 
ATOM     13  C   UNL     1      -7.157 170.051 399.499  0.00  0.00    +0.000 A 
ATOM     14  C   UNL     1      -5.815 169.712 399.413  0.00  0.00    +0.000 A 
ENDBRANCH   3   9
BRANCH   6   7
ATOM      7  C   UNL     1       0.154 166.775 399.037  0.00  0.00    +0.136 C 
ATOM      8  N   UNL     1       0.663 166.451 397.705  0.00  0.00    -0.126 NA
ENDBRANCH   6   7
TORSDOF 2
