REMARK  Name = 3SA0
REMARK  4 active torsions:
REMARK  status: ('A' for Active; 'I' for Inactive)
REMARK    1  A    between atoms: C_2  and  O_15
REMARK    2  A    between atoms: O_4  and  C_5
REMARK    3  A    between atoms: C_7  and  O_8
REMARK    4  A    between atoms: C_13  and  O_14
REMARK                            x       y       z     vdW  Elec       q    Type
REMARK                         _______ _______ _______ _____ _____    ______ ____
ROOT
ATOM      1  C   UNL     1     -14.887  11.629  40.097  0.00  0.00    +0.064 A 
ATOM      2  C   UNL     1     -16.018  10.697  40.199  0.00  0.00    +0.159 A 
ATOM      5  C   UNL     1     -17.127  11.026  40.828  0.00  0.00    +0.162 A 
ATOM      8  C   UNL     1     -17.238  12.333  41.431  0.00  0.00    +0.096 A 
ATOM      9  C   UNL     1     -16.180  13.214  41.342  0.00  0.00    +0.143 A 
ATOM     10  O   UNL     1     -16.340  14.470  41.942  0.00  0.00    -0.454 OA
ATOM     11  C   UNL     1     -15.379  15.350  41.892  0.00  0.00    +0.146 A 
ATOM     12  C   UNL     1     -15.562  16.577  42.493  0.00  0.00    +0.092 A 
ATOM     13  C   UNL     1     -14.542  17.521  42.450  0.00  0.00    +0.124 A 
ATOM     14  C   UNL     1     -13.331  17.224  41.798  0.00  0.00    +0.091 A 
ATOM     15  C   UNL     1     -13.144  15.979  41.185  0.00  0.00    +0.135 A 
ATOM     20  C   UNL     1     -14.155  15.040  41.222  0.00  0.00    +0.106 A 
ATOM     21  C   UNL     1     -13.982  13.848  40.636  0.00  0.00    +0.204 C 
ATOM     22  O   UNL     1     -12.925  13.611  40.048  0.00  0.00    -0.286 OA
ATOM     23  C   UNL     1     -15.019  12.892  40.689  0.00  0.00    +0.068 A 
ENDROOT
BRANCH   2   3
ATOM      3  O   UNL     1     -15.936   9.451  39.665  0.00  0.00    -0.503 OA
ATOM      4  H   UNL     1     -15.767   9.523  38.631  0.00  0.00    +0.292 HD
ENDBRANCH   2   3
BRANCH   5   6
ATOM      6  O   UNL     1     -18.208  10.184  40.881  0.00  0.00    -0.503 OA
ATOM      7  H   UNL     1     -18.456   9.995  41.884  0.00  0.00    +0.292 HD
ENDBRANCH   5   6
BRANCH  15  16
ATOM     16  O   UNL     1     -11.958  15.677  40.556  0.00  0.00    -0.506 OA
ATOM     17  H   UNL     1     -11.789  16.363  39.779  0.00  0.00    +0.292 HD
ENDBRANCH  15  16
BRANCH  13  18
ATOM     18  O   UNL     1     -14.726  18.734  43.071  0.00  0.00    -0.506 OA
ATOM     19  H   UNL     1     -14.004  18.855  43.824  0.00  0.00    +0.292 HD
ENDBRANCH  13  18
TORSDOF 4
