REMARK  Name = AETU
REMARK  4 active torsions:
REMARK  status: ('A' for Active; 'I' for Inactive)
REMARK    1  A    between atoms: N1_6  and  C5_14
REMARK    2  A    between atoms: O1_7  and  C6_16
REMARK    3  A    between atoms: O1_7  and  C7_18
REMARK    4  A    between atoms: C5_14  and  C6_16
REMARK                            x       y       z     vdW  Elec       q    Type
REMARK                         _______ _______ _______ _____ _____    ______ ____
ROOT
ATOM      1  N   UNL     1     -40.455   9.867 140.761  0.00  0.00    +0.000 NA
ATOM      2  N   UNL     1     -39.969   9.263 139.588  0.00  0.00    +0.000 NA
ENDROOT
TORSDOF 0
