REMARK  Name = 3et7_ligand
REMARK  6 active torsions:
REMARK  status: ('A' for Active; 'I' for Inactive)
REMARK    1  A    between atoms: S30_2  and  N33_4
REMARK    2  A    between atoms: S30_2  and  C29_9
REMARK    3  A    between atoms: C24_14  and  C23_15
REMARK    4  A    between atoms: C23_15  and  N22_16
REMARK    5  A    between atoms: C5_22  and  C2_23
REMARK    6  A    between atoms: N9_27  and  C10_28
REMARK                            x       y       z     vdW  Elec       q    Type
REMARK                         _______ _______ _______ _____ _____    ______ ____
ROOT
ATOM      6  N   UNL     1      24.887  67.735  19.492  0.00  0.00    -0.274 N 
ATOM      7  H   UNL     1      25.514  67.884  20.296  0.00  0.00    +0.200 HD
ATOM      8  C   UNL     1      25.306  68.177  18.234  0.00  0.00    +0.151 A 
ATOM      9  C   UNL     1      26.430  68.950  18.045  0.00  0.00    +0.097 A 
ATOM     14  C   UNL     1      26.832  69.480  16.827  0.00  0.00    +0.147 A 
ATOM     15  N   UNL     1      26.075  69.145  15.770  0.00  0.00    -0.228 NA
ATOM     16  C   UNL     1      25.044  68.307  15.978  0.00  0.00    +0.226 A 
ATOM     17  N   UNL     1      24.230  67.969  14.963  0.00  0.00    -0.236 N 
ATOM     18  H   UNL     1      24.390  68.345  14.018  0.00  0.00    +0.227 HD
ATOM     30  N   UNL     1      24.605  67.856  17.157  0.00  0.00    -0.209 NA
ENDROOT
BRANCH  17  19
ATOM     19  C   UNL     1      23.136  67.077  15.216  0.00  0.00    +0.056 A 
ATOM     20  C   UNL     1      22.117  66.865  14.245  0.00  0.00    +0.004 A 
ATOM     21  C   UNL     1      21.075  65.985  14.442  0.00  0.00    -0.007 A 
ATOM     22  C   UNL     1      19.884  65.581  13.562  0.00  0.00    +0.199 C 
ATOM     23  C   UNL     1      19.163  64.592  14.491  0.00  0.00    +0.207 C 
ATOM     24  O   UNL     1      18.141  64.021  14.120  0.00  0.00    -0.390 OA
ATOM     25  N   UNL     1      19.858  64.462  15.707  0.00  0.00    -0.239 N 
ATOM     26  H   UNL     1      19.595  63.883  16.479  0.00  0.00    +0.223 HD
ATOM     27  C   UNL     1      20.994  65.296  15.641  0.00  0.00    +0.065 A 
ATOM     28  C   UNL     1      22.013  65.524  16.517  0.00  0.00    -0.005 A 
ATOM     29  C   UNL     1      23.075  66.397  16.379  0.00  0.00    -0.005 A 
ENDBRANCH  17  19
BRANCH   9  10
ATOM     10  C   UNL     1      27.214  69.264  19.241  0.00  0.00    +0.361 C 
ATOM     11  F   UNL     1      28.356  69.896  18.763  0.00  0.00    -0.243 F 
ATOM     12  F   UNL     1      27.671  68.124  19.925  0.00  0.00    -0.243 F 
ATOM     13  F   UNL     1      26.341  69.889  20.127  0.00  0.00    -0.243 F 
ENDBRANCH   9  10
BRANCH   6   5
ATOM      5  C   UNL     1      23.577  67.058  19.732  0.00  0.00    +0.213 C 
BRANCH   5   4
ATOM      3  C   UNL     1      23.016  64.664  20.424  0.00  0.00    +0.112 A 
ATOM      4  C   UNL     1      23.964  65.606  19.968  0.00  0.00    +0.007 A 
ATOM     31  C   UNL     1      25.263  65.128  19.790  0.00  0.00    -0.001 A 
ATOM     32  C   UNL     1      25.499  63.779  20.065  0.00  0.00    -0.009 A 
ATOM     33  C   UNL     1      24.563  62.819  20.502  0.00  0.00    -0.011 A 
ATOM     34  C   UNL     1      23.296  63.290  20.710  0.00  0.00    +0.020 A 
BRANCH   3   2
ATOM      1  O   UNL     1      21.583  66.103  21.878  0.00  0.00    -0.151 OA
ATOM      2  S   UNL     1      21.384  65.262  20.732  0.00  0.00    +0.068 S 
ATOM     40  O   UNL     1      20.837  65.576  19.462  0.00  0.00    -0.151 OA
BRANCH   2  35
ATOM     35  N   UNL     1      20.548  63.896  21.304  0.00  0.00    -0.235 NA
ATOM     36  C   UNL     1      19.581  63.067  20.513  0.00  0.00    +0.125 C 
ATOM     37  C   UNL     1      19.059  61.904  21.412  0.00  0.00    +0.022 C 
ATOM     38  C   UNL     1      19.259  62.456  22.844  0.00  0.00    +0.022 C 
ATOM     39  C   UNL     1      20.527  63.399  22.722  0.00  0.00    +0.125 C 
ENDBRANCH   2  35
ENDBRANCH   3   2
ENDBRANCH   5   4
ENDBRANCH   6   5
TORSDOF 6
