REMARK  Name = 3OMV
REMARK  4 active torsions:
REMARK  status: ('A' for Active; 'I' for Inactive)
REMARK    1  A    between atoms: C_1  and  N_2
REMARK    2  A    between atoms: C_5  and  C_17
REMARK    3  A    between atoms: C_16  and  C_20
REMARK    4  A    between atoms: N_27  and  O_28
REMARK                            x       y       z     vdW  Elec       q    Type
REMARK                         _______ _______ _______ _____ _____    ______ ____
ROOT
ATOM      8  N   UNL     1       7.385  13.971  32.871  0.00  0.00    -0.222 NA
ATOM      9  C   UNL     1       6.393  14.856  33.205  0.00  0.00    +0.143 C 
ATOM     10  C   UNL     1       6.942  16.123  33.010  0.00  0.00    -0.002 C 
ATOM     11  C   UNL     1       8.251  15.902  32.556  0.00  0.00    +0.054 C 
ATOM     30  N   UNL     1       8.504  14.629  32.484  0.00  0.00    -0.276 N 
ATOM     31  H   UNL     1       9.427  14.183  32.176  0.00  0.00    +0.167 HD
ENDROOT
BRANCH  10  18
ATOM     18  C   UNL     1       6.263  17.404  33.235  0.00  0.00    -0.018 A 
ATOM     19  C   UNL     1       6.606  18.514  32.436  0.00  0.00    +0.012 A 
ATOM     20  C   UNL     1       5.941  19.732  32.652  0.00  0.00    -0.037 A 
ATOM     21  C   UNL     1       6.183  21.001  31.894  0.00  0.00    +0.042 C 
ATOM     22  C   UNL     1       5.174  21.970  32.573  0.00  0.00    +0.064 C 
ATOM     23  C   UNL     1       4.417  21.205  33.679  0.00  0.00    +0.088 C 
ATOM     24  N   UNL     1       3.491  21.623  34.485  0.00  0.00    -0.091 NA
ATOM     27  C   UNL     1       4.961  19.854  33.636  0.00  0.00    +0.003 A 
ATOM     28  C   UNL     1       4.606  18.755  34.442  0.00  0.00    +0.010 A 
ATOM     29  C   UNL     1       5.264  17.523  34.232  0.00  0.00    +0.009 A 
BRANCH  24  25
ATOM     25  O   UNL     1       3.224  22.968  34.167  0.00  0.00    -0.409 OA
ATOM     26  H   UNL     1       4.098  23.537  34.288  0.00  0.00    +0.328 HD
ENDBRANCH  24  25
ENDBRANCH  10  18
BRANCH   8   1
ATOM      1  C   UNL     1       7.326  12.515  32.892  0.00  0.00    +0.079 C 
ATOM      2  C   UNL     1       8.519  11.839  32.179  0.00  0.00    +0.036 C 
ATOM      3  C   UNL     1       8.271  10.323  32.126  0.00  0.00    +0.082 C 
ATOM      4  N   UNL     1       8.106   9.786  33.504  0.00  0.00    -0.316 NA
ATOM      5  H   UNL     1       9.010   9.974  34.045  0.00  0.00    +0.122 HD
ATOM      6  C   UNL     1       6.977  10.374  34.273  0.00  0.00    +0.082 C 
ATOM      7  C   UNL     1       7.029  11.923  34.292  0.00  0.00    +0.036 C 
ENDBRANCH   8   1
BRANCH  11  12
ATOM     12  C   UNL     1       9.273  16.903  32.205  0.00  0.00    +0.000 A 
ATOM     13  C   UNL     1       9.799  17.788  33.171  0.00  0.00    +0.029 A 
ATOM     14  C   UNL     1      10.777  18.742  32.822  0.00  0.00    +0.111 A 
ATOM     15  N   UNL     1      11.237  18.842  31.556  0.00  0.00    -0.263 NA
ATOM     16  C   UNL     1      10.734  18.000  30.624  0.00  0.00    +0.111 A 
ATOM     17  C   UNL     1       9.755  17.017  30.887  0.00  0.00    +0.029 A 
ENDBRANCH  11  12
TORSDOF 4
