REMARK  Name = 5AMN
REMARK  7 active torsions:
REMARK  status: ('A' for Active; 'I' for Inactive)
REMARK    1  A    between atoms: C_6  and  N_11
REMARK    2  A    between atoms: C_8  and  O_19
REMARK    3  A    between atoms: C_9  and  O_21
REMARK    4  A    between atoms: N_11  and  C_12
REMARK    5  A    between atoms: C_14  and  O_18
REMARK    6  A    between atoms: O_19  and  C_20
REMARK    7  A    between atoms: O_21  and  C_22
REMARK                            x       y       z     vdW  Elec       q    Type
REMARK                         _______ _______ _______ _____ _____    ______ ____
ROOT
ATOM      1  N   UNL     1      71.314 -10.380  11.358  0.00  0.00    -0.220 NA
ATOM      2  C   UNL     1      72.365 -10.993  10.813  0.00  0.00    +0.134 A 
ATOM     13  C   UNL     1      73.702 -10.474  10.960  0.00  0.00    +0.044 A 
ATOM     14  C   UNL     1      74.866 -11.065  10.419  0.00  0.00    +0.063 A 
ATOM     15  C   UNL     1      76.101 -10.483  10.597  0.00  0.00    +0.162 A 
ATOM     18  C   UNL     1      76.211  -9.281  11.323  0.00  0.00    +0.164 A 
ATOM     21  C   UNL     1      75.091  -8.693  11.852  0.00  0.00    +0.077 A 
ATOM     22  C   UNL     1      73.818  -9.279  11.680  0.00  0.00    +0.080 A 
ATOM     23  N   UNL     1      72.718  -8.650  12.231  0.00  0.00    -0.235 NA
ATOM     24  C   UNL     1      71.565  -9.251  12.030  0.00  0.00    +0.224 A 
ENDROOT
BRANCH   2   3
ATOM      3  N   UNL     1      72.149 -12.166  10.163  0.00  0.00    -0.299 N 
ATOM      4  H   UNL     1      72.863 -12.664  10.021  0.00  0.00    +0.154 HD
BRANCH   3   5
ATOM      5  C   UNL     1      70.920 -12.736   9.773  0.00  0.00    +0.036 A 
ATOM      6  C   UNL     1      69.866 -11.952   9.337  0.00  0.00    +0.023 A 
ATOM      7  C   UNL     1      68.678 -12.550   8.966  0.00  0.00    +0.005 A 
ATOM      8  C   UNL     1      68.521 -13.920   9.040  0.00  0.00    +0.045 A 
ATOM      9  C   UNL     1      69.574 -14.704   9.484  0.00  0.00    +0.119 A 
ATOM     12  C   UNL     1      70.779 -14.113   9.844  0.00  0.00    +0.068 A 
BRANCH   9  10
ATOM     10  O   UNL     1      69.461 -16.054   9.577  0.00  0.00    -0.507 OA
ATOM     11  H   UNL     1      68.668 -16.305   9.326  0.00  0.00    +0.292 HD
ENDBRANCH   9  10
ENDBRANCH   3   5
ENDBRANCH   2   3
BRANCH  15  16
ATOM     16  O   UNL     1      77.285 -10.973  10.119  0.00  0.00    -0.491 OA
ATOM     17  C   UNL     1      77.248 -12.188   9.381  0.00  0.00    +0.277 C 
ENDBRANCH  15  16
BRANCH  18  19
ATOM     19  O   UNL     1      77.481  -8.791  11.438  0.00  0.00    -0.491 OA
ATOM     20  C   UNL     1      77.653  -7.571  12.152  0.00  0.00    +0.277 C 
ENDBRANCH  18  19
TORSDOF 5
