REMARK  Name = 4byj_ligand
REMARK  6 active torsions:
REMARK  status: ('A' for Active; 'I' for Inactive)
REMARK    1  A    between atoms: C07_7  and  C08_8
REMARK    2  A    between atoms: N10_10  and  C11_11
REMARK    3  A    between atoms: C13_13  and  C14_14
REMARK    4  A    between atoms: C17_17  and  N18_18
REMARK    5  A    between atoms: C20_20  and  N21_21
REMARK    6  A    between atoms: C22_22  and  C23_23
REMARK                            x       y       z     vdW  Elec       q    Type
REMARK                         _______ _______ _______ _____ _____    ______ ____
ROOT
ATOM      1 CL   UNL     1       3.499 -28.182  -8.724  0.00  0.00    -0.085 Cl
ATOM      2  C   UNL     1       2.528 -29.492  -8.116  0.00  0.00    +0.067 A 
ATOM      3  C   UNL     1       2.524 -29.865  -6.741  0.00  0.00    +0.076 A 
ATOM     14  C   UNL     1       1.694 -30.960  -6.348  0.00  0.00    +0.071 A 
ATOM     15  N   UNL     1       1.467 -31.569  -5.125  0.00  0.00    -0.317 NA
ATOM     16  C   UNL     1       0.572 -32.576  -5.289  0.00  0.00    +0.122 A 
ATOM     24  N   UNL     1       0.230 -32.617  -6.611  0.00  0.00    -0.245 N 
ATOM     25  H   UNL     1      -0.431 -33.279  -7.041  0.00  0.00    +0.231 HD
ATOM     26  C   UNL     1       0.927 -31.612  -7.280  0.00  0.00    +0.136 A 
ATOM     27  N   UNL     1       0.950 -31.221  -8.607  0.00  0.00    -0.305 NA
ATOM     28  C   UNL     1       1.723 -30.197  -9.023  0.00  0.00    +0.063 A 
ENDROOT
BRANCH  16  17
ATOM     17  C   UNL     1       0.106 -33.436  -4.182  0.00  0.00    +0.057 A 
ATOM     18  C   UNL     1      -0.865 -34.454  -4.207  0.00  0.00    +0.026 A 
ATOM     19  C   UNL     1      -1.685 -34.919  -5.392  0.00  0.00    +0.091 C 
ATOM     20  N   UNL     1      -0.947 -34.959  -2.960  0.00  0.00    -0.220 NA
ATOM     21  N   UNL     1      -0.048 -34.274  -2.177  0.00  0.00    -0.210 N 
ATOM     22  C   UNL     1       0.161 -34.512  -0.810  0.00  0.00    +0.241 C 
ATOM     23  C   UNL     1       0.586 -33.363  -2.892  0.00  0.00    +0.182 A 
ENDBRANCH  16  17
BRANCH   3   4
ATOM      4  N   UNL     1       3.320 -29.240  -5.717  0.00  0.00    -0.300 N 
ATOM      5  C   UNL     1       4.511 -29.705  -5.035  0.00  0.00    +0.136 C 
ATOM      6  C   UNL     1       5.026 -28.543  -4.296  0.00  0.00    +0.054 C 
ATOM      7  C   UNL     1       4.531 -27.411  -5.049  0.00  0.00    +0.122 C 
ATOM     13  C   UNL     1       3.138 -27.821  -5.426  0.00  0.00    +0.161 C 
BRANCH   7   8
ATOM      8  N   UNL     1       4.562 -26.199  -4.293  0.00  0.00    -0.282 N 
ATOM      9  H   UNL     1       3.926 -26.047  -3.536  0.00  0.00    +0.185 HD
ATOM     10  C   UNL     1       5.547 -25.192  -4.658  0.00  0.00    +0.173 C 
ATOM     11  O   UNL     1       6.321 -25.403  -5.586  0.00  0.00    -0.397 OA
ATOM     12  C   UNL     1       5.623 -23.894  -3.906  0.00  0.00    +0.166 C 
ENDBRANCH   7   8
ENDBRANCH   3   4
TORSDOF 3
