REMARK  Name = B6Z
REMARK  5 active torsions:
REMARK  status: ('A' for Active; 'I' for Inactive)
REMARK    1  A    between atoms: NBD_7  and  CAX_8
REMARK    2  A    between atoms: CAZ_10  and  OAS_11
REMARK    3  A    between atoms: CAY_15  and  NAR_16
REMARK    4  A    between atoms: CBB_22  and  CAU_23
REMARK    5  A    between atoms: CAU_23  and  CAW_25
REMARK                            x       y       z     vdW  Elec       q    Type
REMARK                         _______ _______ _______ _____ _____    ______ ____
ROOT
ATOM      8  C   UNL     1       1.457 -31.772  -8.540  0.00  0.00    +0.051 A 
ATOM      9  C   UNL     1       1.911 -30.445  -8.480  0.00  0.00    +0.016 A 
ATOM     10  C   UNL     1       3.270 -30.151  -8.662  0.00  0.00    +0.021 A 
ATOM     11  C   UNL     1       4.185 -31.184  -8.920  0.00  0.00    +0.107 A 
ATOM     12  C   UNL     1       3.727 -32.511  -8.954  0.00  0.00    +0.155 A 
ATOM     30  C   UNL     1       2.372 -32.798  -8.782  0.00  0.00    +0.053 A 
ENDROOT
BRANCH   8   7
ATOM      1  C   UNL     1      -0.261 -32.937  -7.213  0.00  0.00    +0.108 C 
ATOM      2  C   UNL     1      -1.026 -34.021  -7.831  0.00  0.00    +0.094 C 
ATOM      3  N   UNL     1      -2.323 -33.432  -8.301  0.00  0.00    -0.269 NA
ATOM      4  C   UNL     1      -3.405 -33.567  -7.296  0.00  0.00    +0.090 C 
ATOM      5  C   UNL     1      -2.305 -32.029  -8.784  0.00  0.00    +0.094 C 
ATOM      6  C   UNL     1      -0.894 -31.644  -9.293  0.00  0.00    +0.108 C 
ATOM      7  N   UNL     1       0.158 -32.086  -8.353  0.00  0.00    -0.305 N 
ENDBRANCH   8   7
BRANCH  11  15
ATOM     15  N   UNL     1       5.514 -31.023  -9.088  0.00  0.00    -0.186 NA
ATOM     16  C   UNL     1       6.064 -30.039  -9.817  0.00  0.00    +0.185 A 
ATOM     17  N   UNL     1       7.324 -29.647  -9.597  0.00  0.00    -0.204 NA
ATOM     18  C   UNL     1       7.765 -28.657 -10.397  0.00  0.00    +0.181 A 
ATOM     19  N   UNL     1       9.015 -28.220 -10.225  0.00  0.00    -0.107 NA
ATOM     20  C   UNL     1       6.859 -28.226 -11.295  0.00  0.00    +0.106 A 
ATOM     29  S   UNL     1       5.438 -29.137 -11.073  0.00  0.00    -0.045 S 
BRANCH  20  21
ATOM     21  C   UNL     1       7.117 -27.249 -12.191  0.00  0.00    +0.204 C 
ATOM     22  O   UNL     1       8.273 -26.860 -12.361  0.00  0.00    -0.286 OA
BRANCH  21  23
ATOM     23  C   UNL     1       6.098 -26.648 -12.937  0.00  0.00    +0.040 A 
ATOM     24  C   UNL     1       4.991 -26.044 -12.338  0.00  0.00    +0.003 A 
ATOM     25  C   UNL     1       4.010 -25.431 -13.120  0.00  0.00    +0.000 A 
ATOM     26  C   UNL     1       4.139 -25.396 -14.507  0.00  0.00    +0.000 A 
ATOM     27  C   UNL     1       5.254 -25.977 -15.110  0.00  0.00    +0.000 A 
ATOM     28  C   UNL     1       6.231 -26.598 -14.328  0.00  0.00    +0.003 A 
ENDBRANCH  21  23
ENDBRANCH  20  21
ENDBRANCH  11  15
BRANCH  12  13
ATOM     13  O   UNL     1       4.657 -33.490  -9.202  0.00  0.00    -0.470 OA
ATOM     14  C   UNL     1       4.724 -34.602  -8.285  0.00  0.00    +0.253 C 
ENDBRANCH  12  13
TORSDOF 5
