REMARK  Name = 4F7N
REMARK  13 active torsions:
REMARK  status: ('A' for Active; 'I' for Inactive)
REMARK    1  A    between atoms: N_3  and  C_4
REMARK    2  A    between atoms: C_4  and  C_5
REMARK    3  A    between atoms: C_5  and  C_6
REMARK    4  A    between atoms: C_6  and  C_7
REMARK    5  A    between atoms: C_7  and  C_8
REMARK    6  A    between atoms: C_8  and  O_9
REMARK    7  A    between atoms: N_10  and  C_11
REMARK    8  A    between atoms: N_12  and  C_20
REMARK    9  A    between atoms: C_14  and  C_15
REMARK   10  A    between atoms: C_15  and  C_16
REMARK   11  A    between atoms: C_15  and  C_17
REMARK   12  A    between atoms: C_15  and  C_18
REMARK   13  A    between atoms: C_23  and  C_24
REMARK                            x       y       z     vdW  Elec       q    Type
REMARK                         _______ _______ _______ _____ _____    ______ ____
ROOT
ATOM      5  C   UNL     1      -3.503 -21.701 156.410  0.00  0.00    +0.130 A 
ATOM      6  C   UNL     1      -4.788 -21.262 156.687  0.00  0.00    +0.069 A 
ATOM      7  C   UNL     1      -4.627 -20.365 157.731  0.00  0.00    +0.071 A 
ATOM     12  N   UNL     1      -3.323 -20.300 158.031  0.00  0.00    -0.169 NA
ATOM     13  N   UNL     1      -2.685 -21.065 157.277  0.00  0.00    -0.218 N 
ENDROOT
BRANCH  13  14
ATOM     14  C   UNL     1      -1.224 -21.158 157.381  0.00  0.00    +0.067 A 
ATOM     15  C   UNL     1      -0.606 -21.286 158.618  0.00  0.00    +0.028 A 
ATOM     16  C   UNL     1       0.784 -21.345 158.687  0.00  0.00    +0.005 A 
ATOM     17  C   UNL     1       1.555 -21.259 157.524  0.00  0.00    -0.050 A 
ATOM     18  C   UNL     1       3.058 -21.318 157.569  0.00  0.00    +0.044 C 
ATOM     19  C   UNL     1       0.938 -21.116 156.297  0.00  0.00    +0.005 A 
ATOM     20  C   UNL     1      -0.447 -21.052 156.228  0.00  0.00    +0.028 A 
ENDBRANCH  13  14
BRANCH   5   3
ATOM      1  O   UNL     1      -4.815 -22.349 153.923  0.00  0.00    -0.253 OA
ATOM      2  C   UNL     1      -3.715 -22.790 154.139  0.00  0.00    +0.305 C 
ATOM      3  N   UNL     1      -3.067 -22.561 155.355  0.00  0.00    -0.254 N 
ATOM      4  H   UNL     1      -2.147 -23.084 155.513  0.00  0.00    +0.158 HD
ATOM     21  N   UNL     1      -3.082 -23.599 153.194  0.00  0.00    -0.299 N 
ATOM     22  H   UNL     1      -2.114 -23.982 153.441  0.00  0.00    +0.150 HD
BRANCH  21  23
ATOM     23  C   UNL     1      -3.646 -23.968 151.879  0.00  0.00    +0.106 C 
BRANCH  23  24
ATOM     24  C   UNL     1      -5.057 -24.555 151.850  0.00  0.00    +0.019 C 
BRANCH  24  25
ATOM     25  C   UNL     1      -5.290 -25.120 150.438  0.00  0.00    +0.004 C 
BRANCH  25  26
ATOM     26  C   UNL     1      -6.782 -25.161 150.083  0.00  0.00    +0.028 C 
BRANCH  26  27
ATOM     27  C   UNL     1      -6.946 -25.156 148.565  0.00  0.00    +0.156 C 
BRANCH  27  28
ATOM     28  O   UNL     1      -8.197 -25.742 148.246  0.00  0.00    -0.395 OA
ATOM     29  H   UNL     1      -8.224 -26.728 148.606  0.00  0.00    +0.209 HD
ENDBRANCH  27  28
ENDBRANCH  26  27
ENDBRANCH  25  26
ENDBRANCH  24  25
ENDBRANCH  23  24
ENDBRANCH  21  23
ENDBRANCH   5   3
BRANCH   7   8
ATOM      8  C   UNL     1      -5.747 -19.600 158.447  0.00  0.00    +0.006 C 
ATOM      9  C   UNL     1      -5.171 -18.514 159.394  0.00  0.00    +0.017 C 
ATOM     10  C   UNL     1      -6.676 -18.964 157.381  0.00  0.00    +0.017 C 
ATOM     11  C   UNL     1      -6.547 -20.617 159.289  0.00  0.00    +0.017 C 
ENDBRANCH   7   8
TORSDOF 9
