REMARK  Name = 2c3j_ligand
REMARK  0 active torsions:
REMARK  status: ('A' for Active; 'I' for Inactive)
REMARK                            x       y       z     vdW  Elec       q    Type
REMARK                         _______ _______ _______ _____ _____    ______ ____
ROOT
ATOM      1  O   UNL     1       3.891  -1.613  20.618  0.00  0.00    -0.392 OA
ATOM      2  C   UNL     1       4.682  -2.169  19.856  0.00  0.00    +0.219 C 
ATOM      3  C   UNL     1       4.226  -3.442  19.155  0.00  0.00    +0.136 A 
ATOM      4  C   UNL     1       4.903  -4.291  18.276  0.00  0.00    -0.014 A 
ATOM      5  C   UNL     1       6.233  -4.157  17.852  0.00  0.00    -0.037 C 
ATOM      6  C   UNL     1       6.644  -4.653  16.577  0.00  0.00    +0.049 C 
ATOM      7  C   UNL     1       7.963  -4.794  16.058  0.00  0.00    +0.223 C 
ATOM      8  O   UNL     1       9.050  -4.480  16.564  0.00  0.00    -0.384 OA
ATOM      9  N   UNL     1       7.886  -5.323  14.829  0.00  0.00    -0.191 N 
ATOM     10  H   UNL     1       8.655  -5.554  14.232  0.00  0.00    +0.241 HD
ATOM     11  C   UNL     1       6.578  -5.485  14.549  0.00  0.00    +0.211 C 
ATOM     12  N   UNL     1       6.080  -5.969  13.380  0.00  0.00    -0.288 N 
ATOM     13  H   UNL     1       6.721  -6.245  12.622  0.00  0.00    +0.187 HD
ATOM     14  H   UNL     1       5.062  -6.059  13.252  0.00  0.00    +0.187 HD
ATOM     15  N   UNL     1       5.828  -5.076  15.592  0.00  0.00    -0.327 NA
ATOM     16  C   UNL     1       7.257  -3.421  18.706  0.00  0.00    +0.088 C 
ATOM     17  C   UNL     1       6.932  -1.923  18.726  0.00  0.00    +0.148 C 
ATOM     18  C   UNL     1       4.021  -5.195  17.919  0.00  0.00    -0.031 A 
ATOM     19  C   UNL     1       2.868  -4.956  18.527  0.00  0.00    +0.115 A 
ATOM     20  N   UNL     1       2.968  -3.867  19.284  0.00  0.00    -0.275 N 
ATOM     21  H   UNL     1       2.225  -3.439  19.854  0.00  0.00    +0.237 HD
ATOM     22  N   UNL     1       5.835  -1.504  19.648  0.00  0.00    -0.285 N 
ATOM     23  H   UNL     1       5.968  -0.653  20.157  0.00  0.00    +0.184 HD
ENDROOT
TORSDOF 0
