REMARK  Name = F37
REMARK  2 active torsions:
REMARK  status: ('A' for Active; 'I' for Inactive)
REMARK    1  A    between atoms: C1_7  and  C4_9
REMARK    2  A    between atoms: C7_14  and  C10_15
REMARK                            x       y       z     vdW  Elec       q    Type
REMARK                         _______ _______ _______ _____ _____    ______ ____
ROOT
ATOM      5  C   UNL     1     -36.948 -10.612   6.849  0.00  0.00    +0.005 A 
ATOM      6  C   UNL     1     -36.259  -9.891   7.841  0.00  0.00    -0.002 A 
ATOM      7  C   UNL     1     -36.269 -10.213   9.204  0.00  0.00    +0.003 A 
ATOM      8  C   UNL     1     -37.001 -11.301   9.685  0.00  0.00    +0.036 A 
ATOM     20  C   UNL     1     -37.712 -12.018   8.743  0.00  0.00    +0.003 A 
ATOM     21  C   UNL     1     -37.652 -11.705   7.366  0.00  0.00    -0.002 A 
ENDROOT
BRANCH   8   9
ATOM      9  C   UNL     1     -37.063 -11.600  11.068  0.00  0.00    +0.165 A 
ATOM     10  N   UNL     1     -36.296 -10.891  12.017  0.00  0.00    -0.189 NA
ATOM     11  C   UNL     1     -36.324 -11.110  13.360  0.00  0.00    +0.282 A 
ATOM     12  O   UNL     1     -35.570 -10.464  14.123  0.00  0.00    -0.265 OA
ATOM     13  C   UNL     1     -37.190 -12.109  13.788  0.00  0.00    +0.076 A 
ATOM     14  C   UNL     1     -37.296 -12.413  15.140  0.00  0.00    +0.006 A 
ATOM     15  C   UNL     1     -38.178 -13.421  15.545  0.00  0.00    +0.000 A 
ATOM     16  C   UNL     1     -38.892 -14.163  14.598  0.00  0.00    +0.002 A 
ATOM     17  C   UNL     1     -38.775 -13.836  13.235  0.00  0.00    +0.019 A 
ATOM     18  C   UNL     1     -37.916 -12.818  12.830  0.00  0.00    +0.088 A 
ATOM     19  N   UNL     1     -37.861 -12.542  11.523  0.00  0.00    -0.226 NA
ENDBRANCH   8   9
BRANCH   5   4
ATOM      1  O   UNL     1     -39.528 -10.705   3.434  0.00  0.00    -0.207 OA
ATOM      2  C   UNL     1     -38.625 -10.380   4.195  0.00  0.00    +0.225 C 
ATOM      3  N   UNL     1     -37.684 -11.149   4.776  0.00  0.00    -0.147 NA
ATOM      4  C   UNL     1     -36.877 -10.232   5.394  0.00  0.00    +0.177 C 
ATOM     22  C   UNL     1     -37.510  -9.032   5.356  0.00  0.00    +0.278 C 
ATOM     23  O   UNL     1     -37.148  -7.931   5.776  0.00  0.00    -0.270 OA
ATOM     24  C   UNL     1     -35.423 -10.285   5.129  0.00  0.00    +0.037 C 
ATOM     25  N   UNL     1     -38.517  -9.113   4.528  0.00  0.00    -0.092 NA
ENDBRANCH   5   4
TORSDOF 2
