REMARK  Name = H1V
REMARK  15 active torsions:
REMARK  status: ('A' for Active; 'I' for Inactive)
REMARK    1  A    between atoms: C10_5  and  C11_6
REMARK    2  A    between atoms: C10_5  and  C9_46
REMARK    3  A    between atoms: C12_7  and  C13_8
REMARK    4  A    between atoms: C12_7  and  N3_49
REMARK    5  A    between atoms: C13_8  and  O1_56
REMARK    6  A    between atoms: C14_9  and  C15_10
REMARK    7  A    between atoms: C14_9  and  O1_56
REMARK    8  A    between atoms: C15_10  and  O2_57
REMARK    9  A    between atoms: C16_11  and  C17_12
REMARK   10  A    between atoms: C16_11  and  O2_57
REMARK   11  A    between atoms: C17_12  and  N4_50
REMARK   12  A    between atoms: C18_13  and  C19_14
REMARK   13  A    between atoms: C19_14  and  C20_16
REMARK   14  A    between atoms: C21_17  and  C31_28
REMARK   15  A    between atoms: C37_34  and  C38_35
REMARK                            x       y       z     vdW  Elec       q    Type
REMARK                         _______ _______ _______ _____ _____    ______ ____
ROOT
ATOM     22  C   UNL     1     -25.845   9.252  -3.588  0.00  0.00    +0.174 C 
ENDROOT
BRANCH  22  21
ATOM     21  O   UNL     1     -26.704  10.309  -4.018  0.00  0.00    -0.349 OA
BRANCH  21  20
ATOM     20  C   UNL     1     -27.628  10.701  -3.002  0.00  0.00    +0.166 C 
BRANCH  20  19
ATOM     19  C   UNL     1     -28.429  11.921  -3.450  0.00  0.00    +0.147 C 
BRANCH  19  18
ATOM     16  C   UNL     1     -30.629  10.972  -3.734  0.00  0.00    +0.244 C 
ATOM     17  O   UNL     1     -30.758  10.831  -2.528  0.00  0.00    -0.273 OA
ATOM     18  N   UNL     1     -29.581  11.592  -4.271  0.00  0.00    -0.203 NA
BRANCH  16  15
ATOM     15  C   UNL     1     -31.679  10.419  -4.671  0.00  0.00    +0.119 C 
BRANCH  15  14
ATOM      1  C   UNL     1     -35.683  14.889  -6.477  0.00  0.00    +0.005 A 
ATOM      2  C   UNL     1     -34.811  14.913  -5.258  0.00  0.00    -0.017 A 
ATOM      3  C   UNL     1     -34.248  16.178  -4.670  0.00  0.00    +0.031 C 
ATOM      4  C   UNL     1     -34.608  13.504  -4.753  0.00  0.00    +0.036 A 
ATOM      5  C   UNL     1     -33.807  13.112  -3.557  0.00  0.00    +0.078 C 
ATOM     13  N   UNL     1     -32.995  12.148  -3.629  0.00  0.00    -0.264 NA
ATOM     14  C   UNL     1     -32.822  11.410  -4.870  0.00  0.00    +0.171 C 
ATOM     54  C   UNL     1     -34.087  10.663  -5.028  0.00  0.00    +0.170 A 
ATOM     55  N   UNL     1     -34.315   9.343  -4.853  0.00  0.00    -0.131 NA
ATOM     56  N   UNL     1     -35.685   9.111  -5.102  0.00  0.00    -0.133 NA
ATOM     57  C   UNL     1     -36.261  10.294  -5.413  0.00  0.00    +0.148 A 
ATOM     58  C   UNL     1     -37.714  10.504  -5.746  0.00  0.00    +0.074 C 
ATOM     59  N   UNL     1     -35.266  11.184  -5.340  0.00  0.00    -0.274 N 
ATOM     60  C   UNL     1     -35.330  12.503  -5.579  0.00  0.00    +0.097 A 
ATOM     61  S   UNL     1     -36.154  13.269  -6.892  0.00  0.00    -0.074 S 
ATOM     62  C   UNL     1     -36.209  15.968  -7.387  0.00  0.00    +0.038 C 
BRANCH   5   6
ATOM      6  C   UNL     1     -33.992  13.824  -2.249  0.00  0.00    +0.017 A 
ATOM      7  C   UNL     1     -32.959  13.875  -1.323  0.00  0.00    +0.002 A 
ATOM      8  C   UNL     1     -33.148  14.526  -0.109  0.00  0.00    +0.011 A 
ATOM      9  C   UNL     1     -34.371  15.118   0.181  0.00  0.00    +0.058 A 
ATOM     10 CL   UNL     1     -34.602  15.954   1.751  0.00  0.00    -0.082 Cl
ATOM     11  C   UNL     1     -35.409  15.063  -0.740  0.00  0.00    +0.011 A 
ATOM     12  C   UNL     1     -35.218  14.411  -1.952  0.00  0.00    +0.002 A 
ENDBRANCH   5   6
ENDBRANCH  15  14
ENDBRANCH  16  15
ENDBRANCH  19  18
ENDBRANCH  20  19
ENDBRANCH  21  20
ENDBRANCH  22  21
BRANCH  22  23
ATOM     23  C   UNL     1     -25.482   8.370  -4.777  0.00  0.00    +0.174 C 
BRANCH  23  24
ATOM     24  O   UNL     1     -24.609   9.073  -5.656  0.00  0.00    -0.349 OA
BRANCH  24  25
ATOM     25  C   UNL     1     -24.242   8.269  -6.775  0.00  0.00    +0.166 C 
BRANCH  25  26
ATOM     26  C   UNL     1     -23.025   8.866  -7.472  0.00  0.00    +0.147 C 
BRANCH  26  27
ATOM     27  N   UNL     1     -21.827   8.777  -6.656  0.00  0.00    -0.203 NA
ATOM     28  C   UNL     1     -20.909   9.740  -6.676  0.00  0.00    +0.244 C 
ATOM     53  O   UNL     1     -21.088  10.807  -7.238  0.00  0.00    -0.273 OA
BRANCH  28  29
ATOM     29  C   UNL     1     -19.606   9.461  -5.964  0.00  0.00    +0.119 C 
BRANCH  29  30
ATOM     30  C   UNL     1     -18.480  10.217  -6.659  0.00  0.00    +0.171 C 
ATOM     31  C   UNL     1     -17.188   9.977  -5.987  0.00  0.00    +0.170 A 
ATOM     32  N   UNL     1     -16.905   9.133  -4.977  0.00  0.00    -0.131 NA
ATOM     33  N   UNL     1     -15.525   9.246  -4.706  0.00  0.00    -0.133 NA
ATOM     34  C   UNL     1     -14.994  10.148  -5.561  0.00  0.00    +0.148 A 
ATOM     35  C   UNL     1     -13.549  10.569  -5.623  0.00  0.00    +0.074 C 
ATOM     36  N   UNL     1     -16.030  10.541  -6.308  0.00  0.00    -0.274 N 
ATOM     37  C   UNL     1     -16.007  11.447  -7.304  0.00  0.00    +0.097 A 
ATOM     38  S   UNL     1     -15.179  12.970  -7.291  0.00  0.00    -0.074 S 
ATOM     39  C   UNL     1     -15.706  13.471  -8.868  0.00  0.00    +0.005 A 
ATOM     40  C   UNL     1     -15.197  14.812  -9.326  0.00  0.00    +0.038 C 
ATOM     41  C   UNL     1     -16.598  12.446  -9.501  0.00  0.00    -0.017 A 
ATOM     42  C   UNL     1     -17.207  12.610 -10.867  0.00  0.00    +0.031 C 
ATOM     43  C   UNL     1     -16.770  11.275  -8.568  0.00  0.00    +0.036 A 
ATOM     44  C   UNL     1     -17.579  10.062  -8.849  0.00  0.00    +0.078 C 
ATOM     52  N   UNL     1     -18.351   9.594  -7.969  0.00  0.00    -0.264 NA
BRANCH  44  45
ATOM     45  C   UNL     1     -17.442   9.382 -10.177  0.00  0.00    +0.017 A 
ATOM     46  C   UNL     1     -18.509   8.715 -10.768  0.00  0.00    +0.002 A 
ATOM     47  C   UNL     1     -18.330   8.080 -11.999  0.00  0.00    +0.011 A 
ATOM     48  C   UNL     1     -17.092   8.112 -12.632  0.00  0.00    +0.058 A 
ATOM     49  C   UNL     1     -16.030   8.775 -12.038  0.00  0.00    +0.011 A 
ATOM     50 CL   UNL     1     -16.852   7.306 -14.216  0.00  0.00    -0.082 Cl
ATOM     51  C   UNL     1     -16.205   9.400 -10.812  0.00  0.00    +0.002 A 
ENDBRANCH  44  45
ENDBRANCH  29  30
ENDBRANCH  28  29
ENDBRANCH  26  27
ENDBRANCH  25  26
ENDBRANCH  24  25
ENDBRANCH  23  24
ENDBRANCH  22  23
TORSDOF 15
