REMARK  Name = 8PU
REMARK  4 active torsions:
REMARK  status: ('A' for Active; 'I' for Inactive)
REMARK    1  A    between atoms: OAV_2  and  CAQ_3
REMARK    2  A    between atoms: CAP_9  and  SAM_10
REMARK    3  A    between atoms: SAM_10  and  NAH_13
REMARK    4  A    between atoms: NAH_13  and  CAC_14
REMARK                            x       y       z     vdW  Elec       q    Type
REMARK                         _______ _______ _______ _____ _____    ______ ____
ROOT
ATOM      1  B   UNL     1      -3.700   7.000   2.000  0.00  0.00    +0.000 B 
ENDROOT
TORSDOF 0
