REMARK  Name = 4px6_ligand
REMARK  4 active torsions:
REMARK  status: ('A' for Active; 'I' for Inactive)
REMARK    1  A    between atoms: C12_5  and  N4_28
REMARK    2  A    between atoms: C13_6  and  N4_28
REMARK    3  A    between atoms: N1_23  and  C5_24
REMARK    4  A    between atoms: C_26  and  N_27
REMARK                            x       y       z     vdW  Elec       q    Type
REMARK                         _______ _______ _______ _____ _____    ______ ____
ROOT
ATOM     10  N   UNL     1       2.743   3.951  12.298  0.00  0.00    -0.303 N 
ATOM     11  H   UNL     1       3.418   4.682  12.033  0.00  0.00    +0.181 HD
ATOM     12  C   UNL     1       3.185   2.904  13.071  0.00  0.00    +0.090 A 
ATOM     13  N   UNL     1       2.267   1.936  13.417  0.00  0.00    -0.273 NA
ATOM     14  C   UNL     1       2.717   0.900  14.186  0.00  0.00    +0.129 A 
ATOM     27  C   UNL     1       4.078   0.801  14.627  0.00  0.00    +0.098 A 
ATOM     28  C   UNL     1       4.976   1.823  14.242  0.00  0.00    +0.019 A 
ATOM     29  N   UNL     1       6.334   1.794  14.639  0.00  0.00    -0.293 NA
ATOM     30  C   UNL     1       6.729   0.784  15.376  0.00  0.00    +0.285 A 
ATOM     31  N   UNL     1       5.916  -0.266  15.803  0.00  0.00    -0.198 N 
ATOM     32  H   UNL     1       6.297  -0.999  16.366  0.00  0.00    +0.257 HD
ATOM     33  C   UNL     1       4.550  -0.289  15.436  0.00  0.00    +0.231 A 
ATOM     34  O   UNL     1       3.866  -1.241  15.837  0.00  0.00    -0.393 OA
ATOM     35  C   UNL     1       4.550   2.883  13.465  0.00  0.00    +0.021 A 
ENDROOT
BRANCH  10   7
ATOM      1  C   UNL     1      -0.981   4.751  12.449  0.00  0.00    +0.056 C 
ATOM      2  C   UNL     1       0.438   4.610  12.983  0.00  0.00    +0.086 C 
ATOM      7  C   UNL     1       1.354   4.079  11.831  0.00  0.00    +0.142 C 
ATOM      8  C   UNL     1       1.302   5.039  10.645  0.00  0.00    +0.033 C 
ATOM      9  C   UNL     1      -0.123   5.227  10.138  0.00  0.00    +0.003 C 
ATOM     36  C   UNL     1      -1.048   5.686  11.247  0.00  0.00    +0.006 C 
BRANCH   2   3
ATOM      3  N   UNL     1       0.956   5.913  13.425  0.00  0.00    +0.222 N 
ATOM      4  H   UNL     1       1.901   5.803  13.759  0.00  0.00    +0.200 HD
ATOM      5  H   UNL     1       0.946   6.559  12.651  0.00  0.00    +0.200 HD
ATOM      6  H   UNL     1       0.377   6.270  14.168  0.00  0.00    +0.200 HD
ENDBRANCH   2   3
ENDBRANCH  10   7
BRANCH  14  15
ATOM     15  N   UNL     1       1.846  -0.100  14.565  0.00  0.00    -0.263 N 
ATOM     16  H   UNL     1       2.248  -0.851  15.144  0.00  0.00    +0.213 HD
BRANCH  15  17
ATOM     17  C   UNL     1       0.472  -0.224  14.259  0.00  0.00    +0.084 A 
ATOM     18  C   UNL     1      -0.205  -1.360  14.776  0.00  0.00    +0.091 A 
ATOM     19  N   UNL     1       0.248  -2.422  15.562  0.00  0.00    -0.282 N 
ATOM     20  H   UNL     1       1.210  -2.549  15.909  0.00  0.00    +0.225 HD
ATOM     21  C   UNL     1      -0.829  -3.284  15.798  0.00  0.00    +0.112 A 
ATOM     22  C   UNL     1      -1.957  -2.789  15.176  0.00  0.00    -0.040 A 
ATOM     23  C   UNL     1      -1.583  -1.572  14.524  0.00  0.00    -0.037 A 
ATOM     24  C   UNL     1      -2.308  -0.657  13.753  0.00  0.00    -0.046 A 
ATOM     25  C   UNL     1      -1.645   0.437  13.258  0.00  0.00    -0.043 A 
ATOM     26  C   UNL     1      -0.272   0.660  13.503  0.00  0.00    -0.011 A 
ENDBRANCH  15  17
ENDBRANCH  14  15
TORSDOF 4
