REMARK  Name = 3PRE
REMARK  5 active torsions:
REMARK  status: ('A' for Active; 'I' for Inactive)
REMARK    1  A    between atoms: C_6  and  C_12
REMARK    2  A    between atoms: N_7  and  C_14
REMARK    3  A    between atoms: C_9  and  C_21
REMARK    4  A    between atoms: C_17  and  O_20
REMARK    5  A    between atoms: O_20  and  C_26
REMARK                            x       y       z     vdW  Elec       q    Type
REMARK                         _______ _______ _______ _____ _____    ______ ____
ROOT
ATOM      1  N   UNL     1      47.539  12.609  28.346  0.00  0.00    -0.219 NA
ATOM      2  C   UNL     1      46.246  12.470  28.642  0.00  0.00    +0.052 A 
ATOM      3  C   UNL     1      45.538  11.360  27.991  0.00  0.00    +0.066 C 
ATOM      4  C   UNL     1      45.561  13.298  29.489  0.00  0.00    +0.040 A 
ATOM      5  C   UNL     1      44.163  13.094  29.787  0.00  0.00    +0.028 C 
ATOM      6  C   UNL     1      43.482  13.881  30.622  0.00  0.00    +0.065 C 
ATOM     13  C   UNL     1      44.249  14.988  31.240  0.00  0.00    +0.262 C 
ATOM     14  O   UNL     1      43.675  15.740  32.009  0.00  0.00    -0.267 OA
ATOM     15  N   UNL     1      45.599  15.141  30.931  0.00  0.00    -0.289 N 
ATOM     24  C   UNL     1      46.287  14.307  30.058  0.00  0.00    +0.149 A 
ATOM     25  N   UNL     1      47.584  14.495  29.811  0.00  0.00    -0.197 NA
ATOM     26  C   UNL     1      48.150  13.629  28.958  0.00  0.00    +0.215 A 
ATOM     27  N   UNL     1      49.501  13.791  28.655  0.00  0.00    -0.327 N 
ATOM     28  H   UNL     1      50.059  14.585  29.105  0.00  0.00    +0.145 HD
ATOM     29  H   UNL     1      49.980  13.121  27.972  0.00  0.00    +0.145 HD
ENDROOT
BRANCH   6   7
ATOM      7  C   UNL     1      42.111  13.642  30.979  0.00  0.00    +0.071 A 
ATOM      8  N   UNL     1      41.405  14.275  31.934  0.00  0.00    -0.277 N 
ATOM      9  H   UNL     1      41.744  15.077  32.556  0.00  0.00    +0.189 HD
ATOM     10  N   UNL     1      40.188  13.699  31.951  0.00  0.00    -0.182 NA
ATOM     11  C   UNL     1      40.070  12.689  31.047  0.00  0.00    +0.135 A 
ATOM     12  C   UNL     1      41.289  12.633  30.411  0.00  0.00    +0.049 A 
ENDBRANCH   6   7
BRANCH  15  16
ATOM     16  C   UNL     1      46.364  16.218  31.513  0.00  0.00    +0.092 C 
ATOM     17  C   UNL     1      45.701  17.544  31.162  0.00  0.00    +0.028 C 
ATOM     18  C   UNL     1      46.520  18.689  31.717  0.00  0.00    +0.034 C 
ATOM     19  C   UNL     1      46.499  18.584  33.226  0.00  0.00    +0.118 C 
ATOM     22  C   UNL     1      47.168  17.285  33.625  0.00  0.00    +0.034 C 
ATOM     23  C   UNL     1      46.488  16.084  33.011  0.00  0.00    +0.028 C 
BRANCH  19  20
ATOM     20  O   UNL     1      47.259  19.659  33.768  0.00  0.00    -0.380 OA
ATOM     21  C   UNL     1      46.424  20.290  34.734  0.00  0.00    +0.194 C 
ENDBRANCH  19  20
ENDBRANCH  15  16
TORSDOF 3
