REMARK  Name = 2WIP
REMARK  4 active torsions:
REMARK  status: ('A' for Active; 'I' for Inactive)
REMARK    1  A    between atoms: N_11  and  C_14
REMARK    2  A    between atoms: C_13  and  C_22
REMARK    3  A    between atoms: N_15  and  C_16
REMARK    4  A    between atoms: C_22  and  O_23
REMARK                            x       y       z     vdW  Elec       q    Type
REMARK                         _______ _______ _______ _____ _____    ______ ____
ROOT
ATOM      1  C   UNL     1     -12.321 206.035 109.785  0.00  0.00    +0.120 A 
ATOM      2  C   UNL     1     -12.968 205.447 110.906  0.00  0.00    -0.001 A 
ATOM      3  C   UNL     1     -14.421 204.887 110.824  0.00  0.00    +0.043 C 
ATOM      4  C   UNL     1     -15.164 204.742 112.200  0.00  0.00    +0.044 C 
ATOM      5  C   UNL     1     -14.210 204.609 113.417  0.00  0.00    +0.014 A 
ATOM      6  C   UNL     1     -14.426 204.124 114.697  0.00  0.00    +0.173 A 
ATOM     11  N   UNL     1     -13.220 204.147 115.391  0.00  0.00    -0.164 NA
ATOM     12  N   UNL     1     -12.244 204.635 114.594  0.00  0.00    -0.264 N 
ATOM     13  C   UNL     1     -10.857 204.759 115.120  0.00  0.00    +0.173 C 
ATOM     14  C   UNL     1     -12.825 204.938 113.339  0.00  0.00    +0.091 A 
ATOM     15  C   UNL     1     -12.226 205.474 112.156  0.00  0.00    +0.097 A 
ATOM     16  N   UNL     1     -10.999 206.030 112.191  0.00  0.00    -0.212 NA
ATOM     17  C   UNL     1     -10.488 206.552 111.082  0.00  0.00    +0.220 A 
ATOM     18  N   UNL     1      -9.178 207.116 111.252  0.00  0.00    -0.284 N 
ATOM     19  H   UNL     1      -9.316 208.125 110.924  0.00  0.00    +0.155 HD
ATOM     26  N   UNL     1     -11.097 206.577 109.891  0.00  0.00    -0.222 NA
ENDROOT
BRANCH  18  20
ATOM     20  C   UNL     1      -8.250 207.267 112.344  0.00  0.00    +0.034 A 
ATOM     21  C   UNL     1      -6.869 207.145 112.043  0.00  0.00    +0.023 A 
ATOM     22  C   UNL     1      -5.898 207.281 113.066  0.00  0.00    +0.002 A 
ATOM     23  C   UNL     1      -6.307 207.540 114.399  0.00  0.00    +0.000 A 
ATOM     24  C   UNL     1      -7.682 207.663 114.716  0.00  0.00    +0.002 A 
ATOM     25  C   UNL     1      -8.652 207.529 113.696  0.00  0.00    +0.023 A 
ENDBRANCH  18  20
BRANCH   6   7
ATOM      7  C   UNL     1     -15.743 203.639 115.291  0.00  0.00    +0.357 C 
ATOM      8  O   UNL     1     -16.814 203.623 114.677  0.00  0.00    -0.243 OA
BRANCH   7   9
ATOM      9  O   UNL     1     -15.606 203.227 116.589  0.00  0.00    -0.476 OA
ATOM     10  H   UNL     1     -14.918 202.435 116.635  0.00  0.00    +0.295 HD
ENDBRANCH   7   9
ENDBRANCH   6   7
TORSDOF 3
