REMARK  Name = 4iwd_ligand
REMARK  7 active torsions:
REMARK  status: ('A' for Active; 'I' for Inactive)
REMARK    1  A    between atoms: C_1  and  C18_22
REMARK    2  A    between atoms: C12_14  and  C14_16
REMARK    3  A    between atoms: C14_16  and  S_17
REMARK    4  A    between atoms: S_17  and  N15_18
REMARK    5  A    between atoms: N15_18  and  C23_27
REMARK    6  A    between atoms: N20_24  and  C30_34
REMARK    7  A    between atoms: C23_27  and  C24_28
REMARK                            x       y       z     vdW  Elec       q    Type
REMARK                         _______ _______ _______ _____ _____    ______ ____
ROOT
ATOM      1  C   UNL     1      -3.565  -8.529 -16.591  0.00  0.00    -0.003 A 
ATOM     15  C   UNL     1      -3.813  -7.668 -15.533  0.00  0.00    +0.047 A 
ATOM     16  C   UNL     1      -5.051  -7.475 -14.934  0.00  0.00    +0.058 A 
ATOM     17  C   UNL     1      -5.064  -6.517 -13.825  0.00  0.00    +0.155 A 
ATOM     18  O   UNL     1      -3.982  -6.301 -13.198  0.00  0.00    -0.384 OA
ATOM     19  C   UNL     1      -6.164  -5.698 -13.468  0.00  0.00    +0.037 A 
ATOM     20  C   UNL     1      -5.790  -4.460 -12.872  0.00  0.00    +0.024 A 
ATOM     21  C   UNL     1      -6.671  -3.494 -12.482  0.00  0.00    -0.012 A 
ATOM     35  C   UNL     1      -8.022  -3.761 -12.706  0.00  0.00    +0.010 A 
ATOM     36  C   UNL     1      -8.403  -4.985 -13.288  0.00  0.00    +0.012 A 
ATOM     37  C   UNL     1      -7.499  -5.992 -13.689  0.00  0.00    -0.006 A 
ATOM     38  C   UNL     1      -8.020  -7.169 -14.273  0.00  0.00    +0.024 A 
ATOM     39  C   UNL     1      -7.457  -8.212 -15.057  0.00  0.00    +0.030 A 
ATOM     40  C   UNL     1      -6.096  -8.243 -15.464  0.00  0.00    +0.056 A 
ATOM     41  N   UNL     1      -5.912  -9.132 -16.479  0.00  0.00    -0.294 NA
ATOM     42  C   UNL     1      -4.665  -9.276 -17.039  0.00  0.00    +0.095 A 
ENDROOT
BRANCH   1   2
ATOM      2  C   UNL     1      -2.215  -8.627 -17.188  0.00  0.00    +0.010 A 
ATOM      3  C   UNL     1      -0.938  -8.204 -16.784  0.00  0.00    +0.076 A 
ATOM      4  N   UNL     1       0.008  -8.508 -17.665  0.00  0.00    -0.212 NA
ATOM      5  N   UNL     1      -0.643  -9.138 -18.636  0.00  0.00    -0.198 N 
ATOM     14  C   UNL     1      -1.983  -9.219 -18.401  0.00  0.00    +0.173 A 
BRANCH   5   6
ATOM      6  C   UNL     1       0.080  -9.638 -19.826  0.00  0.00    +0.162 C 
ATOM      7  C   UNL     1       0.791  -8.373 -20.449  0.00  0.00    +0.090 C 
ATOM      8  C   UNL     1       1.869  -8.688 -21.479  0.00  0.00    +0.132 C 
ATOM      9  N   UNL     1       2.768  -9.842 -21.112  0.00  0.00    +0.227 N 
ATOM     10  H   UNL     1       3.494  -9.469 -20.520  0.00  0.00    +0.201 HD
ATOM     11  H   UNL     1       3.175 -10.179 -21.970  0.00  0.00    +0.201 HD
ATOM     12  C   UNL     1       2.201 -11.033 -20.405  0.00  0.00    +0.132 C 
ATOM     13  C   UNL     1       1.118 -10.695 -19.363  0.00  0.00    +0.090 C 
ENDBRANCH   5   6
ENDBRANCH   1   2
BRANCH  21  22
ATOM     22  C   UNL     1      -6.127  -2.215 -11.861  0.00  0.00    +0.259 C 
BRANCH  22  23
ATOM     23  S   UNL     1      -5.684  -1.262 -13.302  0.00  0.00    +0.051 S 
ATOM     24  O   UNL     1      -6.929  -1.165 -14.287  0.00  0.00    -0.153 OA
ATOM     25  O   UNL     1      -4.302  -1.862 -13.858  0.00  0.00    -0.153 OA
BRANCH  23  26
ATOM     26  N   UNL     1      -5.361   0.260 -12.641  0.00  0.00    -0.236 NA
ATOM     27  H   UNL     1      -6.086   0.935 -12.504  0.00  0.00    +0.170 HD
BRANCH  26  28
ATOM     28  C   UNL     1      -3.946   0.550 -12.271  0.00  0.00    +0.209 C 
BRANCH  28  29
ATOM     29  C   UNL     1      -3.870   1.337 -10.967  0.00  0.00    +0.047 A 
ATOM     30  C   UNL     1      -4.988   1.540 -10.117  0.00  0.00    +0.034 A 
ATOM     31  C   UNL     1      -4.832   2.272  -8.946  0.00  0.00    +0.023 A 
ATOM     32  C   UNL     1      -3.557   2.811  -8.607  0.00  0.00    +0.024 A 
ATOM     33  C   UNL     1      -2.499   2.591  -9.478  0.00  0.00    +0.083 A 
ATOM     34  N   UNL     1      -2.667   1.844 -10.635  0.00  0.00    -0.296 NA
ENDBRANCH  28  29
ENDBRANCH  26  28
ENDBRANCH  23  26
ENDBRANCH  22  23
ENDBRANCH  21  22
TORSDOF 7
