REMARK  Name = 5MO7
REMARK  6 active torsions:
REMARK  status: ('A' for Active; 'I' for Inactive)
REMARK    1  A    between atoms: N_1  and  C_2
REMARK    2  A    between atoms: N_1  and  C_16
REMARK    3  A    between atoms: C_2  and  C_17
REMARK    4  A    between atoms: C_3  and  C_16
REMARK    5  A    between atoms: C_8  and  C_9
REMARK    6  A    between atoms: C_17  and  C_18
REMARK                            x       y       z     vdW  Elec       q    Type
REMARK                         _______ _______ _______ _____ _____    ______ ____
ROOT
ATOM      4  C   UNL     1       3.701 134.225 355.422  0.00  0.00    -0.032 A 
ATOM      5  C   UNL     1       4.770 135.110 355.480  0.00  0.00    +0.025 A 
ATOM      6  C   UNL     1       4.593 136.440 355.160  0.00  0.00    +0.049 A 
ATOM      7  C   UNL     1       3.356 136.941 354.772  0.00  0.00    +0.001 A 
ATOM     14  C   UNL     1       2.290 136.045 354.707  0.00  0.00    +0.010 A 
ATOM     15 CL   UNL     1       5.968 137.493 355.255  0.00  0.00    -0.083 Cl
ATOM     16  C   UNL     1       2.466 134.711 355.028  0.00  0.00    +0.005 A 
ENDROOT
BRANCH   7   8
ATOM      8  C   UNL     1       3.111 138.377 354.462  0.00  0.00    -0.017 A 
ATOM      9  C   UNL     1       1.919 138.995 354.832  0.00  0.00    +0.008 A 
ATOM     10  C   UNL     1       1.708 140.338 354.572  0.00  0.00    +0.001 A 
ATOM     11  C   UNL     1       2.677 141.084 353.941  0.00  0.00    +0.000 A 
ATOM     12  C   UNL     1       3.859 140.489 353.561  0.00  0.00    +0.001 A 
ATOM     13  C   UNL     1       4.078 139.147 353.816  0.00  0.00    +0.008 A 
ENDBRANCH   7   8
BRANCH   4   3
ATOM      3  C   UNL     1       3.885 132.773 355.787  0.00  0.00    +0.116 C 
BRANCH   3   1
ATOM      1  N   UNL     1       5.243 132.475 356.242  0.00  0.00    -0.312 NA
ATOM      2  H   UNL     1       5.934 133.028 355.640  0.00  0.00    +0.122 HD
BRANCH   1  17
ATOM     17  C   UNL     1       5.576 131.054 356.148  0.00  0.00    +0.090 C 
BRANCH  17  18
ATOM     18  C   UNL     1       5.646 130.337 357.478  0.00  0.00    +0.110 C 
BRANCH  18  19
ATOM     19  C   UNL     1       6.296 128.980 357.347  0.00  0.00    +0.212 C 
ATOM     20  N   UNL     1       7.476 128.841 357.928  0.00  0.00    -0.329 N 
ATOM     21  H   UNL     1       7.992 127.905 357.874  0.00  0.00    +0.145 HD
ATOM     22  H   UNL     1       7.915 129.664 358.452  0.00  0.00    +0.145 HD
ATOM     23  O   UNL     1       5.742 128.068 356.728  0.00  0.00    -0.276 OA
ENDBRANCH  18  19
ENDBRANCH  17  18
ENDBRANCH   1  17
ENDBRANCH   3   1
ENDBRANCH   4   3
TORSDOF 6
