REMARK  Name = 4IP
REMARK  8 active torsions:
REMARK  status: ('A' for Active; 'I' for Inactive)
REMARK    1  A    between atoms: C1_1  and  O1_2
REMARK    2  A    between atoms: O1_2  and  P1_13
REMARK    3  A    between atoms: C3_5  and  O3_6
REMARK    4  A    between atoms: O3_6  and  P3_17
REMARK    5  A    between atoms: C4_7  and  O4_8
REMARK    6  A    between atoms: O4_8  and  P4_21
REMARK    7  A    between atoms: C5_9  and  O5_10
REMARK    8  A    between atoms: O5_10  and  P5_25
REMARK                            x       y       z     vdW  Elec       q    Type
REMARK                         _______ _______ _______ _____ _____    ______ ____
ROOT
ATOM      1  C   UNL     1      10.265  29.344  83.823  0.00  0.00    +0.192 C 
ATOM      2  C   UNL     1      10.158  29.378  85.362  0.00  0.00    +0.212 C 
ATOM      3  C   UNL     1      11.522  29.321  86.060  0.00  0.00    +0.189 C 
ATOM      9  C   UNL     1      12.363  28.100  85.623  0.00  0.00    +0.187 C 
ATOM     15  C   UNL     1      12.524  28.199  84.110  0.00  0.00    +0.189 C 
ATOM     21  O   UNL     1       9.453  30.561  85.717  0.00  0.00    -0.218 OA
ATOM     22  C   UNL     1      11.184  28.209  83.369  0.00  0.00    +0.212 C 
ATOM     23  O   UNL     1      10.499  26.979  83.549  0.00  0.00    -0.218 OA
ENDROOT
BRANCH   3   4
ATOM      4  O   UNL     1      11.233  29.282  87.468  0.00  0.00    -0.267 OA
BRANCH   4   5
ATOM      5  P   UNL     1      11.730  30.463  88.452  0.00  0.00    +0.533 P 
ATOM      6  O   UNL     1      11.383  29.965  89.852  0.00  0.00    -0.115 OA
ATOM      7  O   UNL     1      13.182  30.612  88.308  0.00  0.00    -0.115 OA
ATOM      8  O   UNL     1      10.894  31.695  87.961  0.00  0.00    -0.222 OA
ENDBRANCH   4   5
ENDBRANCH   3   4
BRANCH   9  10
ATOM     10  O   UNL     1      13.692  28.116  86.187  0.00  0.00    -0.268 OA
BRANCH  10  11
ATOM     11  P   UNL     1      14.402  27.068  87.226  0.00  0.00    +0.533 P 
ATOM     12  O   UNL     1      14.821  28.005  88.426  0.00  0.00    -0.115 OA
ATOM     13  O   UNL     1      13.400  26.014  87.571  0.00  0.00    -0.115 OA
ATOM     14  O   UNL     1      15.618  26.416  86.572  0.00  0.00    -0.222 OA
ENDBRANCH  10  11
ENDBRANCH   9  10
BRANCH  15  16
ATOM     16  O   UNL     1      13.328  27.148  83.575  0.00  0.00    -0.267 OA
BRANCH  16  17
ATOM     17  P   UNL     1      14.441  27.559  82.485  0.00  0.00    +0.533 P 
ATOM     18  O   UNL     1      15.283  28.638  83.144  0.00  0.00    -0.115 OA
ATOM     19  O   UNL     1      15.105  26.356  81.951  0.00  0.00    -0.115 OA
ATOM     20  O   UNL     1      13.661  28.414  81.385  0.00  0.00    -0.222 OA
ENDBRANCH  16  17
ENDBRANCH  15  16
BRANCH   1  24
ATOM     24  O   UNL     1       8.925  29.127  83.312  0.00  0.00    -0.267 OA
BRANCH  24  25
ATOM     25  P   UNL     1       8.663  29.669  81.793  0.00  0.00    +0.533 P 
ATOM     26  O   UNL     1       8.730  31.149  81.880  0.00  0.00    -0.115 OA
ATOM     27  O   UNL     1       7.227  29.198  81.391  0.00  0.00    -0.115 OA
ATOM     28  O   UNL     1       9.682  28.980  80.917  0.00  0.00    -0.222 OA
ENDBRANCH  24  25
ENDBRANCH   1  24
TORSDOF 8
