REMARK  Name = 5GMP
REMARK  10 active torsions:
REMARK  status: ('A' for Active; 'I' for Inactive)
REMARK    1  A    between atoms: C_6  and  C_7
REMARK    2  A    between atoms: C_7  and  C_8
REMARK    3  A    between atoms: N_10  and  C_11
REMARK    4  A    between atoms: C_16  and  N_17
REMARK    5  A    between atoms: C_21  and  C_22
REMARK    6  A    between atoms: N_24  and  C_25
REMARK    7  A    between atoms: C_26  and  O_28
REMARK    8  A    between atoms: O_28  and  C_29
REMARK    9  A    between atoms: C_32  and  N_33
REMARK   10  A    between atoms: N_36  and  C_37
REMARK                            x       y       z     vdW  Elec       q    Type
REMARK                         _______ _______ _______ _____ _____    ______ ____
ROOT
ATOM      1  C   UNL     1      -0.585 -52.295 123.246  0.00  0.00    +0.130 A 
ATOM      2  N   UNL     1       0.152 -51.356 122.659  0.00  0.00    -0.262 N 
ATOM      3  C   UNL     1       0.379 -51.365 121.348  0.00  0.00    +0.258 C 
ATOM      4  C   UNL     1      -0.173 -52.330 120.533  0.00  0.00    +0.075 C 
ATOM      5  C   UNL     1      -0.954 -53.311 121.104  0.00  0.00    -0.033 C 
ATOM      6  C   UNL     1      -1.518 -54.292 120.310  0.00  0.00    +0.045 C 
ATOM      7  O   UNL     1       1.073 -50.495 120.847  0.00  0.00    -0.267 OA
ATOM     20  N   UNL     1      -0.773 -52.271 124.566  0.00  0.00    -0.310 N 
ATOM     21  H   UNL     1      -0.315 -51.503 125.153  0.00  0.00    +0.170 HD
ATOM     22  C   UNL     1      -1.525 -53.193 125.159  0.00  0.00    +0.230 A 
ATOM     23  N   UNL     1      -1.731 -53.189 126.461  0.00  0.00    -0.209 NA
ATOM     39  N   UNL     1      -2.099 -54.164 124.461  0.00  0.00    -0.220 NA
ATOM     40  C   UNL     1      -1.930 -54.239 123.100  0.00  0.00    +0.126 A 
ATOM     41  C   UNL     1      -1.157 -53.286 122.478  0.00  0.00    +0.037 A 
ENDROOT
BRANCH   2   8
ATOM      8  C   UNL     1       0.730 -50.434 123.409  0.00  0.00    +0.053 A 
ATOM      9  C   UNL     1       0.072 -49.347 123.948  0.00  0.00    +0.026 A 
ATOM     10  C   UNL     1       0.795 -48.454 124.728  0.00  0.00    +0.004 A 
ATOM     11  C   UNL     1       2.148 -48.650 124.972  0.00  0.00    +0.023 A 
ATOM     12  C   UNL     1       2.792 -49.747 124.428  0.00  0.00    +0.035 A 
ATOM     19  C   UNL     1       2.071 -50.626 123.653  0.00  0.00    +0.049 A 
BRANCH  12  13
ATOM     13  N   UNL     1       4.080 -49.980 124.627  0.00  0.00    -0.285 N 
ATOM     14  H   UNL     1       4.650 -50.596 123.963  0.00  0.00    +0.155 HD
ATOM     15  C   UNL     1       4.627 -49.412 125.691  0.00  0.00    +0.217 C 
ATOM     16  O   UNL     1       4.008 -48.699 126.465  0.00  0.00    -0.276 OA
BRANCH  15  17
ATOM     17  C   UNL     1       6.101 -49.703 125.907  0.00  0.00    +0.093 C 
ATOM     18  C   UNL     1       6.344 -51.181 125.680  0.00  0.00    +0.013 C 
ENDBRANCH  15  17
ENDBRANCH  12  13
ENDBRANCH   2   8
BRANCH  23  24
ATOM     24  C   UNL     1      -1.235 -52.230 127.206  0.00  0.00    +0.109 A 
ATOM     25  C   UNL     1      -0.088 -51.534 126.897  0.00  0.00    +0.033 A 
ATOM     26  C   UNL     1       0.335 -50.553 127.783  0.00  0.00    +0.025 A 
ATOM     27  C   UNL     1      -0.381 -50.300 128.943  0.00  0.00    +0.033 A 
ATOM     35  C   UNL     1      -1.524 -51.010 129.243  0.00  0.00    +0.070 A 
ATOM     36  C   UNL     1      -1.933 -51.975 128.362  0.00  0.00    +0.147 A 
BRANCH  27  28
ATOM     28  N   UNL     1       0.008 -49.356 129.792  0.00  0.00    -0.327 N 
ATOM     29  C   UNL     1       1.363 -48.798 129.695  0.00  0.00    +0.120 C 
ATOM     30  C   UNL     1       1.829 -48.246 131.015  0.00  0.00    +0.103 C 
ATOM     31  N   UNL     1       0.789 -47.430 131.633  0.00  0.00    -0.302 NA
ATOM     32  C   UNL     1       1.334 -46.851 132.860  0.00  0.00    +0.105 C 
ATOM     33  C   UNL     1      -0.324 -48.298 131.997  0.00  0.00    +0.103 C 
ATOM     34  C   UNL     1      -0.975 -48.857 130.770  0.00  0.00    +0.120 C 
ENDBRANCH  27  28
BRANCH  36  37
ATOM     37  O   UNL     1      -3.033 -52.720 128.573  0.00  0.00    -0.493 OA
ATOM     38  C   UNL     1      -3.549 -52.485 129.871  0.00  0.00    +0.277 C 
ENDBRANCH  36  37
ENDBRANCH  23  24
TORSDOF 6
