REMARK  Name = BNJ
REMARK  4 active torsions:
REMARK  status: ('A' for Active; 'I' for Inactive)
REMARK    1  A    between atoms: CAT_5  and  NAM_6
REMARK    2  A    between atoms: NAM_6  and  SAU_7
REMARK    3  A    between atoms: SAU_7  and  CAQ_10
REMARK    4  A    between atoms: CAP_15  and  CAR_16
REMARK                            x       y       z     vdW  Elec       q    Type
REMARK                         _______ _______ _______ _____ _____    ______ ____
ROOT
ATOM      8  C   UNL     1       7.262  -7.477  -1.328  0.00  0.00    +0.124 A 
ATOM      9  C   UNL     1       6.232  -7.906  -0.500  0.00  0.00    +0.020 A 
ATOM     10  C   UNL     1       6.272  -7.623   0.870  0.00  0.00    +0.001 A 
ATOM     11  C   UNL     1       7.350  -6.907   1.384  0.00  0.00    +0.001 A 
ATOM     12  C   UNL     1       8.379  -6.489   0.548  0.00  0.00    +0.014 A 
ATOM     19  C   UNL     1       8.347  -6.761  -0.821  0.00  0.00    +0.021 A 
ENDROOT
BRANCH  12  13
ATOM     13  C   UNL     1       9.528  -5.707   1.101  0.00  0.00    +0.063 C 
ATOM     14  C   UNL     1       9.383  -4.832   2.197  0.00  0.00    +0.110 C 
ATOM     15  S   UNL     1      10.908  -4.150   2.461  0.00  0.00    -0.049 S 
ATOM     16  C   UNL     1      11.674  -4.952   1.186  0.00  0.00    +0.296 C 
ATOM     17  O   UNL     1      12.996  -4.839   0.847  0.00  0.00    -0.261 OA
ATOM     18  N   UNL     1      10.790  -5.760   0.551  0.00  0.00    -0.173 NA
ENDBRANCH  12  13
BRANCH   8   7
ATOM      7  S   UNL     1       7.183  -7.842  -3.083  0.00  0.00    +0.077 S 
ATOM     20  O   UNL     1       5.818  -8.349  -3.300  0.00  0.00    -0.152 OA
ATOM     21  O   UNL     1       7.401  -6.585  -3.815  0.00  0.00    -0.152 OA
BRANCH   7   6
ATOM      6  N   UNL     1       8.324  -8.969  -3.512  0.00  0.00    -0.079 NA
BRANCH   6   5
ATOM      1  C   UNL     1       8.622 -10.691  -1.904  0.00  0.00    +0.019 C 
ATOM      2  C   UNL     1       9.061 -12.118  -2.019  0.00  0.00    +0.002 C 
ATOM      3  C   UNL     1       9.170 -12.396  -3.501  0.00  0.00    +0.002 C 
ATOM      4  C   UNL     1       8.460 -11.271  -4.195  0.00  0.00    +0.019 C 
ATOM      5  C   UNL     1       7.971 -10.331  -3.170  0.00  0.00    +0.098 C 
ENDBRANCH   6   5
ENDBRANCH   7   6
ENDBRANCH   8   7
TORSDOF 4
