REMARK  Name = 3DV3
REMARK  12 active torsions:
REMARK  status: ('A' for Active; 'I' for Inactive)
REMARK    1  A    between atoms: N_1  and  O_27
REMARK    2  A    between atoms: C_5  and  C_8
REMARK    3  A    between atoms: C_8  and  O_26
REMARK    4  A    between atoms: C_9  and  C_28
REMARK    5  A    between atoms: C_9  and  O_29
REMARK    6  A    between atoms: C_10  and  O_14
REMARK    7  A    between atoms: C_10  and  C_15
REMARK    8  A    between atoms: C_12  and  C_13
REMARK    9  A    between atoms: C_13  and  O_14
REMARK   10  A    between atoms: C_15  and  O_16
REMARK   11  A    between atoms: C_19  and  N_20
REMARK   12  A    between atoms: O_27  and  C_28
REMARK                            x       y       z     vdW  Elec       q    Type
REMARK                         _______ _______ _______ _____ _____    ______ ____
ROOT
ATOM     10  C   UNL     1      38.995 -13.067   0.200  0.00  0.00    +0.068 A 
ATOM     11  C   UNL     1      38.841 -14.215   0.930  0.00  0.00    +0.115 A 
ATOM     21  C   UNL     1      37.776 -15.029   0.645  0.00  0.00    +0.185 A 
ATOM     22  F   UNL     1      37.569 -16.135   1.313  0.00  0.00    -0.200 F 
ATOM     23  C   UNL     1      36.913 -14.708  -0.361  0.00  0.00    +0.166 A 
ATOM     24  C   UNL     1      37.084 -13.580  -1.077  0.00  0.00    +0.017 A 
ATOM     31  F   UNL     1      35.898 -15.470  -0.676  0.00  0.00    -0.202 F 
ATOM     32  C   UNL     1      38.124 -12.749  -0.795  0.00  0.00    +0.024 A 
ENDROOT
BRANCH  11  12
ATOM     12  N   UNL     1      39.729 -14.457   1.905  0.00  0.00    -0.245 NA
ATOM     13  C   UNL     1      40.367 -15.602   2.206  0.00  0.00    +0.081 C 
ATOM     14  C   UNL     1      40.165 -16.780   1.534  0.00  0.00    +0.086 C 
ATOM     15  C   UNL     1      40.838 -17.918   1.885  0.00  0.00    -0.006 C 
ATOM     16  C   UNL     1      41.760 -17.933   2.926  0.00  0.00    +0.013 C 
ATOM     17  I   UNL     1      42.777 -19.685   3.455  0.00  0.00    -0.044 I 
ATOM     18  C   UNL     1      41.950 -16.728   3.594  0.00  0.00    +0.054 C 
ATOM     19  C   UNL     1      41.262 -15.592   3.236  0.00  0.00    +0.146 C 
ATOM     20  F   UNL     1      41.466 -14.463   3.874  0.00  0.00    -0.204 F 
ENDBRANCH  11  12
BRANCH  10   7
ATOM      1  N   UNL     1      40.581 -11.415  -0.521  0.00  0.00    -0.045 NA
ATOM      7  C   UNL     1      40.078 -12.101   0.458  0.00  0.00    +0.258 C 
BRANCH   7   8
ATOM      8  O   UNL     1      40.433 -11.910   1.567  0.00  0.00    -0.490 OA
ATOM      9  H   UNL     1      41.465 -12.091   1.641  0.00  0.00    +0.294 HD
ENDBRANCH   7   8
BRANCH   1   2
ATOM      2  O   UNL     1      41.550 -10.528  -0.250  0.00  0.00    -0.389 OA
BRANCH   2   3
ATOM      3  C   UNL     1      41.474  -9.159  -0.624  0.00  0.00    +0.290 C 
BRANCH   3   4
ATOM      4  C   UNL     1      42.019  -8.319   0.507  0.00  0.00    +0.199 C 
BRANCH   4   5
ATOM      5  O   UNL     1      41.155  -8.399   1.625  0.00  0.00    -0.392 OA
ATOM      6  H   UNL     1      40.203  -8.045   1.358  0.00  0.00    +0.209 HD
ENDBRANCH   4   5
ENDBRANCH   3   4
ENDBRANCH   2   3
ENDBRANCH   1   2
ENDBRANCH  10   7
BRANCH  24  25
ATOM     25  C   UNL     1      36.112 -13.248  -2.161  0.00  0.00    +0.198 C 
BRANCH  25  26
ATOM     26  O   UNL     1      36.754 -12.693  -3.263  0.00  0.00    -0.373 OA
BRANCH  26  27
ATOM     27  C   UNL     1      37.281 -13.750  -4.006  0.00  0.00    +0.188 C 
BRANCH  27  28
ATOM     28  C   UNL     1      38.188 -13.161  -5.044  0.00  0.00    +0.184 C 
BRANCH  28  29
ATOM     29  O   UNL     1      37.384 -12.420  -5.928  0.00  0.00    -0.393 OA
ATOM     30  H   UNL     1      36.676 -13.055  -6.374  0.00  0.00    +0.209 HD
ENDBRANCH  28  29
ENDBRANCH  27  28
ENDBRANCH  26  27
ENDBRANCH  25  26
ENDBRANCH  24  25
TORSDOF 12
