REMARK  Name = 4FV8
REMARK  5 active torsions:
REMARK  status: ('A' for Active; 'I' for Inactive)
REMARK    1  A    between atoms: C_6  and  N_11
REMARK    2  A    between atoms: C_15  and  N_16
REMARK    3  A    between atoms: N_16  and  C_17
REMARK    4  A    between atoms: N_25  and  C_26
REMARK    5  A    between atoms: C_28  and  C_31
REMARK                            x       y       z     vdW  Elec       q    Type
REMARK                         _______ _______ _______ _____ _____    ______ ____
ROOT
ATOM     10  N   UNL     1     -16.459   3.782  18.774  0.00  0.00    -0.283 N 
ATOM     11  H   UNL     1     -16.412   3.984  19.767  0.00  0.00    +0.155 HD
ATOM     12  C   UNL     1     -17.726   3.502  18.318  0.00  0.00    +0.221 A 
ATOM     13  N   UNL     1     -17.864   2.926  17.083  0.00  0.00    -0.197 NA
ATOM     14  C   UNL     1     -19.118   2.688  16.619  0.00  0.00    +0.150 A 
ATOM     15  N   UNL     1     -19.241   1.965  15.439  0.00  0.00    -0.283 N 
ATOM     16  H   UNL     1     -20.168   1.733  15.099  0.00  0.00    +0.155 HD
ATOM     26  C   UNL     1     -20.264   3.082  17.371  0.00  0.00    +0.090 A 
ATOM     35  C   UNL     1     -20.012   3.661  18.648  0.00  0.00    +0.141 A 
ATOM     36  N   UNL     1     -18.767   3.878  19.154  0.00  0.00    -0.221 NA
ENDROOT
BRANCH  10   9
ATOM      1  O   UNL     1     -11.111   3.277  14.935  0.00  0.00    -0.266 OA
ATOM      2  C   UNL     1     -11.602   3.161  16.051  0.00  0.00    +0.272 A 
ATOM      3  N   UNL     1     -10.871   2.666  17.183  0.00  0.00    -0.265 N 
ATOM      4  H   UNL     1     -10.388   1.779  17.109  0.00  0.00    +0.190 HD
ATOM      5  N   UNL     1     -11.706   2.672  18.366  0.00  0.00    -0.296 N 
ATOM      6  H   UNL     1     -11.735   1.737  18.761  0.00  0.00    +0.187 HD
ATOM      7  C   UNL     1     -12.959   3.176  17.948  0.00  0.00    +0.069 A 
ATOM      8  C   UNL     1     -14.095   3.380  18.729  0.00  0.00    +0.051 A 
ATOM      9  C   UNL     1     -15.239   3.848  18.098  0.00  0.00    +0.036 A 
ATOM     37  C   UNL     1     -15.209   4.147  16.699  0.00  0.00    +0.024 A 
ATOM     38  C   UNL     1     -14.060   3.957  15.936  0.00  0.00    +0.017 A 
ATOM     39  C   UNL     1     -12.932   3.467  16.564  0.00  0.00    +0.065 A 
ENDBRANCH  10   9
BRANCH  15  17
ATOM     17  C   UNL     1     -18.228   1.465  14.592  0.00  0.00    +0.120 A 
ATOM     18  N   UNL     1     -18.450   0.457  13.708  0.00  0.00    -0.264 N 
ATOM     19  H   UNL     1     -19.307  -0.057  13.571  0.00  0.00    +0.190 HD
ATOM     20  N   UNL     1     -17.375   0.143  12.982  0.00  0.00    -0.177 NA
ATOM     21  C   UNL     1     -16.408   0.967  13.384  0.00  0.00    +0.068 A 
ATOM     25  C   UNL     1     -16.883   1.828  14.412  0.00  0.00    +0.068 A 
BRANCH  21  22
ATOM     22  C   UNL     1     -15.098   0.942  12.767  0.00  0.00    +0.040 C 
ATOM     23  C   UNL     1     -14.328   2.245  12.664  0.00  0.00    +0.010 C 
ATOM     24  C   UNL     1     -13.913   1.183  13.672  0.00  0.00    +0.010 C 
ENDBRANCH  21  22
ENDBRANCH  15  17
BRANCH  26  27
ATOM     27  N   UNL     1     -21.553   2.893  16.854  0.00  0.00    -0.311 N 
ATOM     28  H   UNL     1     -21.803   1.936  16.629  0.00  0.00    +0.152 HD
BRANCH  27  29
ATOM     29  C   UNL     1     -22.452   3.903  16.487  0.00  0.00    +0.031 A 
ATOM     30  C   UNL     1     -23.644   3.525  15.827  0.00  0.00    +0.023 A 
ATOM     31  C   UNL     1     -24.656   4.471  15.643  0.00  0.00    +0.002 A 
ATOM     32  C   UNL     1     -24.498   5.790  16.098  0.00  0.00    +0.000 A 
ATOM     33  C   UNL     1     -23.295   6.177  16.710  0.00  0.00    +0.002 A 
ATOM     34  C   UNL     1     -22.260   5.263  16.899  0.00  0.00    +0.023 A 
ENDBRANCH  27  29
ENDBRANCH  26  27
TORSDOF 5
