REMARK  Name = 4QP7
REMARK  1 active torsions:
REMARK  status: ('A' for Active; 'I' for Inactive)
REMARK    1  A    between atoms: C_4  and  C_10
REMARK                            x       y       z     vdW  Elec       q    Type
REMARK                         _______ _______ _______ _____ _____    ______ ____
ROOT
ATOM      1  N   UNL     1      12.486  -8.789   0.900  0.00  0.00    -0.234 NA
ATOM      2  C   UNL     1      12.280  -9.191   2.190  0.00  0.00    +0.115 A 
ATOM      3  C   UNL     1      13.331  -9.914   2.619  0.00  0.00    +0.051 A 
ATOM      4  C   UNL     1      14.288  -9.982   1.513  0.00  0.00    +0.110 A 
ATOM      5  N   UNL     1      15.483 -10.548   1.355  0.00  0.00    -0.242 NA
ATOM      6  C   UNL     1      16.117 -10.434   0.191  0.00  0.00    +0.093 A 
ATOM     13  C   UNL     1      15.531  -9.706  -0.848  0.00  0.00    +0.141 A 
ATOM     14  N   UNL     1      14.349  -9.142  -0.697  0.00  0.00    -0.232 NA
ATOM     15  C   UNL     1      13.701  -9.255   0.455  0.00  0.00    +0.178 A 
ENDROOT
BRANCH   6   7
ATOM      7  C   UNL     1      17.458 -11.041  -0.012  0.00  0.00    +0.039 A 
ATOM      8  C   UNL     1      17.998 -11.504  -1.230  0.00  0.00    +0.144 A 
ATOM      9  N   UNL     1      19.205 -11.952  -0.998  0.00  0.00    -0.182 NA
ATOM     10  N   UNL     1      19.483 -11.779   0.365  0.00  0.00    -0.284 N 
ATOM     11  H   UNL     1      20.395 -12.047   0.857  0.00  0.00    +0.188 HD
ATOM     12  C   UNL     1      18.408 -11.218   0.950  0.00  0.00    +0.115 A 
ENDBRANCH   6   7
TORSDOF 1
