REMARK  Name = 4RLP
REMARK  6 active torsions:
REMARK  status: ('A' for Active; 'I' for Inactive)
REMARK    1  A    between atoms: C_3  and  S_13
REMARK    2  A    between atoms: C_7  and  N_18
REMARK    3  A    between atoms: RU_8  and  N_17
REMARK    4  A    between atoms: O_16  and  C_29
REMARK    5  A    between atoms: O_16  and  C_39
REMARK    6  A    between atoms: N_18  and  C_35
REMARK                            x       y       z     vdW  Elec       q    Type
REMARK                         _______ _______ _______ _____ _____    ______ ____
ROOT
ATOM      1  N   UNL     1      75.940  30.738   5.551  0.00  0.00    +0.000 N 
ATOM      2  C   UNL     1      77.016  31.414   5.034  0.00  0.00    +0.000 A 
ATOM      3  C   UNL     1      78.021  31.978   5.833  0.00  0.00    +0.000 A 
ATOM      4  C   UNL     1      79.093  32.665   5.220  0.00  0.00    +0.000 A 
ATOM      5  C   UNL     1      79.057  32.723   3.819  0.00  0.00    +0.000 A 
ATOM      6  C   UNL     1      78.078  32.176   3.040  0.00  0.00    +0.000 A 
ATOM      7  C   UNL     1      78.370  32.433   1.639  0.00  0.00    +0.000 A 
ATOM      8  N   UNL     1      79.550  33.150   1.623  0.00  0.00    +0.000 N 
ATOM      9  H   UNL     1      80.034  33.497   0.734  0.00  0.00    +0.000 HD
ATOM     10  O   UNL     1      77.758  32.115   0.630  0.00  0.00    +0.000 OA
ATOM     11  C   UNL     1      80.023  33.361   2.897  0.00  0.00    +0.000 A 
ATOM     12  O   UNL     1      81.077  33.988   3.158  0.00  0.00    +0.000 OA
ATOM     13  C   UNL     1      80.044  33.197   6.063  0.00  0.00    +0.000 C 
ATOM     14  C   UNL     1      79.872  33.007   7.457  0.00  0.00    +0.000 C 
ATOM     15  C   UNL     1      78.853  32.356   7.995  0.00  0.00    +0.000 C 
ATOM     16  F   UNL     1      80.785  33.513   8.297  0.00  0.00    +0.000 F 
ATOM     17  N   UNL     1      77.885  31.820   7.192  0.00  0.00    +0.000 N 
ATOM     18  C   UNL     1      77.001  31.483   3.658  0.00  0.00    +0.000 A 
ATOM     19  C   UNL     1      75.851  30.809   3.222  0.00  0.00    +0.000 A 
ATOM     20  C   UNL     1      75.341  30.563   2.030  0.00  0.00    +0.000 A 
ATOM     21  C   UNL     1      74.170  29.861   1.883  0.00  0.00    +0.000 A 
ATOM     22  C   UNL     1      73.526  29.409   2.990  0.00  0.00    +0.000 A 
ATOM     23  C   UNL     1      74.048  29.651   4.325  0.00  0.00    +0.000 A 
ATOM     26  C   UNL     1      75.218  30.358   4.440  0.00  0.00    +0.000 A 
ATOM     27 RU   UNL     1      76.129  30.704   7.656  0.00  0.00    +0.000 Ru
ATOM     32  S   UNL     1      77.416  28.833   7.584  0.00  0.00    +0.000 S 
ATOM     33  C   UNL     1      78.167  28.688   9.237  0.00  0.00    +0.000 C 
ATOM     34  C   UNL     1      77.570  29.300  10.324  0.00  0.00    +0.000 C 
ATOM     35  C   UNL     1      76.280  27.451   7.488  0.00  0.00    +0.000 C 
ATOM     36  C   UNL     1      74.935  27.638   8.207  0.00  0.00    +0.000 C 
ATOM     37  S   UNL     1      76.573  30.847   9.902  0.00  0.00    +0.000 S 
ATOM     38  C   UNL     1      75.133  30.683  10.968  0.00  0.00    +0.000 C 
ATOM     39  C   UNL     1      74.132  29.556  10.681  0.00  0.00    +0.000 C 
ATOM     43  C   UNL     1      73.408  29.615   9.349  0.00  0.00    +0.000 C 
ATOM     44  S   UNL     1      74.318  29.319   7.854  0.00  0.00    +0.000 S 
ENDROOT
BRANCH  39  40
ATOM     40  N   UNL     1      73.205  29.234  11.848  0.00  0.00    +0.000 NA
ATOM     41  H   UNL     1      73.303  30.006  12.583  0.00  0.00    +0.000 HD
ATOM     42  C   UNL     1      73.516  27.885  12.513  0.00  0.00    +0.000 C 
ENDBRANCH  39  40
BRANCH  21  24
ATOM     24  O   UNL     1      73.530  29.539   0.694  0.00  0.00    +0.000 OA
ATOM     25  C   UNL     1      74.280  29.890  -0.547  0.00  0.00    +0.000 C 
ENDBRANCH  21  24
BRANCH  27  28
ATOM     28  N   UNL     1      75.099  32.405   7.894  0.00  0.00    +1.000 NA
ATOM     29  C   UNL     1      75.289  33.178   8.972  0.00  0.00    +0.000 C 
BRANCH  29  30
ATOM     30  S   UNL     1      75.534  34.078  10.237  0.00  0.00    +0.000 S 
ATOM     31  H   UNL     1      74.528  34.799  10.751  0.00  0.00    +0.000 HD
ENDBRANCH  29  30
ENDBRANCH  27  28
TORSDOF 4
