REMARK  Name = 4X7L
REMARK  9 active torsions:
REMARK  status: ('A' for Active; 'I' for Inactive)
REMARK    1  A    between atoms: C_1  and  N_2
REMARK    2  A    between atoms: C_11  and  C_12
REMARK    3  A    between atoms: C_13  and  N_14
REMARK    4  A    between atoms: C_15  and  C_16
REMARK    5  A    between atoms: C_19  and  C_20
REMARK    6  A    between atoms: C_20  and  C_22
REMARK    7  A    between atoms: N_25  and  C_26
REMARK    8  A    between atoms: N_32  and  C_33
REMARK    9  A    between atoms: C_34  and  C_35
REMARK                            x       y       z     vdW  Elec       q    Type
REMARK                         _______ _______ _______ _____ _____    ______ ____
ROOT
ATOM     10  C   UNL     1      26.818   9.064   2.044  0.00  0.00    +0.006 A 
ATOM     11  C   UNL     1      25.494   8.590   2.151  0.00  0.00    -0.041 A 
ATOM     12  C   UNL     1      24.829   8.599   3.382  0.00  0.00    +0.005 A 
ATOM     13  C   UNL     1      25.466   9.106   4.512  0.00  0.00    +0.014 A 
ATOM     14  C   UNL     1      26.783   9.583   4.421  0.00  0.00    +0.044 A 
ATOM     36  C   UNL     1      24.723   8.039   0.933  0.00  0.00    +0.044 C 
ATOM     37  C   UNL     1      27.452   9.579   3.184  0.00  0.00    +0.044 A 
ENDROOT
BRANCH  10   9
ATOM      1  C   UNL     1      31.034   6.946  -4.902  0.00  0.00    +0.173 C 
ATOM      2  N   UNL     1      30.297   8.185  -4.587  0.00  0.00    -0.264 NA
ATOM      3  C   UNL     1      29.676   8.342  -3.408  0.00  0.00    +0.167 A 
ATOM      4  S   UNL     1      29.519   7.202  -2.161  0.00  0.00    -0.050 S 
ATOM      5  C   UNL     1      28.631   8.218  -1.130  0.00  0.00    +0.039 A 
ATOM      6  C   UNL     1      28.512   9.451  -1.804  0.00  0.00    +0.055 A 
ATOM      7  C   UNL     1      27.842  10.491  -1.171  0.00  0.00    +0.027 A 
ATOM      8  C   UNL     1      27.310  10.311   0.098  0.00  0.00    +0.010 A 
ATOM      9  C   UNL     1      27.439   9.098   0.780  0.00  0.00    -0.015 A 
ATOM     41  C   UNL     1      28.103   8.036   0.156  0.00  0.00    +0.025 A 
ATOM     42  N   UNL     1      29.076   9.473  -3.030  0.00  0.00    -0.334 N 
ATOM     43  H   UNL     1      29.044  10.339  -3.657  0.00  0.00    +0.168 HD
ENDBRANCH  10   9
BRANCH  37  38
ATOM     38  N   UNL     1      28.711  10.049   3.098  0.00  0.00    -0.357 N 
ATOM     39  H   UNL     1      29.196  10.442   3.967  0.00  0.00    +0.142 HD
ATOM     40  H   UNL     1      29.227  10.029   2.161  0.00  0.00    +0.142 HD
ENDBRANCH  37  38
BRANCH  14  15
ATOM     15  C   UNL     1      27.491  10.160   5.667  0.00  0.00    +0.202 C 
ATOM     35  O   UNL     1      28.432  10.947   5.500  0.00  0.00    -0.286 OA
BRANCH  15  16
ATOM     16  C   UNL     1      27.028   9.880   7.105  0.00  0.00    +0.114 A 
ATOM     17  C   UNL     1      27.178  10.746   8.190  0.00  0.00    +0.082 A 
ATOM     24  N   UNL     1      26.656  10.096   9.245  0.00  0.00    -0.279 N 
ATOM     25  C   UNL     1      26.603  10.704  10.594  0.00  0.00    +0.171 C 
ATOM     26  N   UNL     1      26.192   8.976   8.931  0.00  0.00    -0.216 N 
ATOM     33  C   UNL     1      26.394   8.751   7.632  0.00  0.00    +0.283 A 
ATOM     34  O   UNL     1      26.072   7.720   7.034  0.00  0.00    -0.265 OA
BRANCH  17  18
ATOM     18  C   UNL     1      27.778  12.023   8.199  0.00  0.00    +0.001 A 
ATOM     19  C   UNL     1      27.301  13.101   7.458  0.00  0.00    +0.010 A 
ATOM     20  C   UNL     1      27.949  14.343   7.539  0.00  0.00    +0.001 A 
ATOM     21  C   UNL     1      29.067  14.522   8.357  0.00  0.00    +0.000 A 
ATOM     22  C   UNL     1      29.545  13.451   9.111  0.00  0.00    +0.001 A 
ATOM     23  C   UNL     1      28.901  12.211   9.026  0.00  0.00    +0.010 A 
ENDBRANCH  17  18
BRANCH  26  27
ATOM     27  C   UNL     1      25.643   8.069   9.766  0.00  0.00    +0.067 A 
ATOM     28  C   UNL     1      24.284   7.759   9.778  0.00  0.00    +0.028 A 
ATOM     29  C   UNL     1      23.800   6.791  10.668  0.00  0.00    +0.002 A 
ATOM     30  C   UNL     1      24.668   6.116  11.533  0.00  0.00    +0.000 A 
ATOM     31  C   UNL     1      26.036   6.413  11.524  0.00  0.00    +0.002 A 
ATOM     32  C   UNL     1      26.511   7.383  10.630  0.00  0.00    +0.028 A 
ENDBRANCH  26  27
ENDBRANCH  15  16
ENDBRANCH  14  15
TORSDOF 6
