REMARK  Name = 3NG
REMARK  2 active torsions:
REMARK  status: ('A' for Active; 'I' for Inactive)
REMARK    1  A    between atoms: C5_5  and  C23_23
REMARK    2  A    between atoms: N15_15  and  C16_16
REMARK                            x       y       z     vdW  Elec       q    Type
REMARK                         _______ _______ _______ _____ _____    ______ ____
ROOT
ATOM      1  C   UNL     1      10.397  90.520  36.720  0.00  0.00    +0.083 A 
ATOM      2  C   UNL     1       9.951  89.301  37.282  0.00  0.00    +0.019 A 
ATOM      3  C   UNL     1       8.591  89.211  37.667  0.00  0.00    +0.002 A 
ATOM      4  C   UNL     1       7.714  90.288  37.507  0.00  0.00    +0.007 A 
ATOM      5  C   UNL     1       8.175  91.495  36.962  0.00  0.00    +0.081 A 
ATOM      9  C   UNL     1      10.885  88.257  37.412  0.00  0.00    +0.023 A 
ATOM     10  C   UNL     1      10.554  86.988  37.935  0.00  0.00    +0.099 A 
ATOM     11  N   UNL     1      11.475  86.005  38.052  0.00  0.00    -0.242 NA
ATOM     12  C   UNL     1      12.758  86.191  37.661  0.00  0.00    +0.099 A 
ATOM     13  C   UNL     1      13.153  87.418  37.115  0.00  0.00    +0.024 A 
ATOM     14  C   UNL     1      12.223  88.466  36.991  0.00  0.00    +0.036 A 
ATOM     15  C   UNL     1      12.614  89.705  36.437  0.00  0.00    +0.152 A 
ATOM     16  N   UNL     1      13.906  89.902  36.019  0.00  0.00    -0.194 NA
ATOM     23  C   UNL     1       9.519  91.601  36.576  0.00  0.00    +0.026 A 
ATOM     24  N   UNL     1      11.692  90.700  36.324  0.00  0.00    -0.229 NA
ENDROOT
BRANCH  16  17
ATOM     17  C   UNL     1      14.475  91.075  35.640  0.00  0.00    +0.072 A 
ATOM     18  C   UNL     1      14.201  92.277  36.310  0.00  0.00    +0.017 A 
ATOM     19  C   UNL     1      14.804  93.465  35.903  0.00  0.00    +0.001 A 
ATOM     20  C   UNL     1      15.706  93.484  34.828  0.00  0.00    +0.000 A 
ATOM     21  C   UNL     1      15.992  92.291  34.155  0.00  0.00    +0.001 A 
ATOM     22  C   UNL     1      15.382  91.096  34.571  0.00  0.00    +0.017 A 
ENDBRANCH  16  17
BRANCH   5   6
ATOM      6  C   UNL     1       7.222  92.653  36.772  0.00  0.00    +0.388 C 
ATOM      7  O   UNL     1       5.918  92.392  36.680  0.00  0.00    -0.241 OA
ATOM      8  O   UNL     1       7.637  93.797  36.669  0.00  0.00    -0.241 OA
ENDBRANCH   5   6
TORSDOF 2
