REMARK  Name = 5TTU
REMARK  3 active torsions:
REMARK  status: ('A' for Active; 'I' for Inactive)
REMARK    1  A    between atoms: C_10  and  C_22
REMARK    2  A    between atoms: C_13  and  N_16
REMARK    3  A    between atoms: C_20  and  C_22
REMARK                            x       y       z     vdW  Elec       q    Type
REMARK                         _______ _______ _______ _____ _____    ______ ____
ROOT
ATOM      6  N   UNL     1      -0.940  15.869  -4.595  0.00  0.00    -0.310 N 
ATOM      7  C   UNL     1      -1.013  17.329  -4.793  0.00  0.00    +0.095 C 
ATOM      8  C   UNL     1      -0.261  17.852  -6.013  0.00  0.00    +0.130 C 
ATOM      9  N   UNL     1      -0.682  19.223  -6.310  0.00  0.00    -0.300 N 
ATOM     10  C   UNL     1       0.181  20.262  -6.274  0.00  0.00    +0.216 C 
ATOM     13  O   UNL     1       1.339  20.119  -5.911  0.00  0.00    -0.276 OA
ATOM     14  C   UNL     1      -2.126  19.288  -6.565  0.00  0.00    +0.108 C 
ATOM     15  C   UNL     1      -2.947  18.923  -5.319  0.00  0.00    +0.024 C 
ATOM     16  C   UNL     1      -2.535  17.534  -4.806  0.00  0.00    +0.014 C 
ATOM     17  C   UNL     1      -3.056  16.316  -5.576  0.00  0.00    +0.024 C 
ATOM     18  C   UNL     1      -2.097  15.191  -5.192  0.00  0.00    +0.107 C 
ENDROOT
BRANCH   6   5
ATOM      1  N   UNL     1       1.387  11.920  -3.590  0.00  0.00    -0.235 NA
ATOM      2  C   UNL     1       0.156  11.540  -4.061  0.00  0.00    +0.114 A 
ATOM      3  C   UNL     1      -0.600  12.632  -4.328  0.00  0.00    +0.035 A 
ATOM      4  C   UNL     1       0.217  13.789  -4.031  0.00  0.00    +0.060 A 
ATOM      5  C   UNL     1       0.249  15.206  -4.084  0.00  0.00    +0.134 A 
ATOM     19  N   UNL     1       1.287  15.983  -3.723  0.00  0.00    -0.220 NA
ATOM     20  C   UNL     1       2.369  15.317  -3.303  0.00  0.00    +0.225 A 
ATOM     21  N   UNL     1       2.547  13.995  -3.163  0.00  0.00    -0.216 NA
ATOM     22  C   UNL     1       1.479  13.277  -3.543  0.00  0.00    +0.165 A 
ENDBRANCH   6   5
BRANCH  10  11
ATOM     11  C   UNL     1      -0.329  21.624  -6.685  0.00  0.00    +0.096 C 
ATOM     12  C   UNL     1      -0.230  21.769  -8.190  0.00  0.00    +0.010 C 
ENDBRANCH  10  11
TORSDOF 2
