REMARK  Name = IRE
REMARK  14 active torsions:
REMARK  status: ('A' for Active; 'I' for Inactive)
REMARK    1  A    between atoms: NBE_6  and  CAN_7
REMARK    2  A    between atoms: CAN_7  and  CAJ_8
REMARK    3  A    between atoms: CAJ_8  and  CAK_9
REMARK    4  A    between atoms: CAK_9  and  OAV_10
REMARK    5  A    between atoms: OAV_10  and  CBA_11
REMARK    6  A    between atoms: CAZ_12  and  OAT_14
REMARK    7  A    between atoms: NAS_23  and  CAY_24
REMARK    8  A    between atoms: NBE_37  and  CAN_38
REMARK    9  A    between atoms: CAN_38  and  CAJ_39
REMARK   10  A    between atoms: CAJ_39  and  CAK_40
REMARK   11  A    between atoms: CAK_40  and  OAV_41
REMARK   12  A    between atoms: OAV_41  and  CBA_42
REMARK   13  A    between atoms: CAZ_43  and  OAT_45
REMARK   14  A    between atoms: NAS_54  and  CAY_55
REMARK                            x       y       z     vdW  Elec       q    Type
REMARK                         _______ _______ _______ _____ _____    ______ ____
ROOT
ATOM     11  C   UNL     1     -13.290 -14.851  18.682  0.00  0.00    +0.172 A 
ATOM     12  C   UNL     1     -14.582 -14.531  19.121  0.00  0.00    +0.044 A 
ATOM     13  C   UNL     1     -15.806 -14.788  18.402  0.00  0.00    +0.054 A 
ATOM     14  C   UNL     1     -17.172 -14.448  18.867  0.00  0.00    +0.155 A 
ATOM     15  N   UNL     1     -17.418 -13.814  20.117  0.00  0.00    -0.194 NA
ATOM     24  N   UNL     1     -18.256 -14.746  18.093  0.00  0.00    -0.207 NA
ATOM     25  C   UNL     1     -18.024 -15.370  16.869  0.00  0.00    +0.200 A 
ATOM     26  N   UNL     1     -16.832 -15.715  16.364  0.00  0.00    -0.224 NA
ATOM     27  C   UNL     1     -15.689 -15.422  17.136  0.00  0.00    +0.089 A 
ATOM     28  C   UNL     1     -14.359 -15.762  16.665  0.00  0.00    +0.059 A 
ATOM     29  C   UNL     1     -13.199 -15.499  17.381  0.00  0.00    +0.174 A 
ENDROOT
BRANCH  15  16
ATOM     16  C   UNL     1     -18.661 -13.767  20.876  0.00  0.00    +0.073 A 
ATOM     17  C   UNL     1     -19.052 -12.639  21.618  0.00  0.00    +0.019 A 
ATOM     18  C   UNL     1     -20.241 -12.609  22.341  0.00  0.00    +0.032 A 
ATOM     19  C   UNL     1     -21.124 -13.692  22.378  0.00  0.00    +0.151 A 
ATOM     20  F   UNL     1     -22.214 -13.633  23.053  0.00  0.00    -0.203 F 
ATOM     21  C   UNL     1     -20.742 -14.828  21.639  0.00  0.00    +0.086 A 
ATOM     22 CL   UNL     1     -21.805 -16.215  21.645  0.00  0.00    -0.080 Cl
ATOM     23  C   UNL     1     -19.556 -14.848  20.928  0.00  0.00    +0.030 A 
ENDBRANCH  15  16
BRANCH  29  30
ATOM     30  O   UNL     1     -11.940 -15.834  16.912  0.00  0.00    -0.468 OA
ATOM     31  C   UNL     1     -11.769 -17.094  16.237  0.00  0.00    +0.253 C 
ENDBRANCH  29  30
BRANCH  11  10
ATOM     10  O   UNL     1     -12.186 -14.540  19.483  0.00  0.00    -0.472 OA
BRANCH  10   9
ATOM      9  C   UNL     1     -12.394 -13.947  20.781  0.00  0.00    +0.207 C 
BRANCH   9   8
ATOM      8  C   UNL     1     -11.509 -12.711  21.068  0.00  0.00    +0.065 C 
BRANCH   8   7
ATOM      7  C   UNL     1     -11.076 -12.701  22.547  0.00  0.00    +0.076 C 
BRANCH   7   6
ATOM      1  C   UNL     1      -9.165 -11.568  23.273  0.00  0.00    +0.105 C 
ATOM      2  C   UNL     1      -7.653 -11.541  23.159  0.00  0.00    +0.159 C 
ATOM      3  O   UNL     1      -7.107 -12.673  23.815  0.00  0.00    -0.351 OA
ATOM      4  C   UNL     1      -7.649 -13.901  23.359  0.00  0.00    +0.159 C 
ATOM      5  C   UNL     1      -9.177 -13.884  23.395  0.00  0.00    +0.105 C 
ATOM      6  N   UNL     1      -9.593 -12.763  22.525  0.00  0.00    -0.268 NA
ENDBRANCH   7   6
ENDBRANCH   8   7
ENDBRANCH   9   8
ENDBRANCH  10   9
ENDBRANCH  11  10
TORSDOF 7
