REMARK  Name = 5ID
REMARK  2 active torsions:
REMARK  status: ('A' for Active; 'I' for Inactive)
REMARK    1  A    between atoms: C5'_2  and  C4'_3
REMARK    2  A    between atoms: C1'_5  and  N9_6
REMARK                            x       y       z     vdW  Elec       q    Type
REMARK                         _______ _______ _______ _____ _____    ______ ____
ROOT
ATOM      6  N   UNL     1      13.215 -10.881 -13.003  0.00  0.00    -0.286 N 
ATOM      7  C   UNL     1      12.583 -10.904 -11.793  0.00  0.00    +0.085 A 
ATOM      8  C   UNL     1      11.678 -11.921 -11.843  0.00  0.00    +0.053 A 
ATOM      9  I   UNL     1      10.455 -12.516 -10.236  0.00  0.00    -0.041 I 
ATOM     10  C   UNL     1      11.690 -12.525 -13.125  0.00  0.00    +0.076 A 
ATOM     11  C   UNL     1      11.039 -13.577 -13.783  0.00  0.00    +0.175 A 
ATOM     12  N   UNL     1      10.061 -14.289 -13.186  0.00  0.00    -0.107 NA
ATOM     13  N   UNL     1      11.389 -13.849 -15.056  0.00  0.00    -0.206 NA
ATOM     14  C   UNL     1      12.342 -13.150 -15.706  0.00  0.00    +0.202 A 
ATOM     15  N   UNL     1      12.991 -12.170 -15.086  0.00  0.00    -0.206 NA
ATOM     16  C   UNL     1      12.672 -11.831 -13.821  0.00  0.00    +0.151 A 
ENDROOT
BRANCH   6   5
ATOM      3  C4* UNL     1      14.843  -8.130 -12.377  0.00  0.00    +0.183 C 
ATOM      4  O4* UNL     1      14.754  -9.521 -12.253  0.00  0.00    -0.331 OA
ATOM      5  C1* UNL     1      14.263  -9.973 -13.557  0.00  0.00    +0.240 C 
ATOM     17  C2* UNL     1      13.637  -8.767 -14.244  0.00  0.00    +0.234 C 
ATOM     18  O2* UNL     1      14.729  -8.235 -15.045  0.00  0.00    -0.216 OA
ATOM     19  C3* UNL     1      13.510  -7.844 -13.042  0.00  0.00    +0.216 C 
ATOM     20  O3* UNL     1      13.495  -6.426 -13.474  0.00  0.00    -0.218 OA
BRANCH   3   2
ATOM      1  O5* UNL     1      13.444  -8.086 -10.264  0.00  0.00    -0.218 OA
ATOM      2  C5* UNL     1      14.592  -7.540 -10.969  0.00  0.00    +0.214 C 
ENDBRANCH   3   2
ENDBRANCH   6   5
TORSDOF 2
