REMARK  Name = 5L3A
REMARK  3 active torsions:
REMARK  status: ('A' for Active; 'I' for Inactive)
REMARK    1  A    between atoms: S_8  and  C_10
REMARK    2  A    between atoms: S_8  and  N_11
REMARK    3  A    between atoms: N_11  and  C_12
REMARK                            x       y       z     vdW  Elec       q    Type
REMARK                         _______ _______ _______ _____ _____    ______ ____
ROOT
ATOM      1  C   UNL     1      12.850 -18.830 -20.081  0.00  0.00    +0.042 A 
ATOM      2  C   UNL     1      13.493 -17.648 -20.466  0.00  0.00    +0.058 A 
ATOM      9  C   UNL     1      14.873 -17.604 -20.454  0.00  0.00    +0.025 A 
ATOM     10  C   UNL     1      15.644 -18.765 -20.063  0.00  0.00    +0.004 A 
ATOM     11  C   UNL     1      15.042 -19.948 -19.687  0.00  0.00    +0.028 A 
ATOM     12  C   UNL     1      11.526 -19.177 -20.024  0.00  0.00    +0.144 A 
ATOM     13  N   UNL     1      11.522 -20.464 -19.642  0.00  0.00    -0.181 NA
ATOM     14  N   UNL     1      12.741 -21.004 -19.410  0.00  0.00    -0.277 N 
ATOM     15  H   UNL     1      12.971 -21.996 -19.082  0.00  0.00    +0.189 HD
ATOM     16  C   UNL     1      13.612 -19.985 -19.693  0.00  0.00    +0.068 A 
ENDROOT
BRANCH   2   3
ATOM      3  N   UNL     1      12.622 -16.614 -20.925  0.00  0.00    -0.220 N 
ATOM      4  H   UNL     1      11.764 -16.937 -21.477  0.00  0.00    +0.173 HD
BRANCH   3   5
ATOM      5  S   UNL     1      12.766 -15.015 -20.717  0.00  0.00    +0.040 S 
ATOM      6  C   UNL     1      13.574 -14.699 -19.260  0.00  0.00    +0.218 C 
ATOM      7  O   UNL     1      11.449 -14.487 -20.642  0.00  0.00    -0.156 OA
ATOM      8  O   UNL     1      13.629 -14.619 -21.769  0.00  0.00    -0.156 OA
ENDBRANCH   3   5
ENDBRANCH   2   3
TORSDOF 2
