REMARK  Name = 5AP0
REMARK  8 active torsions:
REMARK  status: ('A' for Active; 'I' for Inactive)
REMARK    1  A    between atoms: N_3  and  C_4
REMARK    2  A    between atoms: N_8  and  C_9
REMARK    3  A    between atoms: N_17  and  C_18
REMARK    4  A    between atoms: C_19  and  O_20
REMARK    5  A    between atoms: O_20  and  C_21
REMARK    6  A    between atoms: C_23  and  O_26
REMARK    7  A    between atoms: O_26  and  C_27
REMARK    8  A    between atoms: N_30  and  C_31
REMARK                            x       y       z     vdW  Elec       q    Type
REMARK                         _______ _______ _______ _____ _____    ______ ____
ROOT
ATOM      1  O   UNL     1      -2.827  15.945 -18.002  0.00  0.00    -0.246 OA
ATOM      2  C   UNL     1      -2.090  14.991 -18.004  0.00  0.00    +0.331 A 
ATOM      3  N   UNL     1      -1.450  14.394 -16.886  0.00  0.00    -0.273 N 
ATOM      4  C   UNL     1      -0.705  13.303 -17.342  0.00  0.00    +0.167 A 
ATOM      5  N   UNL     1       0.026  12.452 -16.603  0.00  0.00    -0.195 NA
ATOM      6  C   UNL     1       0.614  11.481 -17.379  0.00  0.00    +0.222 A 
ATOM      7  N   UNL     1       1.347  10.480 -16.778  0.00  0.00    -0.281 N 
ATOM      8  H   UNL     1       1.773   9.755 -17.440  0.00  0.00    +0.155 HD
ATOM     25  N   UNL     1       0.546  11.333 -18.753  0.00  0.00    -0.221 NA
ATOM     26  C   UNL     1      -0.206  12.215 -19.420  0.00  0.00    +0.144 A 
ATOM     27  C   UNL     1      -0.866  13.224 -18.759  0.00  0.00    +0.107 A 
ATOM     33  N   UNL     1      -1.720  14.258 -19.149  0.00  0.00    -0.292 N 
ATOM     34  C   UNL     1      -2.187  14.557 -20.488  0.00  0.00    +0.154 C 
ENDROOT
BRANCH   7   9
ATOM      9  C   UNL     1       1.609  10.285 -15.410  0.00  0.00    +0.076 A 
ATOM     10  C   UNL     1       1.956  11.386 -14.616  0.00  0.00    +0.030 A 
ATOM     11  C   UNL     1       2.237  11.215 -13.273  0.00  0.00    +0.048 A 
ATOM     12  C   UNL     1       2.178   9.932 -12.718  0.00  0.00    +0.125 A 
ATOM     21  C   UNL     1       1.824   8.838 -13.476  0.00  0.00    +0.093 A 
ATOM     22  C   UNL     1       1.541   9.029 -14.818  0.00  0.00    +0.145 A 
BRANCH  22  23
ATOM     23  O   UNL     1       1.165   7.945 -15.557  0.00  0.00    -0.493 OA
ATOM     24  C   UNL     1       2.167   6.966 -15.641  0.00  0.00    +0.277 C 
ENDBRANCH  22  23
BRANCH  12  13
ATOM     13  O   UNL     1       2.542   9.789 -11.413  0.00  0.00    -0.489 OA
BRANCH  13  14
ATOM     14  C   UNL     1       1.812  10.491 -10.435  0.00  0.00    +0.176 C 
ATOM     15  C   UNL     1       0.581   9.625 -10.148  0.00  0.00    +0.060 C 
ATOM     16  C   UNL     1      -0.152  10.175  -8.911  0.00  0.00    +0.087 C 
ATOM     17  N   UNL     1       0.696  10.271  -7.698  0.00  0.00    -0.305 NA
ATOM     18  C   UNL     1      -0.042  10.796  -6.522  0.00  0.00    +0.105 C 
ATOM     19  C   UNL     1       1.897  11.081  -7.999  0.00  0.00    +0.087 C 
ATOM     20  C   UNL     1       2.703  10.543  -9.186  0.00  0.00    +0.060 C 
ENDBRANCH  13  14
ENDBRANCH  12  13
ENDBRANCH   7   9
BRANCH   3  28
ATOM     28  C   UNL     1      -1.544  14.866 -15.498  0.00  0.00    +0.101 C 
ATOM     29  C   UNL     1      -2.066  13.777 -14.553  0.00  0.00    +0.052 C 
ATOM     30  C   UNL     1      -1.404  14.011 -13.197  0.00  0.00    -0.029 C 
ATOM     31  C   UNL     1      -0.253  14.989 -13.421  0.00  0.00    -0.029 C 
ATOM     32  C   UNL     1      -0.174  15.254 -14.921  0.00  0.00    +0.052 C 
ENDBRANCH   3  28
TORSDOF 5
