REMARK  Name = 5TQ8
REMARK  6 active torsions:
REMARK  status: ('A' for Active; 'I' for Inactive)
REMARK    1  A    between atoms: C_2  and  O_15
REMARK    2  A    between atoms: C_4  and  C_18
REMARK    3  A    between atoms: C_6  and  C_8
REMARK    4  A    between atoms: C_12  and  C_13
REMARK    5  A    between atoms: C_13  and  C_14
REMARK    6  A    between atoms: C_29  and  C_31
REMARK                            x       y       z     vdW  Elec       q    Type
REMARK                         _______ _______ _______ _____ _____    ______ ____
ROOT
ATOM     15  C   UNL     1       4.362  -4.189  12.117  0.00  0.00    +0.160 A 
ATOM     16  N   UNL     1       3.997  -5.339  12.680  0.00  0.00    -0.340 N 
ATOM     17  H   UNL     1       3.133  -5.505  13.289  0.00  0.00    +0.167 HD
ATOM     18  C   UNL     1       4.903  -6.233  12.343  0.00  0.00    +0.042 A 
ATOM     19  C   UNL     1       4.894  -7.672  12.789  0.00  0.00    +0.074 C 
ATOM     20  C   UNL     1       5.939  -8.354  11.990  0.00  0.00    +0.114 C 
ATOM     21  N   UNL     1       7.170  -7.653  11.685  0.00  0.00    -0.290 N 
ATOM     22  C   UNL     1       8.364  -8.160  12.041  0.00  0.00    +0.267 C 
ATOM     35  O   UNL     1       8.429  -9.202  12.661  0.00  0.00    -0.268 OA
ATOM     36  C   UNL     1       7.046  -6.313  10.999  0.00  0.00    +0.165 C 
ATOM     37  C   UNL     1       5.842  -5.633  11.604  0.00  0.00    +0.080 A 
ATOM     38  N   UNL     1       5.452  -4.341  11.449  0.00  0.00    -0.229 NA
ENDROOT
BRANCH  22  23
ATOM     23  C   UNL     1       9.662  -7.645  11.743  0.00  0.00    +0.144 A 
ATOM     24  N   UNL     1      10.674  -7.627  12.597  0.00  0.00    -0.245 NA
ATOM     25  C   UNL     1      11.855  -7.169  12.223  0.00  0.00    +0.155 A 
ATOM     26  C   UNL     1      12.111  -6.728  10.898  0.00  0.00    +0.140 A 
ATOM     27  N   UNL     1      13.344  -6.245  10.462  0.00  0.00    -0.314 N 
ATOM     28  C   UNL     1      14.482  -6.152  11.387  0.00  0.00    +0.106 C 
ATOM     29  C   UNL     1      15.826  -6.078  10.646  0.00  0.00    +0.019 C 
ATOM     30  C   UNL     1      15.664  -4.883   9.677  0.00  0.00    +0.003 C 
ATOM     31  C   UNL     1      14.717  -5.316   8.520  0.00  0.00    +0.019 C 
ATOM     32  C   UNL     1      13.644  -6.305   8.990  0.00  0.00    +0.106 C 
ATOM     33  N   UNL     1      11.070  -6.793  10.032  0.00  0.00    -0.236 NA
ATOM     34  C   UNL     1       9.894  -7.253  10.417  0.00  0.00    +0.145 A 
ENDBRANCH  22  23
BRANCH  15  14
ATOM      6  C   UNL     1       3.351   0.881  10.758  0.00  0.00    -0.016 A 
ATOM      7  C   UNL     1       4.404   0.128  10.288  0.00  0.00    +0.009 A 
ATOM      8  C   UNL     1       4.665  -1.183  10.696  0.00  0.00    +0.013 A 
ATOM      9  C   UNL     1       3.735  -1.671  11.684  0.00  0.00    +0.030 A 
ATOM     10  C   UNL     1       2.685  -0.929  12.140  0.00  0.00    +0.067 A 
ATOM     11  N   UNL     1       1.977  -1.712  13.030  0.00  0.00    -0.276 N 
ATOM     12  H   UNL     1       1.131  -1.390  13.600  0.00  0.00    +0.189 HD
ATOM     13  N   UNL     1       2.521  -2.949  13.068  0.00  0.00    -0.170 NA
ATOM     14  C   UNL     1       3.572  -2.997  12.326  0.00  0.00    +0.135 A 
ATOM     39  C   UNL     1       2.442   0.383  11.710  0.00  0.00    +0.036 A 
BRANCH   6   5
ATOM      1  C   UNL     1       3.917   4.517   9.601  0.00  0.00    +0.052 A 
ATOM      2  C   UNL     1       4.139   3.320  10.272  0.00  0.00    -0.036 A 
ATOM      5  C   UNL     1       3.226   2.261  10.165  0.00  0.00    -0.012 A 
ATOM     40  C   UNL     1       2.096   2.418   9.373  0.00  0.00    +0.050 A 
ATOM     41  C   UNL     1       1.912   3.658   8.714  0.00  0.00    +0.165 A 
ATOM     42  F   UNL     1       0.846   3.870   7.935  0.00  0.00    -0.202 F 
ATOM     43  C   UNL     1       2.806   4.702   8.837  0.00  0.00    +0.152 A 
BRANCH   2   3
ATOM      3  C   UNL     1       5.395   3.186  11.161  0.00  0.00    +0.032 C 
ATOM      4  C   UNL     1       5.054   3.295  12.648  0.00  0.00    +0.009 C 
ENDBRANCH   2   3
BRANCH  43  44
ATOM     44  O   UNL     1       2.562   5.854   8.107  0.00  0.00    -0.504 OA
ATOM     45  H   UNL     1       2.521   6.678   8.756  0.00  0.00    +0.292 HD
ENDBRANCH  43  44
ENDBRANCH   6   5
ENDBRANCH  15  14
TORSDOF 5
