REMARK  Name = 2jbo_ligand
REMARK  2 active torsions:
REMARK  status: ('A' for Active; 'I' for Inactive)
REMARK    1  A    between atoms: C18_10  and  C14_11
REMARK    2  A    between atoms: C12_16  and  C2_17
REMARK                            x       y       z     vdW  Elec       q    Type
REMARK                         _______ _______ _______ _____ _____    ______ ____
ROOT
ATOM      3  C   UNL     1     236.737  83.448 183.237  0.00  0.00    +0.049 A 
ATOM      4  N   UNL     1     236.205  84.576 182.739  0.00  0.00    -0.303 NA
ATOM      5  C   UNL     1     234.908  84.732 182.613  0.00  0.00    +0.080 A 
ATOM      6  C   UNL     1     234.030  83.736 183.009  0.00  0.00    +0.030 A 
ATOM      7  C   UNL     1     234.530  82.558 183.537  0.00  0.00    +0.008 A 
ATOM     20  C   UNL     1     235.901  82.420 183.675  0.00  0.00    +0.040 A 
ENDROOT
BRANCH   7   8
ATOM      8  C   UNL     1     233.658  81.549 183.932  0.00  0.00    +0.064 A 
ATOM      9  N   UNL     1     233.997  80.466 184.640  0.00  0.00    -0.271 N 
ATOM     10  H   UNL     1     234.947  80.228 184.960  0.00  0.00    +0.235 HD
ATOM     11  C   UNL     1     232.898  79.748 184.861  0.00  0.00    +0.072 A 
ATOM     12  C   UNL     1     232.783  78.417 185.599  0.00  0.00    +0.133 C 
ATOM     13  C   UNL     1     231.612  77.618 185.013  0.00  0.00    +0.153 C 
ATOM     14  N   UNL     1     230.415  78.517 184.702  0.00  0.00    -0.290 N 
ATOM     15  H   UNL     1     229.492  78.139 184.776  0.00  0.00    +0.184 HD
ATOM     16  C   UNL     1     230.573  79.852 184.317  0.00  0.00    +0.175 C 
ATOM     17  O   UNL     1     229.596  80.545 184.077  0.00  0.00    -0.404 OA
ATOM     18  C   UNL     1     231.845  80.405 184.238  0.00  0.00    +0.041 A 
ATOM     19  C   UNL     1     232.346  81.506 183.683  0.00  0.00    -0.019 A 
ENDBRANCH   7   8
BRANCH   3   2
ATOM      1  C   UNL     1     238.710  82.557 184.331  0.00  0.00    +0.056 A 
ATOM      2  C   UNL     1     238.138  83.353 183.354  0.00  0.00    +0.027 A 
ATOM     21  C   UNL     1     238.986  84.074 182.508  0.00  0.00    +0.110 A 
ATOM     22  N   UNL     1     240.305  84.012 182.625  0.00  0.00    -0.293 NA
ATOM     23  C   UNL     1     240.879  83.252 183.576  0.00  0.00    +0.048 A 
ATOM     24  C   UNL     1     242.277  83.184 183.691  0.00  0.00    +0.026 A 
ATOM     25  C   UNL     1     242.859  82.376 184.683  0.00  0.00    +0.010 A 
ATOM     26  C   UNL     1     242.068  81.630 185.578  0.00  0.00    +0.009 A 
ATOM     27  C   UNL     1     240.677  81.699 185.461  0.00  0.00    +0.021 A 
ATOM     28  C   UNL     1     240.087  82.503 184.456  0.00  0.00    +0.009 A 
ENDBRANCH   3   2
TORSDOF 2
