REMARK  Name = 5P4
REMARK  4 active torsions:
REMARK  status: ('A' for Active; 'I' for Inactive)
REMARK    1  A    between atoms: C4_2  and  N_20
REMARK    2  A    between atoms: C13_12  and  C16_22
REMARK    3  A    between atoms: C3_15  and  O_16
REMARK    4  A    between atoms: O_16  and  C1_17
REMARK                            x       y       z     vdW  Elec       q    Type
REMARK                         _______ _______ _______ _____ _____    ______ ____
ROOT
ATOM      4  C   UNL     1       2.605  21.118  51.511  0.00  0.00    +0.124 C 
ATOM      5  C   UNL     1       3.291  21.895  52.610  0.00  0.00    +0.011 A 
ATOM      6  C   UNL     1       3.960  21.168  53.610  0.00  0.00    +0.051 A 
ATOM      7  C   UNL     1       4.567  21.838  54.674  0.00  0.00    +0.015 A 
ATOM      8  C   UNL     1       4.482  23.221  54.757  0.00  0.00    +0.004 A 
ATOM      9  C   UNL     1       3.789  23.960  53.787  0.00  0.00    +0.034 A 
ATOM     15  N   UNL     1       3.929  19.738  53.504  0.00  0.00    -0.261 N 
ATOM     16  C   UNL     1       5.003  18.897  53.727  0.00  0.00    +0.230 C 
ATOM     17  C   UNL     1       6.332  19.481  54.089  0.00  0.00    +0.095 C 
ATOM     18  O   UNL     1       4.878  17.687  53.625  0.00  0.00    -0.275 OA
ATOM     19  C   UNL     1       2.674  19.083  53.061  0.00  0.00    +0.082 C 
ATOM     20  C   UNL     1       1.879  18.559  54.230  0.00  0.00    +0.022 C 
ATOM     21  C   UNL     1       3.218  23.285  52.713  0.00  0.00    +0.002 A 
ATOM     22  C   UNL     1       1.822  19.989  52.164  0.00  0.00    +0.047 C 
ENDROOT
BRANCH   9  10
ATOM     10  C   UNL     1       3.637  25.428  53.906  0.00  0.00    +0.145 A 
ATOM     11  O   UNL     1       4.311  26.048  54.931  0.00  0.00    -0.450 OA
ATOM     12  C   UNL     1       4.064  27.405  54.791  0.00  0.00    +0.180 A 
ATOM     13  C   UNL     1       3.278  27.629  53.745  0.00  0.00    +0.044 A 
ATOM     14  C   UNL     1       2.992  26.351  53.157  0.00  0.00    +0.041 A 
ENDBRANCH   9  10
BRANCH   4   3
ATOM      1  O   UNL     1       1.534  23.205  48.728  0.00  0.00    -0.225 OA
ATOM      2  C   UNL     1       2.257  22.659  49.532  0.00  0.00    +0.421 C 
ATOM      3  N   UNL     1       1.823  21.939  50.589  0.00  0.00    -0.166 NA
BRANCH   2  23
ATOM     23  O   UNL     1       3.605  22.703  49.489  0.00  0.00    -0.437 OA
BRANCH  23  24
ATOM     24  C   UNL     1       4.206  23.676  48.566  0.00  0.00    +0.171 C 
ATOM     25  C   UNL     1       5.587  23.920  49.057  0.00  0.00    +0.047 C 
ATOM     26  C   UNL     1       4.181  23.055  47.189  0.00  0.00    +0.047 C 
ENDBRANCH  23  24
ENDBRANCH   2  23
ENDBRANCH   4   3
TORSDOF 4
