REMARK  Name = 6IC0
REMARK  5 active torsions:
REMARK  status: ('A' for Active; 'I' for Inactive)
REMARK    1  A    between atoms: CAG_10  and  CAC_11
REMARK    2  A    between atoms: CAA_20  and  NAQ_21
REMARK    3  A    between atoms: NAQ_21  and  CAV_22
REMARK    4  A    between atoms: CAW_27  and  CBB_28
REMARK    5  A    between atoms: NBC_30  and  CBE_31
REMARK                            x       y       z     vdW  Elec       q    Type
REMARK                         _______ _______ _______ _____ _____    ______ ____
ROOT
ATOM      3  C   UNL     1     143.043 -39.037 264.437  0.00  0.00    +0.000 A 
ATOM      4  C   UNL     1     144.060 -39.984 264.211  0.00  0.00    +0.000 A 
ATOM      5  C   UNL     1     143.722 -41.203 263.563  0.00  0.00    +0.000 A 
ATOM      6  C   UNL     1     142.420 -41.503 263.147  0.00  0.00    -0.130 A 
ATOM      7  C   UNL     1     141.408 -40.547 263.343  0.00  0.00    +0.050 A 
ATOM     24  N   UNL     1     144.676 -42.090 263.320  0.00  0.00    -0.380 NA
ATOM     25  C   UNL     1     145.999 -41.845 263.719  0.00  0.00    +0.250 A 
ATOM     26  C   UNL     1     146.327 -40.660 264.363  0.00  0.00    +0.250 A 
ATOM     27  N   UNL     1     145.332 -39.717 264.598  0.00  0.00    -0.380 NA
ATOM     28  C   UNL     1     141.745 -39.345 263.991  0.00  0.00    -0.130 A 
ENDROOT
BRANCH   3   2
ATOM      1  C   UNL     1     142.544 -37.375 266.192  0.00  0.00    -0.130 A 
ATOM      2  C   UNL     1     143.249 -37.783 265.056  0.00  0.00    +0.000 A 
ATOM     29  C   UNL     1     144.170 -36.885 264.528  0.00  0.00    -0.130 A 
ATOM     30  C   UNL     1     144.352 -35.646 265.133  0.00  0.00    -0.130 A 
ATOM     31  C   UNL     1     143.633 -35.297 266.195  0.00  0.00    +0.050 A 
ATOM     32  C   UNL     1     143.634 -34.177 266.916  0.00  0.00    -0.150 A 
ATOM     33  C   UNL     1     142.730 -34.342 267.888  0.00  0.00    +0.000 A 
ATOM     34  N   UNL     1     142.191 -35.550 267.782  0.00  0.00    -0.350 N 
ATOM     35  C   UNL     1     141.152 -36.107 268.651  0.00  0.00    -0.100 C 
ATOM     36  C   UNL     1     142.749 -36.159 266.734  0.00  0.00    +0.200 A 
ENDBRANCH   3   2
BRANCH   7   8
ATOM      8  N   UNL     1     140.095 -40.713 263.062  0.00  0.00    -0.350 NA
BRANCH   8   9
ATOM      9  C   UNL     1     139.610 -41.335 261.981  0.00  0.00    +0.050 A 
ATOM     10  C   UNL     1     138.260 -41.739 262.005  0.00  0.00    +0.000 A 
ATOM     20  C   UNL     1     137.779 -42.336 260.836  0.00  0.00    -0.130 A 
ATOM     21  C   UNL     1     138.560 -42.534 259.708  0.00  0.00    +0.250 A 
ATOM     22  N   UNL     1     139.877 -42.145 259.711  0.00  0.00    -0.760 NA
ATOM     23  C   UNL     1     140.384 -41.527 260.836  0.00  0.00    +0.250 A 
BRANCH  10  11
ATOM     11  C   UNL     1     137.395 -41.557 263.118  0.00  0.00    +0.600 C 
ATOM     12  N   UNL     1     136.219 -42.197 263.103  0.00  0.00    -0.350 NA
ATOM     19  O   UNL     1     137.715 -40.830 264.038  0.00  0.00    -0.550 OA
BRANCH  12  13
ATOM     13  C   UNL     1     135.356 -42.132 264.117  0.00  0.00    +0.050 A 
ATOM     14  C   UNL     1     134.945 -40.944 264.716  0.00  0.00    +0.250 A 
ATOM     15  N   UNL     1     134.026 -40.967 265.776  0.00  0.00    -0.760 NA
ATOM     16  C   UNL     1     133.508 -42.198 266.191  0.00  0.00    +0.630 A 
ATOM     17  N   UNL     1     133.881 -43.385 265.559  0.00  0.00    -0.760 NA
ATOM     18  C   UNL     1     134.815 -43.347 264.543  0.00  0.00    +0.250 A 
ENDBRANCH  12  13
ENDBRANCH  10  11
ENDBRANCH   8   9
ENDBRANCH   7   8
TORSDOF 5
