REMARK  Name = GVP
REMARK  3 active torsions:
REMARK  status: ('A' for Active; 'I' for Inactive)
REMARK    1  A    between atoms: C5_5  and  C8_8
REMARK    2  A    between atoms: C8_8  and  C14_14
REMARK    3  A    between atoms: C17_17  and  C20_20
REMARK                            x       y       z     vdW  Elec       q    Type
REMARK                         _______ _______ _______ _____ _____    ______ ____
ROOT
ATOM      6  C   UNL     1      10.780   9.407   3.734  0.00  0.00    +0.041 C 
ATOM      7  C   UNL     1      11.237   9.468   5.202  0.00  0.00    +0.027 C 
ATOM      8  C   UNL     1      12.676   9.028   5.398  0.00  0.00    +0.089 C 
ATOM      9  N   UNL     1      12.834   7.631   4.899  0.00  0.00    -0.218 NA
ATOM     10  C   UNL     1      12.501   7.529   3.450  0.00  0.00    +0.089 C 
ATOM     22  C   UNL     1      11.063   7.974   3.234  0.00  0.00    +0.027 C 
ENDROOT
BRANCH   6   5
ATOM      1 CL   UNL     1      13.308  13.652   0.231  0.00  0.00    -0.082 Cl
ATOM      2  C   UNL     1      12.584  12.439   1.239  0.00  0.00    +0.058 A 
ATOM      3  C   UNL     1      12.201  12.742   2.536  0.00  0.00    +0.011 A 
ATOM      4  C   UNL     1      11.628  11.774   3.335  0.00  0.00    -0.003 A 
ATOM      5  C   UNL     1      11.443  10.480   2.854  0.00  0.00    -0.019 A 
ATOM     23  C   UNL     1      11.828  10.189   1.547  0.00  0.00    -0.003 A 
ATOM     24  C   UNL     1      12.403  11.157   0.753  0.00  0.00    +0.011 A 
ENDBRANCH   6   5
BRANCH   6  11
ATOM     11  C   UNL     1       9.250   9.562   3.654  0.00  0.00    -0.019 A 
ATOM     12  C   UNL     1       8.474   9.801   4.785  0.00  0.00    -0.004 A 
ATOM     13  C   UNL     1       7.102   9.891   4.686  0.00  0.00    -0.000 A 
ATOM     14  C   UNL     1       6.472   9.761   3.454  0.00  0.00    +0.003 A 
ATOM     20  C   UNL     1       7.243   9.499   2.332  0.00  0.00    -0.000 A 
ATOM     21  C   UNL     1       8.613   9.402   2.430  0.00  0.00    -0.004 A 
BRANCH  14  15
ATOM     15  C   UNL     1       5.007   9.780   3.354  0.00  0.00    +0.042 A 
ATOM     16  C   UNL     1       4.083   9.665   4.401  0.00  0.00    +0.124 A 
ATOM     17  N   UNL     1       2.831   9.646   3.941  0.00  0.00    -0.146 NA
ATOM     18  N   UNL     1       2.951   9.699   2.590  0.00  0.00    -0.146 NA
ATOM     19  C   UNL     1       4.242   9.763   2.214  0.00  0.00    +0.124 A 
ENDBRANCH  14  15
ENDBRANCH   6  11
TORSDOF 3
