REMARK  Name = 6O8U
REMARK  3 active torsions:
REMARK  status: ('A' for Active; 'I' for Inactive)
REMARK    1  A    between atoms: C6_3  and  N17_17
REMARK    2  A    between atoms: C7_4  and  N11_13
REMARK    3  A    between atoms: C18_18  and  C20_20
REMARK                            x       y       z     vdW  Elec       q    Type
REMARK                         _______ _______ _______ _____ _____    ______ ____
ROOT
ATOM      1  C   UNL     1      36.298   7.925  21.387  0.00  0.00    +0.000 A 
ATOM      2  C   UNL     1      35.697   9.127  22.090  0.00  0.00    -0.100 C 
ATOM      3  C   UNL     1      34.994   8.510  23.326  0.00  0.00    +0.180 C 
ATOM      4  C   UNL     1      33.534   8.962  23.410  0.00  0.00    -0.150 C 
ATOM      5  O   UNL     1      35.052   7.090  23.108  0.00  0.00    -0.180 OA
ATOM      6  C   UNL     1      35.739   8.885  24.607  0.00  0.00    -0.150 C 
ATOM      7  C   UNL     1      35.860   6.783  22.056  0.00  0.00    +0.000 A 
ATOM      8  C   UNL     1      36.273   5.527  21.597  0.00  0.00    -0.130 A 
ATOM      9  C   UNL     1      37.116   5.410  20.483  0.00  0.00    +0.050 A 
ATOM     16  C   UNL     1      37.558   6.572  19.815  0.00  0.00    +0.050 A 
ATOM     29  C   UNL     1      37.130   7.819  20.282  0.00  0.00    -0.130 A 
ENDROOT
BRANCH   9  10
ATOM     10  N   UNL     1      37.539   4.145  20.013  0.00  0.00    -0.250 N 
ATOM     11  C   UNL     1      36.480   3.378  19.314  0.00  0.00    +0.000 C 
ATOM     12  C   UNL     1      37.082   2.111  18.686  0.00  0.00    +0.080 C 
ATOM     13  O   UNL     1      37.802   1.383  19.695  0.00  0.00    -0.360 OA
ATOM     14  C   UNL     1      38.885   2.084  20.330  0.00  0.00    +0.080 C 
ATOM     15  C   UNL     1      38.358   3.373  20.982  0.00  0.00    +0.000 C 
ENDBRANCH   9  10
BRANCH  16  17
ATOM     17  N   UNL     1      38.393   6.418  18.681  0.00  0.00    -0.350 NA
ATOM     18  C   UNL     1      39.132   7.335  18.002  0.00  0.00    +0.600 C 
ATOM     28  O   UNL     1      39.175   8.513  18.308  0.00  0.00    -0.550 OA
BRANCH  18  19
ATOM     19  C   UNL     1      39.889   6.868  16.833  0.00  0.00    +0.000 A 
ATOM     20  C   UNL     1      40.302   5.547  16.564  0.00  0.00    +0.100 A 
ATOM     21  N   UNL     1      40.158   4.395  17.230  0.00  0.00    -0.150 NA
ATOM     22  C   UNL     1      40.652   3.273  16.731  0.00  0.00    +0.000 C 
ATOM     23  C   UNL     1      41.333   3.249  15.499  0.00  0.00    -0.100 C 
ATOM     24  C   UNL     1      41.481   4.420  14.818  0.00  0.00    +0.000 C 
ATOM     25  N   UNL     1      40.957   5.566  15.357  0.00  0.00    -0.150 N 
ATOM     26  N   UNL     1      40.948   6.886  14.895  0.00  0.00    -0.350 NA
ATOM     27  C   UNL     1      40.323   7.652  15.749  0.00  0.00    +0.000 A 
ENDBRANCH  18  19
ENDBRANCH  16  17
TORSDOF 3
