REMARK  Name = 4bdk_ligand
REMARK  5 active torsions:
REMARK  status: ('A' for Active; 'I' for Inactive)
REMARK    1  A    between atoms: C6_2  and  C4_3
REMARK    2  A    between atoms: N_13  and  C7_14
REMARK    3  A    between atoms: C7_14  and  C8_15
REMARK    4  A    between atoms: C11_18  and  O_19
REMARK    5  A    between atoms: O_19  and  C12_20
REMARK                            x       y       z     vdW  Elec       q    Type
REMARK                         _______ _______ _______ _____ _____    ______ ____
ROOT
ATOM      1  O   UNL     1      40.500 -30.536   4.788  0.00  0.00    -0.382 OA
ATOM      2  C   UNL     1      39.810 -31.511   4.488  0.00  0.00    +0.211 C 
ATOM      3  N   UNL     1      39.649 -31.912   3.220  0.00  0.00    -0.276 N 
ATOM      4  H   UNL     1      38.974 -32.624   3.027  0.00  0.00    +0.187 HD
ENDROOT
BRANCH   2  14
ATOM     14  C   UNL     1      39.111 -32.315   5.545  0.00  0.00    +0.061 A 
ATOM     15  C   UNL     1      38.258 -33.347   5.213  0.00  0.00    +0.065 A 
ATOM     16  C   UNL     1      37.564 -34.047   6.226  0.00  0.00    +0.082 A 
ATOM     17  C   UNL     1      37.759 -33.693   7.576  0.00  0.00    +0.078 A 
ATOM     18  N   UNL     1      37.072 -34.326   8.577  0.00  0.00    -0.267 NA
ATOM     19  C   UNL     1      36.233 -35.277   8.202  0.00  0.00    +0.141 A 
ATOM     20  C   UNL     1      36.043 -35.630   6.870  0.00  0.00    +0.141 A 
ATOM     21  C   UNL     1      38.654 -32.647   7.883  0.00  0.00    +0.041 A 
ATOM     22  N   UNL     1      36.684 -35.038   5.876  0.00  0.00    -0.267 NA
ATOM     23  C   UNL     1      39.310 -31.981   6.889  0.00  0.00    +0.039 A 
ENDBRANCH   2  14
BRANCH   3   5
ATOM      5  C   UNL     1      40.412 -31.358   2.109  0.00  0.00    +0.192 C 
BRANCH   5   6
ATOM      6  C   UNL     1      41.386 -32.338   1.502  0.00  0.00    -0.032 A 
ATOM      7  C   UNL     1      42.220 -33.104   2.304  0.00  0.00    -0.014 A 
ATOM      8  C   UNL     1      43.084 -34.037   1.757  0.00  0.00    +0.013 A 
ATOM      9  C   UNL     1      43.120 -34.221   0.383  0.00  0.00    +0.084 A 
ATOM     12  C   UNL     1      42.309 -33.444  -0.438  0.00  0.00    +0.013 A 
ATOM     13  C   UNL     1      41.455 -32.512   0.127  0.00  0.00    -0.014 A 
BRANCH   9  10
ATOM     10  O   UNL     1      43.980 -35.227   0.007  0.00  0.00    -0.326 OA
ATOM     11  C   UNL     1      44.107 -35.531  -1.385  0.00  0.00    +0.230 C 
ENDBRANCH   9  10
ENDBRANCH   5   6
ENDBRANCH   3   5
TORSDOF 4
