REMARK  Name = 4RWJ
REMARK  12 active torsions:
REMARK  status: ('A' for Active; 'I' for Inactive)
REMARK    1  A    between atoms: C_1  and  C_4
REMARK    2  A    between atoms: N_2  and  C_15
REMARK    3  A    between atoms: O_6  and  C_31
REMARK    4  A    between atoms: O_6  and  C_33
REMARK    5  A    between atoms: N_8  and  C_21
REMARK    6  A    between atoms: O_9  and  C_29
REMARK    7  A    between atoms: O_9  and  C_34
REMARK    8  A    between atoms: C_12  and  C_14
REMARK    9  A    between atoms: C_18  and  C_21
REMARK   10  A    between atoms: C_24  and  C_25
REMARK   11  A    between atoms: C_25  and  C_26
REMARK   12  A    between atoms: C_26  and  C_27
REMARK                            x       y       z     vdW  Elec       q    Type
REMARK                         _______ _______ _______ _____ _____    ______ ____
ROOT
ATOM     10  N   UNL     1     -19.378  -6.119  14.415  0.00  0.00    +0.038 NA
ATOM     11  C   UNL     1     -18.056  -6.002  14.091  0.00  0.00    +0.389 C 
ATOM     12  C   UNL     1     -17.257  -6.767  13.358  0.00  0.00    +0.133 C 
ATOM     13  C   UNL     1     -16.061  -6.157  13.369  0.00  0.00    +0.097 C 
ATOM     26  N   UNL     1     -16.136  -5.019  14.110  0.00  0.00    -0.040 NA
ATOM     27  N   UNL     1     -17.357  -4.958  14.528  0.00  0.00    +0.084 NA
ENDROOT
BRANCH  10   9
ATOM      9  C   UNL     1     -20.225  -7.129  14.072  0.00  0.00    +0.374 C 
ATOM     28  O   UNL     1     -19.884  -8.092  13.413  0.00  0.00    -0.238 OA
BRANCH   9   8
ATOM      5  C   UNL     1     -24.336  -6.873  15.307  0.00  0.00    +0.030 A 
ATOM      6  C   UNL     1     -23.934  -7.724  14.299  0.00  0.00    +0.024 A 
ATOM      7  C   UNL     1     -22.600  -7.775  13.933  0.00  0.00    +0.017 A 
ATOM      8  C   UNL     1     -21.635  -6.995  14.550  0.00  0.00    +0.066 A 
ATOM     29  C   UNL     1     -22.037  -6.133  15.568  0.00  0.00    +0.017 A 
ATOM     30  C   UNL     1     -23.378  -6.065  15.951  0.00  0.00    +0.024 A 
BRANCH   5   4
ATOM      1  C   UNL     1     -28.855  -8.839  15.614  0.00  0.00    +0.025 C 
ATOM      2  C   UNL     1     -27.902  -7.642  15.494  0.00  0.00    +0.068 C 
ATOM      3  C   UNL     1     -26.482  -7.990  15.991  0.00  0.00    +0.123 C 
ATOM      4  N   UNL     1     -25.652  -6.833  15.647  0.00  0.00    -0.327 N 
ATOM     31  C   UNL     1     -26.138  -5.510  16.220  0.00  0.00    +0.123 C 
ATOM     32  C   UNL     1     -27.647  -5.263  16.006  0.00  0.00    +0.068 C 
ATOM     33  C   UNL     1     -28.131  -4.095  16.891  0.00  0.00    +0.025 C 
ATOM     34  N   UNL     1     -28.422  -6.489  16.248  0.00  0.00    -0.308 NA
ATOM     35  H   UNL     1     -28.386  -6.718  17.293  0.00  0.00    +0.123 HD
ENDBRANCH   5   4
ENDBRANCH   9   8
ENDBRANCH  10   9
BRANCH  13  14
ATOM     14  C   UNL     1     -14.756  -6.530  12.728  0.00  0.00    +0.064 C 
BRANCH  14  15
ATOM     15  C   UNL     1     -14.909  -7.313  11.445  0.00  0.00    +0.041 C 
BRANCH  15  16
ATOM     16  C   UNL     1     -13.616  -7.170  10.674  0.00  0.00    -0.040 A 
ATOM     17  C   UNL     1     -13.518  -6.307   9.594  0.00  0.00    +0.049 A 
ATOM     18  C   UNL     1     -12.319  -6.192   8.900  0.00  0.00    +0.124 A 
ATOM     19  C   UNL     1     -11.212  -6.932   9.272  0.00  0.00    +0.091 A 
ATOM     20  C   UNL     1     -11.307  -7.805  10.359  0.00  0.00    +0.124 A 
ATOM     25  C   UNL     1     -12.505  -7.918  11.051  0.00  0.00    +0.049 A 
BRANCH  20  21
ATOM     21  O   UNL     1     -10.275  -8.560  10.784  0.00  0.00    -0.495 OA
ATOM     22  C   UNL     1      -8.956  -8.270  10.294  0.00  0.00    +0.277 C 
ENDBRANCH  20  21
BRANCH  18  23
ATOM     23  O   UNL     1     -12.289  -5.330   7.854  0.00  0.00    -0.495 OA
ATOM     24  C   UNL     1     -11.022  -5.125   7.210  0.00  0.00    +0.277 C 
ENDBRANCH  18  23
ENDBRANCH  15  16
ENDBRANCH  14  15
ENDBRANCH  13  14
TORSDOF 8
