REMARK  Name = 4YC4
REMARK  4 active torsions:
REMARK  status: ('A' for Active; 'I' for Inactive)
REMARK    1  A    between atoms: C_5  and  N_7
REMARK    2  A    between atoms: N_10  and  C_11
REMARK    3  A    between atoms: C_13  and  C_18
REMARK    4  A    between atoms: C_18  and  O_19
REMARK                            x       y       z     vdW  Elec       q    Type
REMARK                         _______ _______ _______ _____ _____    ______ ____
ROOT
ATOM      1  C   UNL     1      21.942 235.597  64.616  0.00  0.00    +0.166 A 
ATOM      2  N   UNL     1      21.290 235.896  65.758  0.00  0.00    -0.312 N 
ATOM     13  C   UNL     1      21.089 234.737  66.416  0.00  0.00    +0.202 A 
ATOM     14  N   UNL     1      21.595 233.704  65.697  0.00  0.00    -0.231 NA
ATOM     15  C   UNL     1      22.140 234.219  64.565  0.00  0.00    +0.147 A 
ATOM     16  C   UNL     1      22.798 233.653  63.461  0.00  0.00    +0.147 A 
ATOM     20  N   UNL     1      23.218 234.473  62.480  0.00  0.00    -0.219 NA
ATOM     21  C   UNL     1      23.012 235.797  62.551  0.00  0.00    +0.225 A 
ATOM     22  N   UNL     1      22.380 236.359  63.582  0.00  0.00    -0.216 NA
ENDROOT
BRANCH   2   3
ATOM      3  C   UNL     1      20.851 237.235  66.240  0.00  0.00    +0.094 C 
ATOM      4  C   UNL     1      21.771 237.692  67.339  0.00  0.00    +0.013 C 
ATOM      5  C   UNL     1      21.363 236.792  68.489  0.00  0.00    +0.014 C 
ATOM      6  C   UNL     1      19.926 237.250  68.456  0.00  0.00    -0.004 C 
ATOM     10  C   UNL     1      20.084 238.731  68.704  0.00  0.00    +0.009 C 
ATOM     11  C   UNL     1      21.293 239.058  67.818  0.00  0.00    +0.006 C 
ATOM     12  C   UNL     1      19.524 237.083  66.992  0.00  0.00    +0.034 C 
BRANCH   6   7
ATOM      7  C   UNL     1      19.008 236.595  69.501  0.00  0.00    +0.163 C 
BRANCH   7   8
ATOM      8  O   UNL     1      19.374 235.236  69.791  0.00  0.00    -0.395 OA
ATOM      9  H   UNL     1      19.319 234.663  68.913  0.00  0.00    +0.209 HD
ENDBRANCH   7   8
ENDBRANCH   6   7
ENDBRANCH   2   3
BRANCH  16  17
ATOM     17  N   UNL     1      23.044 232.182  63.317  0.00  0.00    -0.341 N 
ATOM     18  H   UNL     1      22.720 231.508  64.082  0.00  0.00    +0.144 HD
ATOM     19  H   UNL     1      23.543 231.806  62.449  0.00  0.00    +0.144 HD
ENDBRANCH  16  17
TORSDOF 4
