REMARK  Name = 1K0
REMARK  6 active torsions:
REMARK  status: ('A' for Active; 'I' for Inactive)
REMARK    1  A    between atoms: O1_1  and  C2_3
REMARK    2  A    between atoms: C4_5  and  O2_8
REMARK    3  A    between atoms: O3_10  and  C13_20
REMARK    4  A    between atoms: O3_10  and  C14_21
REMARK    5  A    between atoms: C8_13  and  C9_16
REMARK    6  A    between atoms: C14_21  and  C15_22
REMARK                            x       y       z     vdW  Elec       q    Type
REMARK                         _______ _______ _______ _____ _____    ______ ____
ROOT
ATOM      2  C   UNL     1      -7.556  44.838  39.721  0.00  0.00    +0.143 A 
ATOM      3  C   UNL     1      -8.279  45.154  40.875  0.00  0.00    +0.056 A 
ATOM      4  C   UNL     1      -8.197  44.264  41.958  0.00  0.00    +0.094 A 
ATOM      5  N   UNL     1      -8.976  44.532  43.078  0.00  0.00    -0.226 NA
ATOM      6  C   UNL     1      -8.896  43.727  44.095  0.00  0.00    +0.165 A 
ATOM     19  N   UNL     1      -8.100  42.638  44.123  0.00  0.00    -0.189 NA
ATOM     20  C   UNL     1      -7.284  42.263  43.075  0.00  0.00    +0.285 A 
ATOM     21  O   UNL     1      -6.536  41.303  43.284  0.00  0.00    -0.265 OA
ATOM     22  C   UNL     1      -7.383  43.106  41.893  0.00  0.00    +0.110 A 
ATOM     23  C   UNL     1      -6.687  42.818  40.708  0.00  0.00    +0.148 A 
ATOM     26  C   UNL     1      -6.787  43.701  39.600  0.00  0.00    +0.074 A 
ENDROOT
BRANCH   6   7
ATOM      7  C   UNL     1      -9.667  44.017  45.348  0.00  0.00    +0.035 A 
ATOM      8  C   UNL     1      -9.875  43.064  46.351  0.00  0.00    +0.002 A 
ATOM      9  C   UNL     1     -10.551  43.382  47.548  0.00  0.00    +0.012 A 
ATOM     10  C   UNL     1     -10.666  42.318  48.606  0.00  0.00    +0.034 C 
ATOM     11  C   UNL     1     -11.010  44.678  47.719  0.00  0.00    +0.131 A 
ATOM     16  C   UNL     1     -10.816  45.635  46.745  0.00  0.00    +0.012 A 
ATOM     17  C   UNL     1     -11.254  47.075  46.967  0.00  0.00    +0.034 C 
ATOM     18  C   UNL     1     -10.145  45.317  45.549  0.00  0.00    +0.002 A 
BRANCH  11  12
ATOM     12  O   UNL     1     -11.625  45.039  48.950  0.00  0.00    -0.473 OA
BRANCH  12  13
ATOM     13  C   UNL     1     -12.943  44.626  48.953  0.00  0.00    +0.241 C 
BRANCH  13  14
ATOM     14  C   UNL     1     -13.537  45.296  50.247  0.00  0.00    +0.229 C 
ATOM     15  O   UNL     1     -12.840  44.675  51.331  0.00  0.00    -0.216 OA
ENDBRANCH  13  14
ENDBRANCH  12  13
ENDBRANCH  11  12
ENDBRANCH   6   7
BRANCH   2   1
ATOM      1  O   UNL     1      -7.597  45.738  38.664  0.00  0.00    -0.471 OA
ATOM     27  C   UNL     1      -8.379  46.934  38.758  0.00  0.00    +0.253 C 
ENDBRANCH   2   1
BRANCH  23  24
ATOM     24  O   UNL     1      -5.936  41.701  40.611  0.00  0.00    -0.471 OA
ATOM     25  C   UNL     1      -5.415  41.253  39.321  0.00  0.00    +0.253 C 
ENDBRANCH  23  24
TORSDOF 6
