REMARK  Name = 9JB
REMARK  13 active torsions:
REMARK  status: ('A' for Active; 'I' for Inactive)
REMARK    1  A    between atoms: CAC_3  and  OAD_4
REMARK    2  A    between atoms: CAC_3  and  CAM_13
REMARK    3  A    between atoms: OAD_4  and  CAE_5
REMARK    4  A    between atoms: CAE_5  and  CAF_6
REMARK    5  A    between atoms: CAI_9  and  CAJ_10
REMARK    6  A    between atoms: CAJ_10  and  OAK_11
REMARK    7  A    between atoms: OAK_11  and  CAL_12
REMARK    8  A    between atoms: CAL_12  and  CAM_13
REMARK    9  A    between atoms: CAM_13  and  CAN_14
REMARK   10  A    between atoms: CAM_13  and  CAW_20
REMARK   11  A    between atoms: CAT_17  and  CAU_18
REMARK   12  A    between atoms: CAU_18  and  OAV_19
REMARK   13  A    between atoms: OAV_19  and  CAW_20
REMARK                            x       y       z     vdW  Elec       q    Type
REMARK                         _______ _______ _______ _____ _____    ______ ____
ROOT
ATOM      6  C   UNL     1     -18.478  -4.437  -9.771  0.00  0.00    +0.112 C 
ENDROOT
BRANCH   6  19
ATOM     19  C   UNL     1     -19.998  -4.493 -10.168  0.00  0.00    +0.189 C 
ATOM     20  O   UNL     1     -20.578  -3.200  -9.999  0.00  0.00    -0.220 OA
ENDBRANCH   6  19
BRANCH   6   5
ATOM      5  C   UNL     1     -17.731  -3.443 -10.639  0.00  0.00    +0.150 C 
BRANCH   5   4
ATOM      4  O   UNL     1     -17.818  -3.832 -12.002  0.00  0.00    -0.351 OA
BRANCH   4   3
ATOM      3  C   UNL     1     -17.115  -2.943 -12.886  0.00  0.00    +0.175 C 
BRANCH   3   2
ATOM      1  C   UNL     1     -16.696  -2.433 -15.309  0.00  0.00    +0.038 C 
ATOM      2  C   UNL     1     -17.558  -3.223 -14.321  0.00  0.00    +0.181 C 
ATOM     21  O   UNL     1     -17.428  -4.595 -14.576  0.00  0.00    -0.221 OA
ENDBRANCH   3   2
ENDBRANCH   4   3
ENDBRANCH   5   4
ENDBRANCH   6   5
BRANCH   6   7
ATOM      7  C   UNL     1     -18.317  -3.928  -8.253  0.00  0.00    +0.150 C 
BRANCH   7   8
ATOM      8  O   UNL     1     -16.927  -3.990  -7.938  0.00  0.00    -0.351 OA
BRANCH   8   9
ATOM      9  C   UNL     1     -16.634  -3.567  -6.582  0.00  0.00    +0.175 C 
BRANCH   9  10
ATOM     10  C   UNL     1     -15.168  -3.720  -6.340  0.00  0.00    +0.181 C 
ATOM     11  C   UNL     1     -14.814  -3.054  -5.010  0.00  0.00    +0.038 C 
ATOM     12  O   UNL     1     -14.848  -5.086  -6.289  0.00  0.00    -0.221 OA
ENDBRANCH   9  10
ENDBRANCH   8   9
ENDBRANCH   7   8
ENDBRANCH   6   7
BRANCH   6  13
ATOM     13  C   UNL     1     -17.874  -5.842  -9.912  0.00  0.00    +0.150 C 
BRANCH  13  14
ATOM     14  O   UNL     1     -18.530  -6.716  -9.022  0.00  0.00    -0.351 OA
BRANCH  14  15
ATOM     15  C   UNL     1     -17.922  -7.994  -8.865  0.00  0.00    +0.175 C 
BRANCH  15  16
ATOM     16  C   UNL     1     -16.998  -8.054  -7.613  0.00  0.00    +0.181 C 
ATOM     17  C   UNL     1     -17.724  -7.571  -6.355  0.00  0.00    +0.038 C 
ATOM     18  O   UNL     1     -15.889  -7.255  -7.802  0.00  0.00    -0.221 OA
ENDBRANCH  15  16
ENDBRANCH  14  15
ENDBRANCH  13  14
ENDBRANCH   6  13
TORSDOF 13
