REMARK  Name = 6P69
REMARK  11 active torsions:
REMARK  status: ('A' for Active; 'I' for Inactive)
REMARK    1  A    between atoms: C10_1  and  C11_2
REMARK    2  A    between atoms: C10_1  and  C9_10
REMARK    3  A    between atoms: C11_2  and  N3_9
REMARK    4  A    between atoms: C9_10  and  N2_11
REMARK    5  A    between atoms: N2_11  and  C17_27
REMARK    6  A    between atoms: N1_14  and  C7_15
REMARK    7  A    between atoms: C4_20  and  O2_21
REMARK    8  A    between atoms: C2_24  and  O1_25
REMARK    9  A    between atoms: N5_33  and  C20_34
REMARK   10  A    between atoms: C25_39  and  N6_40
REMARK   11  A    between atoms: C26_41  and  C27_43
REMARK                            x       y       z     vdW  Elec       q    Type
REMARK                         _______ _______ _______ _____ _____    ______ ____
ROOT
ATOM      3  N   UNL     1     -15.962 -22.989  11.677  0.00  0.00    -0.200 N 
ATOM     22  C   UNL     1     -15.488 -22.850  12.965  0.00  0.00    +0.650 C 
ATOM     23  N   UNL     1     -14.666 -23.741  13.546  0.00  0.00    -0.350 NA
ATOM     36  O   UNL     1     -15.705 -21.812  13.550  0.00  0.00    -0.550 OA
ENDROOT
BRANCH  23  24
ATOM     24  C   UNL     1     -14.160 -23.644  14.818  0.00  0.00    +0.050 A 
ATOM     25  C   UNL     1     -13.002 -22.933  15.111  0.00  0.00    +0.200 A 
ATOM     26  C   UNL     1     -12.492 -22.986  16.408  0.00  0.00    +0.185 A 
ATOM     27  C   UNL     1     -13.108 -23.734  17.433  0.00  0.00    -0.130 A 
ATOM     28  C   UNL     1     -14.258 -24.455  17.080  0.00  0.00    +0.185 A 
ATOM     33 CL   UNL     1     -12.177 -21.965  13.893  0.00  0.00    -0.200 Cl
ATOM     34  C   UNL     1     -14.742 -24.421  15.804  0.00  0.00    +0.200 A 
ATOM     35 CL   UNL     1     -16.127 -25.239  15.476  0.00  0.00    -0.200 Cl
BRANCH  28  29
ATOM     29  O   UNL     1     -14.951 -25.266  17.903  0.00  0.00    -0.365 OA
ATOM     30  C   UNL     1     -14.424 -25.476  19.216  0.00  0.00    +0.030 C 
ENDBRANCH  28  29
BRANCH  26  31
ATOM     31  O   UNL     1     -11.405 -22.250  16.591  0.00  0.00    -0.365 OA
ATOM     32  C   UNL     1     -10.826 -22.331  17.917  0.00  0.00    +0.030 C 
ENDBRANCH  26  31
ENDBRANCH  23  24
BRANCH   3   4
ATOM      4  C   UNL     1     -15.797 -24.146  10.990  0.00  0.00    +0.430 A 
ATOM      5  N   UNL     1     -15.149 -25.172  11.537  0.00  0.00    -0.760 NA
ATOM      6  C   UNL     1     -15.048 -26.376  10.845  0.00  0.00    +0.630 A 
ATOM      7  N   UNL     1     -15.635 -26.572   9.568  0.00  0.00    -0.760 NA
ATOM      8  C   UNL     1     -16.325 -25.571   9.025  0.00  0.00    +0.430 A 
ATOM      9  N   UNL     1     -16.934 -25.799   7.818  0.00  0.00    -0.350 NA
ATOM     21  C   UNL     1     -16.394 -24.387   9.744  0.00  0.00    -0.130 A 
BRANCH   9  10
ATOM     10  C   UNL     1     -17.253 -24.846   6.906  0.00  0.00    +0.050 A 
ATOM     11  C   UNL     1     -16.704 -24.947   5.636  0.00  0.00    +0.050 A 
ATOM     17  C   UNL     1     -17.092 -23.979   4.682  0.00  0.00    -0.130 A 
ATOM     18  C   UNL     1     -17.967 -22.924   4.954  0.00  0.00    -0.130 A 
ATOM     19  C   UNL     1     -18.510 -22.842   6.217  0.00  0.00    -0.130 A 
ATOM     20  C   UNL     1     -18.164 -23.801   7.173  0.00  0.00    -0.130 A 
BRANCH  11  12
ATOM     12  N   UNL     1     -15.900 -26.023   5.374  0.00  0.00    -0.350 NA
ATOM     13  C   UNL     1     -14.957 -26.026   4.404  0.00  0.00    +0.600 C 
ATOM     16  O   UNL     1     -14.632 -25.041   3.748  0.00  0.00    -0.550 OA
BRANCH  13  14
ATOM     14  C   UNL     1     -14.203 -27.356   4.107  0.00  0.00    -0.100 C 
ATOM     15  C   UNL     1     -13.478 -28.051   5.308  0.00  0.00    -0.100 C 
ENDBRANCH  13  14
ENDBRANCH  11  12
ENDBRANCH   9  10
ENDBRANCH   3   4
BRANCH   3   2
ATOM      2  C   UNL     1     -16.805 -21.892  11.119  0.00  0.00    +0.000 C 
BRANCH   2   1
ATOM      1  C   UNL     1     -18.301 -22.240  11.335  0.00  0.00    -0.100 C 
BRANCH   1  37
ATOM     37  C   UNL     1     -19.102 -21.061  10.716  0.00  0.00    +0.100 C 
BRANCH  37  38
ATOM     38  N   UNL     1     -18.756 -19.769  11.353  0.00  0.00    -0.600 NA
ATOM     39  C   UNL     1     -19.212 -19.660  12.740  0.00  0.00    +0.100 C 
ATOM     40  C   UNL     1     -18.699 -18.332  13.221  0.00  0.00    +0.100 C 
ATOM     41  N   UNL     1     -19.157 -17.183  12.381  0.00  0.00    -0.600 NA
ATOM     42  C   UNL     1     -18.516 -16.095  13.136  0.00  0.00    +0.050 C 
ATOM     43  C   UNL     1     -18.683 -17.434  10.990  0.00  0.00    +0.100 C 
ATOM     44  C   UNL     1     -19.315 -18.726  10.527  0.00  0.00    +0.100 C 
ENDBRANCH  37  38
ENDBRANCH   1  37
ENDBRANCH   2   1
ENDBRANCH   3   2
TORSDOF 11
