REMARK  Name = 5FI4
REMARK  7 active torsions:
REMARK  status: ('A' for Active; 'I' for Inactive)
REMARK    1  A    between atoms: C_2  and  C_4
REMARK    2  A    between atoms: C_5  and  C_6
REMARK    3  A    between atoms: C_7  and  O_27
REMARK    4  A    between atoms: C_10  and  C_11
REMARK    5  A    between atoms: C_10  and  C_12
REMARK    6  A    between atoms: C_10  and  O_27
REMARK    7  A    between atoms: C_17  and  N_19
REMARK                            x       y       z     vdW  Elec       q    Type
REMARK                         _______ _______ _______ _____ _____    ______ ____
ROOT
ATOM     15  C   UNL     1      15.328 -22.450 -14.057  0.00  0.00    +0.094 A 
ATOM     16  N   UNL     1      16.214 -23.138 -13.316  0.00  0.00    -0.208 NA
ATOM     17  C   UNL     1      16.451 -22.831 -12.025  0.00  0.00    +0.257 A 
ATOM     25  C   UNL     1      15.806 -21.746 -11.427  0.00  0.00    +0.179 A 
ATOM     26  N   UNL     1      15.995 -21.463 -10.119  0.00  0.00    -0.339 N 
ATOM     27  H   UNL     1      15.247 -21.008  -9.577  0.00  0.00    +0.144 HD
ATOM     28  H   UNL     1      16.864 -21.729  -9.641  0.00  0.00    +0.144 HD
ATOM     29  N   UNL     1      14.930 -21.040 -12.166  0.00  0.00    -0.234 NA
ATOM     30  C   UNL     1      14.674 -21.377 -13.443  0.00  0.00    +0.141 A 
ENDROOT
BRANCH  15  14
ATOM      1  C   UNL     1      14.006 -22.155 -16.231  0.00  0.00    +0.015 A 
ATOM      2  C   UNL     1      13.806 -22.394 -17.519  0.00  0.00    +0.047 A 
ATOM      3  C   UNL     1      14.748 -23.339 -18.127  0.00  0.00    +0.140 A 
ATOM      4  N   UNL     1      14.714 -23.793 -19.270  0.00  0.00    -0.213 NA
ATOM      5  C   UNL     1      15.828 -24.681 -19.445  0.00  0.00    +0.144 A 
ATOM     11  C   UNL     1      16.413 -24.660 -18.230  0.00  0.00    +0.136 A 
ATOM     12  N   UNL     1      15.755 -23.830 -17.470  0.00  0.00    -0.304 N 
ATOM     13  C   UNL     1      16.009 -23.574 -16.207  0.00  0.00    +0.103 A 
ATOM     14  C   UNL     1      15.141 -22.783 -15.507  0.00  0.00    +0.019 A 
BRANCH   5   6
ATOM      6  N   UNL     1      16.115 -25.354 -20.575  0.00  0.00    -0.269 N 
ATOM      7  H   UNL     1      15.454 -25.242 -21.317  0.00  0.00    +0.156 HD
ATOM      8  C   UNL     1      17.169 -26.173 -20.764  0.00  0.00    +0.215 C 
ATOM      9  O   UNL     1      18.043 -26.419 -19.950  0.00  0.00    -0.276 OA
ATOM     10  C   UNL     1      17.287 -26.841 -22.097  0.00  0.00    +0.109 C 
ENDBRANCH   5   6
ENDBRANCH  15  14
BRANCH  17  18
ATOM     18  O   UNL     1      17.330 -23.545 -11.251  0.00  0.00    -0.462 OA
BRANCH  18  19
ATOM     19  C   UNL     1      17.893 -24.789 -11.675  0.00  0.00    +0.276 C 
ATOM     20  C   UNL     1      19.413 -24.728 -11.372  0.00  0.00    +0.061 C 
BRANCH  19  21
ATOM     21  C   UNL     1      17.237 -25.914 -10.856  0.00  0.00    +0.426 C 
ATOM     22  F   UNL     1      17.950 -27.027 -11.130  0.00  0.00    -0.167 F 
ATOM     23  F   UNL     1      15.944 -26.103 -11.228  0.00  0.00    -0.167 F 
ATOM     24  F   UNL     1      17.290 -25.629  -9.526  0.00  0.00    -0.167 F 
ENDBRANCH  19  21
ENDBRANCH  18  19
ENDBRANCH  17  18
TORSDOF 5
