REMARK  Name = 6Q4F
REMARK  0 active torsions:
REMARK  status: ('A' for Active; 'I' for Inactive)
REMARK                            x       y       z     vdW  Elec       q    Type
REMARK                         _______ _______ _______ _____ _____    ______ ____
ROOT
ATOM      1  N   UNL     1       2.327  -5.939 -30.064  0.00  0.00    -0.550 NA
ATOM      2  C   UNL     1       1.443  -5.621 -29.179  0.00  0.00    +0.430 A 
ATOM      3  C   UNL     1       0.974  -6.596 -28.275  0.00  0.00    -0.130 A 
ATOM      4  C   UNL     1       0.073  -6.205 -27.308  0.00  0.00    -0.130 A 
ATOM      5  C   UNL     1      -0.332  -4.894 -27.237  0.00  0.00    -0.130 A 
ATOM      6  C   UNL     1       0.182  -3.984 -28.170  0.00  0.00    +0.430 A 
ATOM      7  N   UNL     1      -0.186  -2.734 -28.109  0.00  0.00    -0.550 NA
ATOM      8  N   UNL     1       1.050  -4.333 -29.155  0.00  0.00    -0.760 NA
ENDROOT
TORSDOF 0
