REMARK  Name = 4anv_ligand
REMARK  8 active torsions:
REMARK  status: ('A' for Active; 'I' for Inactive)
REMARK    1  A    between atoms: C28_1  and  O4_2
REMARK    2  A    between atoms: O4_2  and  C25_3
REMARK    3  A    between atoms: C22_8  and  C18_9
REMARK    4  A    between atoms: C16_14  and  S1_15
REMARK    5  A    between atoms: S1_15  and  N1_18
REMARK    6  A    between atoms: C8_29  and  C9_30
REMARK    7  A    between atoms: C12_33  and  O3_34
REMARK    8  A    between atoms: O3_34  and  C15_35
REMARK                            x       y       z     vdW  Elec       q    Type
REMARK                         _______ _______ _______ _____ _____    ______ ____
ROOT
ATOM     13  N   UNL     1      42.088  14.035  34.443  0.00  0.00    -0.230 NA
ATOM     14  C   UNL     1      40.842  14.796  34.369  0.00  0.00    +0.150 C 
ATOM     15  C   UNL     1      41.106  16.110  33.675  0.00  0.00    +0.157 C 
ATOM     16  N   UNL     1      42.359  16.714  34.191  0.00  0.00    -0.283 N 
ATOM     17  C   UNL     1      42.556  18.113  34.058  0.00  0.00    +0.151 A 
ATOM     18  C   UNL     1      43.781  18.631  33.633  0.00  0.00    +0.095 A 
ATOM     27  N   UNL     1      43.900  19.975  33.546  0.00  0.00    -0.285 NA
ATOM     28  C   UNL     1      42.921  20.803  33.916  0.00  0.00    +0.102 A 
ATOM     29  C   UNL     1      41.712  20.277  34.345  0.00  0.00    +0.108 A 
ATOM     30  N   UNL     1      41.561  18.959  34.408  0.00  0.00    -0.263 NA
ATOM     31  C   UNL     1      43.456  15.975  34.871  0.00  0.00    +0.157 C 
ATOM     32  C   UNL     1      43.126  14.574  35.302  0.00  0.00    +0.150 C 
ENDROOT
BRANCH  18  19
ATOM     19  C   UNL     1      44.884  17.854  33.202  0.00  0.00    -0.008 A 
ATOM     20  C   UNL     1      44.722  16.891  32.183  0.00  0.00    +0.001 A 
ATOM     21  C   UNL     1      45.809  16.155  31.713  0.00  0.00    +0.025 A 
ATOM     22  C   UNL     1      47.088  16.411  32.203  0.00  0.00    +0.094 A 
ATOM     25  C   UNL     1      47.270  17.390  33.186  0.00  0.00    +0.025 A 
ATOM     26  C   UNL     1      46.176  18.111  33.671  0.00  0.00    +0.001 A 
BRANCH  22  23
ATOM     23  O   UNL     1      48.116  15.671  31.713  0.00  0.00    -0.319 OA
ATOM     24  C   UNL     1      49.474  16.146  31.671  0.00  0.00    +0.234 C 
ENDBRANCH  22  23
ENDBRANCH  18  19
BRANCH  13  12
ATOM     12  S   UNL     1      41.711  12.440  34.773  0.00  0.00    +0.070 S 
ATOM     33  O   UNL     1      40.282  12.402  35.209  0.00  0.00    -0.150 OA
ATOM     34  O   UNL     1      42.697  11.793  35.632  0.00  0.00    -0.150 OA
BRANCH  12  11
ATOM      7  C   UNL     1      43.420  11.346  31.124  0.00  0.00    -0.023 A 
ATOM      8  C   UNL     1      42.365  10.801  30.410  0.00  0.00    +0.004 A 
ATOM      9  C   UNL     1      41.100  10.739  30.971  0.00  0.00    +0.000 A 
ATOM     10  C   UNL     1      40.893  11.209  32.263  0.00  0.00    +0.026 A 
ATOM     11  C   UNL     1      41.932  11.733  33.037  0.00  0.00    +0.107 A 
ATOM     35  C   UNL     1      43.193  11.806  32.435  0.00  0.00    +0.033 A 
BRANCH   7   6
ATOM      3  C   UNL     1      47.354  11.516  29.616  0.00  0.00    +0.093 A 
ATOM      4  C   UNL     1      46.877  12.509  30.498  0.00  0.00    +0.024 A 
ATOM      5  C   UNL     1      45.561  12.473  30.975  0.00  0.00    -0.002 A 
ATOM      6  C   UNL     1      44.718  11.405  30.594  0.00  0.00    -0.028 A 
ATOM     36  C   UNL     1      45.218  10.400  29.740  0.00  0.00    -0.002 A 
ATOM     37  C   UNL     1      46.510  10.449  29.231  0.00  0.00    +0.024 A 
BRANCH   3   2
ATOM      1  C   UNL     1      49.519  12.153  30.119  0.00  0.00    +0.234 C 
ATOM      2  O   UNL     1      48.632  11.574  29.146  0.00  0.00    -0.320 OA
ENDBRANCH   3   2
ENDBRANCH   7   6
ENDBRANCH  12  11
ENDBRANCH  13  12
TORSDOF 6
