REMARK  Name = 1nvr_ligand
REMARK  5 active torsions:
REMARK  status: ('A' for Active; 'I' for Inactive)
REMARK    1  A    between atoms: C23_4  and  N4_34
REMARK    2  A    between atoms: C22_5  and  O6_32
REMARK    3  A    between atoms: C21_6  and  C26_7
REMARK    4  A    between atoms: O6_32  and  C27_33
REMARK    5  A    between atoms: N4_34  and  C28_35
REMARK                            x       y       z     vdW  Elec       q    Type
REMARK                         _______ _______ _______ _____ _____    ______ ____
ROOT
ATOM      1  O   UNL     1       4.109   3.842  16.898  0.00  0.00    -0.315 OA
ATOM      2  C   UNL     1       5.046   4.068  15.863  0.00  0.00    +0.202 C 
ATOM      3  N   UNL     1       6.037   5.132  16.296  0.00  0.00    -0.229 N 
ATOM      4  C   UNL     1       7.400   5.315  15.984  0.00  0.00    +0.070 A 
ATOM      5  C   UNL     1       8.335   4.605  15.201  0.00  0.00    +0.013 A 
ATOM      6  C   UNL     1       9.644   5.067  15.054  0.00  0.00    -0.018 A 
ATOM      7  C   UNL     1      10.092   6.295  15.699  0.00  0.00    -0.024 A 
ATOM      8  C   UNL     1       9.129   6.990  16.493  0.00  0.00    -0.013 A 
ATOM      9  C   UNL     1       7.809   6.530  16.645  0.00  0.00    -0.007 A 
ATOM     10  C   UNL     1       6.709   7.061  17.351  0.00  0.00    +0.001 A 
ATOM     11  C   UNL     1       6.495   8.225  18.165  0.00  0.00    -0.017 A 
ATOM     12  C   UNL     1       7.509   9.289  18.516  0.00  0.00    +0.196 C 
ATOM     13  N   UNL     1       6.646  10.151  19.315  0.00  0.00    -0.279 N 
ATOM     14  H   UNL     1       6.996  10.992  19.727  0.00  0.00    +0.186 HD
ATOM     15  C   UNL     1       5.380   9.783  19.478  0.00  0.00    +0.187 C 
ATOM     16  O   UNL     1       4.495  10.356  20.105  0.00  0.00    -0.396 OA
ATOM     17  C   UNL     1       5.302   8.512  18.706  0.00  0.00    +0.032 A 
ATOM     18  C   UNL     1       4.115   7.668  18.511  0.00  0.00    -0.002 A 
ATOM     19  C   UNL     1       2.784   7.692  18.893  0.00  0.00    -0.007 A 
ATOM     20  C   UNL     1       1.971   8.551  19.673  0.00  0.00    -0.011 A 
ATOM     21  C   UNL     1       0.616   8.276  19.856  0.00  0.00    -0.023 A 
ATOM     22  C   UNL     1       0.018   7.108  19.252  0.00  0.00    -0.016 A 
ATOM     23  C   UNL     1       0.788   6.228  18.464  0.00  0.00    +0.014 A 
ATOM     24  C   UNL     1       2.173   6.529  18.294  0.00  0.00    +0.068 A 
ATOM     25  N   UNL     1       3.104   5.848  17.602  0.00  0.00    -0.238 N 
ATOM     26  C   UNL     1       4.344   6.492  17.688  0.00  0.00    +0.095 A 
ATOM     27  C   UNL     1       5.562   6.203  17.142  0.00  0.00    +0.098 A 
ATOM     28  C   UNL     1       5.676   2.684  15.624  0.00  0.00    +0.079 C 
ATOM     29  C   UNL     1       4.391   4.550  14.510  0.00  0.00    +0.227 C 
ATOM     32  C   UNL     1       2.971   3.924  14.562  0.00  0.00    +0.102 C 
ATOM     37  C   UNL     1       2.134   4.560  15.711  0.00  0.00    +0.120 C 
ATOM     38  C   UNL     1       2.878   4.468  17.089  0.00  0.00    +0.260 C 
ENDROOT
BRANCH  32  33
ATOM     33  N   UNL     1       2.176   4.159  13.207  0.00  0.00    +0.229 N 
ATOM     34  H   UNL     1       1.257   3.752  13.281  0.00  0.00    +0.201 HD
ATOM     35  H   UNL     1       2.093   5.148  13.033  0.00  0.00    +0.201 HD
ATOM     36  C   UNL     1       2.926   3.508  12.071  0.00  0.00    +0.189 C 
ENDBRANCH  32  33
BRANCH  29  30
ATOM     30  O   UNL     1       4.202   5.996  14.536  0.00  0.00    -0.369 OA
ATOM     31  C   UNL     1       5.175   6.663  13.751  0.00  0.00    +0.195 C 
ENDBRANCH  29  30
TORSDOF 2
