REMARK  Name = 5AP1
REMARK  8 active torsions:
REMARK  status: ('A' for Active; 'I' for Inactive)
REMARK    1  A    between atoms: C_2  and  C_3
REMARK    2  A    between atoms: C_3  and  O_4
REMARK    3  A    between atoms: O_4  and  C_5
REMARK    4  A    between atoms: C_6  and  C_7
REMARK    5  A    between atoms: N_11  and  C_12
REMARK    6  A    between atoms: C_14  and  N_17
REMARK    7  A    between atoms: C_21  and  C_22
REMARK    8  A    between atoms: N_26  and  C_27
REMARK                            x       y       z     vdW  Elec       q    Type
REMARK                         _______ _______ _______ _____ _____    ______ ____
ROOT
ATOM      8  N   UNL     1      -0.524 -20.877 -47.782  0.00  0.00    -0.200 N 
ATOM      9  H   UNL     1      -0.745 -21.862 -48.136  0.00  0.00    +0.298 HD
ATOM     10  C   UNL     1       0.276 -20.831 -46.658  0.00  0.00    +0.321 C 
ATOM     11  C   UNL     1       0.711 -22.078 -46.149  0.00  0.00    +0.097 C 
ATOM     12  C   UNL     1       1.557 -22.075 -45.077  0.00  0.00    +0.017 C 
ATOM     13  C   UNL     1       1.957 -20.874 -44.513  0.00  0.00    +0.216 C 
ATOM     16  C   UNL     1       1.459 -19.667 -45.054  0.00  0.00    +0.367 C 
ATOM     17  N   UNL     1       1.795 -18.475 -44.491  0.00  0.00    -0.077 NA
ATOM     24  N   UNL     1       0.621 -19.637 -46.132  0.00  0.00    +0.002 NA
ENDROOT
BRANCH   8   7
ATOM      5  C   UNL     1      -2.090 -18.944 -50.536  0.00  0.00    +0.134 A 
ATOM      6  C   UNL     1      -1.565 -20.028 -49.819  0.00  0.00    +0.095 A 
ATOM      7  C   UNL     1      -1.094 -19.837 -48.535  0.00  0.00    +0.122 A 
ATOM     25  C   UNL     1      -1.152 -18.562 -47.961  0.00  0.00    +0.050 A 
ATOM     26  C   UNL     1      -1.670 -17.508 -48.679  0.00  0.00    +0.016 A 
ATOM     27  C   UNL     1      -2.148 -17.676 -49.979  0.00  0.00    +0.027 A 
BRANCH  27  28
ATOM     28  C   UNL     1      -2.688 -16.554 -50.686  0.00  0.00    +0.023 A 
ATOM     29  C   UNL     1      -2.511 -15.189 -50.328  0.00  0.00    +0.143 A 
ATOM     30  N   UNL     1      -3.160 -14.383 -51.195  0.00  0.00    -0.179 NA
ATOM     31  N   UNL     1      -3.742 -15.217 -52.091  0.00  0.00    -0.274 N 
ATOM     32  C   UNL     1      -4.545 -14.713 -53.201  0.00  0.00    +0.172 C 
ATOM     33  C   UNL     1      -3.483 -16.546 -51.824  0.00  0.00    +0.116 A 
ENDBRANCH  27  28
BRANCH   5   4
ATOM      4  O   UNL     1      -2.594 -19.098 -51.833  0.00  0.00    -0.477 OA
BRANCH   4   3
ATOM      3  C   UNL     1      -2.352 -20.315 -52.540  0.00  0.00    +0.346 C 
BRANCH   3   2
ATOM      1  N   UNL     1       0.204 -20.298 -53.015  0.00  0.00    -0.193 NA
ATOM      2  C   UNL     1      -0.924 -20.307 -52.803  0.00  0.00    +0.104 C 
ENDBRANCH   3   2
ENDBRANCH   4   3
ENDBRANCH   5   4
ENDBRANCH   8   7
BRANCH  17  18
ATOM     18  C   UNL     1       1.302 -17.198 -44.997  0.00  0.00    +0.225 C 
ATOM     19  C   UNL     1       0.009 -16.811 -44.269  0.00  0.00    +0.053 C 
ATOM     20  C   UNL     1      -0.480 -15.427 -44.673  0.00  0.00    +0.004 C 
ATOM     21  C   UNL     1       0.597 -14.390 -44.398  0.00  0.00    +0.000 C 
ATOM     22  C   UNL     1       1.858 -14.734 -45.173  0.00  0.00    +0.004 C 
ATOM     23  C   UNL     1       2.363 -16.113 -44.780  0.00  0.00    +0.053 C 
ENDBRANCH  17  18
BRANCH  13  14
ATOM     14  C   UNL     1       2.860 -20.879 -43.441  0.00  0.00    +0.089 C 
ATOM     15  N   UNL     1       3.601 -20.875 -42.566  0.00  0.00    -0.195 NA
ENDBRANCH  13  14
TORSDOF 7
