REMARK  Name = 2xru_ligand
REMARK  8 active torsions:
REMARK  status: ('A' for Active; 'I' for Inactive)
REMARK    1  A    between atoms: C7_7  and  C25_25
REMARK    2  A    between atoms: C10_10  and  C11_11
REMARK    3  A    between atoms: C15_15  and  N18_18
REMARK    4  A    between atoms: N21_21  and  C24_24
REMARK    5  A    between atoms: N27_27  and  C28_28
REMARK    6  A    between atoms: C28_28  and  C29_29
REMARK    7  A    between atoms: C28_28  and  C30_30
REMARK    8  A    between atoms: C30_30  and  C36_36
REMARK                            x       y       z     vdW  Elec       q    Type
REMARK                         _______ _______ _______ _____ _____    ______ ____
ROOT
ATOM      1  C   UNL     1       3.747  31.647   7.932  0.00  0.00    +0.135 A 
ATOM      2  N   UNL     1       3.009  32.269   7.000  0.00  0.00    -0.234 N 
ATOM      3  H   UNL     1       2.176  32.735   7.361  0.00  0.00    +0.220 HD
ATOM      4  C   UNL     1       3.183  32.386   5.641  0.00  0.00    +0.219 C 
ATOM      5  O   UNL     1       3.906  31.514   5.041  0.00  0.00    -0.382 OA
ATOM     19  C   UNL     1       4.755  30.678   7.885  0.00  0.00    +0.084 A 
ATOM     20  S   UNL     1       5.642  29.720   6.727  0.00  0.00    -0.043 S 
ATOM     21  C   UNL     1       6.571  29.016   8.049  0.00  0.00    +0.097 A 
ATOM     35  C   UNL     1       6.165  29.503   9.318  0.00  0.00    +0.035 A 
ATOM     36  C   UNL     1       5.137  30.446   9.194  0.00  0.00    +0.078 A 
ATOM     37  N   UNL     1       4.381  31.243  10.000  0.00  0.00    -0.244 N 
ATOM     38  H   UNL     1       4.437  31.286  11.018  0.00  0.00    +0.234 HD
ATOM     39  N   UNL     1       3.563  31.950   9.242  0.00  0.00    -0.223 NA
ENDROOT
BRANCH   4   6
ATOM      6  C   UNL     1       2.554  33.451   4.855  0.00  0.00    +0.041 A 
ATOM      7  C   UNL     1       2.855  33.605   3.441  0.00  0.00    +0.011 A 
ATOM      8  C   UNL     1       2.267  34.622   2.643  0.00  0.00    +0.015 A 
ATOM      9  C   UNL     1       1.332  35.562   3.199  0.00  0.00    +0.046 A 
ATOM     17  C   UNL     1       1.024  35.408   4.620  0.00  0.00    +0.015 A 
ATOM     18  C   UNL     1       1.611  34.390   5.417  0.00  0.00    +0.011 A 
BRANCH   9  10
ATOM     10  N   UNL     1       0.751  36.581   2.435  0.00  0.00    -0.310 N 
ATOM     11  C   UNL     1       0.974  37.995   2.821  0.00  0.00    +0.108 C 
ATOM     12  C   UNL     1       1.247  38.878   1.589  0.00  0.00    -0.086 C 
ATOM     13  N   UNL     1       0.044  38.780   0.677  0.00  0.00    +0.403 NA
ATOM     14  C   UNL     1       0.098  39.848  -0.394  0.00  0.00    -0.131 C 
ATOM     15  C   UNL     1      -0.035  37.364   0.085  0.00  0.00    -0.086 C 
ATOM     16  C   UNL     1      -0.159  36.302   1.254  0.00  0.00    +0.108 C 
ENDBRANCH   9  10
ENDBRANCH   4   6
BRANCH  21  22
ATOM     22  C   UNL     1       7.638  28.072   7.822  0.00  0.00    +0.212 C 
ATOM     23  N   UNL     1       8.138  27.858   6.582  0.00  0.00    -0.273 N 
ATOM     24  H   UNL     1       7.662  28.323   5.809  0.00  0.00    +0.187 HD
ATOM     34  O   UNL     1       8.164  27.453   8.784  0.00  0.00    -0.388 OA
BRANCH  23  25
ATOM     25  C   UNL     1       9.277  27.038   6.243  0.00  0.00    +0.146 C 
BRANCH  25  28
ATOM     28  C   UNL     1       8.750  25.708   5.753  0.00  0.00    -0.018 A 
ATOM     29  C   UNL     1       9.455  24.483   6.070  0.00  0.00    -0.003 A 
ATOM     30  C   UNL     1       8.946  23.205   5.615  0.00  0.00    -0.009 A 
ATOM     31  C   UNL     1       7.721  23.128   4.831  0.00  0.00    -0.013 A 
ATOM     32  C   UNL     1       7.002  24.329   4.499  0.00  0.00    -0.009 A 
ATOM     33  C   UNL     1       7.512  25.607   4.957  0.00  0.00    -0.003 A 
ENDBRANCH  25  28
BRANCH  25  26
ATOM     26  C   UNL     1      10.146  27.823   5.222  0.00  0.00    +0.039 C 
ATOM     27  C   UNL     1      11.032  28.919   5.888  0.00  0.00    +0.008 C 
ENDBRANCH  25  26
ENDBRANCH  23  25
ENDBRANCH  21  22
TORSDOF 6
