REMARK  Name = 3bel_ligand
REMARK  10 active torsions:
REMARK  status: ('A' for Active; 'I' for Inactive)
REMARK    1  A    between atoms: C1_1  and  C7_5
REMARK    2  A    between atoms: N6_4  and  C18_29
REMARK    3  A    between atoms: C7_5  and  N1_23
REMARK    4  A    between atoms: C9_7  and  N3_25
REMARK    5  A    between atoms: C19_15  and  C17_28
REMARK    6  A    between atoms: C20_16  and  C21_17
REMARK    7  A    between atoms: C20_16  and  O1_31
REMARK    8  A    between atoms: C21_17  and  O2_32
REMARK    9  A    between atoms: C22_18  and  O2_32
REMARK   10  A    between atoms: N7_30  and  O1_31
REMARK                            x       y       z     vdW  Elec       q    Type
REMARK                         _______ _______ _______ _____ _____    ______ ____
ROOT
ATOM     14  N   UNL     1      16.318  33.718  90.690  0.00  0.00    -0.261 N 
ATOM     15  H   UNL     1      17.186  33.413  90.227  0.00  0.00    +0.214 HD
ATOM     16  C   UNL     1      15.167  33.635  89.900  0.00  0.00    +0.142 A 
ATOM     17  C   UNL     1      15.119  33.087  88.617  0.00  0.00    +0.079 A 
ATOM     18  C   UNL     1      13.853  33.122  87.974  0.00  0.00    +0.123 A 
ATOM     19  N   UNL     1      12.752  33.630  88.556  0.00  0.00    -0.269 NA
ATOM     20  C   UNL     1      12.897  34.131  89.814  0.00  0.00    +0.159 A 
ATOM     31  N   UNL     1      14.045  34.158  90.501  0.00  0.00    -0.266 NA
ENDROOT
BRANCH  14  13
ATOM      8  N   UNL     1      16.582  35.103  96.079  0.00  0.00    -0.193 N 
ATOM      9  N   UNL     1      15.830  34.129  96.658  0.00  0.00    -0.204 NA
ATOM     10  C   UNL     1      15.453  33.369  95.636  0.00  0.00    +0.088 A 
ATOM     11  C   UNL     1      15.939  33.824  94.399  0.00  0.00    -0.001 A 
ATOM     12  C   UNL     1      15.828  33.407  93.043  0.00  0.00    +0.005 A 
ATOM     13  C   UNL     1      16.476  34.152  92.015  0.00  0.00    +0.054 A 
ATOM     32  C   UNL     1      17.231  35.303  92.367  0.00  0.00    +0.009 A 
ATOM     33  C   UNL     1      17.356  35.734  93.705  0.00  0.00    +0.014 A 
ATOM     34  C   UNL     1      16.689  34.969  94.705  0.00  0.00    +0.084 A 
BRANCH   8   7
ATOM      7  C   UNL     1      17.162  36.164  96.916  0.00  0.00    +0.253 C 
BRANCH   7   1
ATOM      1  C   UNL     1      16.299  37.426  96.834  0.00  0.00    -0.015 A 
ATOM      2  C   UNL     1      16.771  38.701  97.272  0.00  0.00    -0.010 A 
ATOM      3  C   UNL     1      15.931  39.862  97.182  0.00  0.00    -0.011 A 
ATOM      4  C   UNL     1      14.611  39.753  96.651  0.00  0.00    +0.019 A 
ATOM      5  C   UNL     1      14.139  38.486  96.212  0.00  0.00    +0.126 A 
ATOM      6  F   UNL     1      12.903  38.362  95.708  0.00  0.00    -0.185 F 
ATOM     35  C   UNL     1      14.961  37.343  96.299  0.00  0.00    +0.030 A 
ENDBRANCH   7   1
ENDBRANCH   8   7
ENDBRANCH  14  13
BRANCH  18  21
ATOM     21  N   UNL     1      13.639  32.654  86.707  0.00  0.00    -0.317 N 
ATOM     22  H   UNL     1      12.700  32.712  86.288  0.00  0.00    +0.182 HD
ATOM     23  H   UNL     1      14.417  32.244  86.171  0.00  0.00    +0.182 HD
ENDBRANCH  18  21
BRANCH  17  24
ATOM     24  C   UNL     1      16.333  32.523  87.985  0.00  0.00    +0.117 C 
ATOM     25  N   UNL     1      16.657  32.617  86.733  0.00  0.00    -0.166 NA
BRANCH  25  26
ATOM     26  O   UNL     1      17.893  31.918  86.556  0.00  0.00    -0.240 OA
BRANCH  26  27
ATOM     27  C   UNL     1      18.372  31.962  85.186  0.00  0.00    +0.249 C 
BRANCH  27  28
ATOM     28  C   UNL     1      19.910  31.856  85.201  0.00  0.00    +0.195 C 
BRANCH  28  29
ATOM     29  O   UNL     1      20.403  31.907  83.852  0.00  0.00    -0.380 OA
ATOM     30  C   UNL     1      21.832  31.825  83.894  0.00  0.00    +0.194 C 
ENDBRANCH  28  29
ENDBRANCH  27  28
ENDBRANCH  26  27
ENDBRANCH  25  26
ENDBRANCH  17  24
TORSDOF 9
