REMARK  Name = 3bpr_ligand
REMARK  7 active torsions:
REMARK  status: ('A' for Active; 'I' for Inactive)
REMARK    1  A    between atoms: CAR_7  and  N6_8
REMARK    2  A    between atoms: N9_14  and  CAW_15
REMARK    3  A    between atoms: CAW_15  and  CAB_16
REMARK    4  A    between atoms: CAW_15  and  CAA_17
REMARK    5  A    between atoms: N2_21  and  CAK_22
REMARK    6  A    between atoms: CAK_22  and  CAJ_23
REMARK    7  A    between atoms: CAJ_23  and  OAC_24
REMARK                            x       y       z     vdW  Elec       q    Type
REMARK                         _______ _______ _______ _____ _____    ______ ____
ROOT
ATOM      3  N   UNL     1      15.579  19.169  55.411  0.00  0.00    -0.256 N 
ATOM      4  H   UNL     1      15.364  20.088  55.798  0.00  0.00    +0.217 HD
ATOM      5  C   UNL     1      14.724  18.668  54.502  0.00  0.00    +0.140 A 
ATOM      6  C   UNL     1      13.610  19.406  54.117  0.00  0.00    +0.096 A 
ATOM      7  C   UNL     1      12.741  18.876  53.156  0.00  0.00    +0.143 A 
ATOM      8  N   UNL     1      12.978  17.663  52.616  0.00  0.00    -0.263 NA
ATOM      9  C   UNL     1      14.074  16.952  52.985  0.00  0.00    +0.155 A 
ATOM     10  N   UNL     1      14.327  15.738  52.445  0.00  0.00    -0.295 N 
ATOM     11  H   UNL     1      13.607  15.303  51.868  0.00  0.00    +0.185 HD
ATOM     16  N   UNL     1      11.791  19.783  53.007  0.00  0.00    -0.225 N 
ATOM     20  C   UNL     1      12.025  20.821  53.812  0.00  0.00    +0.236 A 
ATOM     21  N   UNL     1      13.151  20.597  54.492  0.00  0.00    -0.304 NA
ATOM     22  N   UNL     1      14.914  17.463  53.920  0.00  0.00    -0.253 NA
ENDROOT
BRANCH   3   2
ATOM      1  C   UNL     1      17.472  17.728  55.039  0.00  0.00    +0.030 A 
ATOM      2  C   UNL     1      16.702  18.556  55.855  0.00  0.00    +0.065 A 
ATOM     23  C   UNL     1      17.130  18.762  57.180  0.00  0.00    +0.016 A 
ATOM     24  C   UNL     1      18.276  18.146  57.691  0.00  0.00    -0.012 A 
ATOM     25  C   UNL     1      19.033  17.323  56.865  0.00  0.00    -0.007 A 
ATOM     26  C   UNL     1      18.615  17.126  55.551  0.00  0.00    +0.031 A 
ATOM     27 CL   UNL     1      19.517  16.092  54.527  0.00  0.00    -0.074 Cl
ENDBRANCH   3   2
BRANCH  16  17
ATOM     17  C   UNL     1      10.619  19.715  52.122  0.00  0.00    +0.129 C 
ATOM     18  C   UNL     1       9.594  18.758  52.730  0.00  0.00    +0.043 C 
ATOM     19  C   UNL     1      11.005  19.328  50.680  0.00  0.00    +0.043 C 
ENDBRANCH  16  17
BRANCH  10  12
ATOM     12  C   UNL     1      15.608  15.006  52.653  0.00  0.00    +0.162 C 
BRANCH  12  13
ATOM     13  C   UNL     1      15.451  13.772  53.586  0.00  0.00    +0.180 C 
BRANCH  13  14
ATOM     14  O   UNL     1      14.111  13.231  53.581  0.00  0.00    -0.393 OA
ATOM     15  H   UNL     1      14.070  12.475  54.171  0.00  0.00    +0.209 HD
ENDBRANCH  13  14
ENDBRANCH  12  13
ENDBRANCH  10  12
TORSDOF 5
