REMARK  Name = EQT
REMARK  0 active torsions:
REMARK  status: ('A' for Active; 'I' for Inactive)
REMARK                            x       y       z     vdW  Elec       q    Type
REMARK                         _______ _______ _______ _____ _____    ______ ____
ROOT
ATOM      1  C   UNL     1      -2.690   9.728  47.786  0.00  0.00    +0.193 A 
ATOM      2  C   UNL     1      -2.094   8.890  48.783  0.00  0.00    +0.066 A 
ATOM      3  C   UNL     1      -1.910   8.901  50.160  0.00  0.00    +0.062 A 
ATOM      4 CL   UNL     1      -2.520  10.236  51.091  0.00  0.00    -0.082 Cl
ATOM      5  C   UNL     1      -1.239   7.879  50.808  0.00  0.00    +0.012 A 
ATOM      6  C   UNL     1      -0.740   6.813  50.069  0.00  0.00    +0.002 A 
ATOM      7  C   UNL     1      -0.910   6.763  48.693  0.00  0.00    +0.021 A 
ATOM      8  C   UNL     1      -1.572   7.807  48.053  0.00  0.00    +0.107 A 
ATOM      9  N   UNL     1      -1.867   8.037  46.747  0.00  0.00    -0.147 NA
ATOM     10  N   UNL     1      -3.303  10.902  48.007  0.00  0.00    -0.105 NA
ATOM     11  N   UNL     1      -2.554   9.201  46.572  0.00  0.00    -0.130 NA
ENDROOT
TORSDOF 0
