REMARK  Name = 5O91
REMARK  12 active torsions:
REMARK  status: ('A' for Active; 'I' for Inactive)
REMARK    1  A    between atoms: O_1  and  C_3
REMARK    2  A    between atoms: O_1  and  C_4
REMARK    3  A    between atoms: C_6  and  N_7
REMARK    4  A    between atoms: N_10  and  C_11
REMARK    5  A    between atoms: C_16  and  N_17
REMARK    6  A    between atoms: N_26  and  C_27
REMARK    7  A    between atoms: C_29  and  C_30
REMARK    8  A    between atoms: N_31  and  C_32
REMARK    9  A    between atoms: C_33  and  C_34
REMARK   10  A    between atoms: C_34  and  C_35
REMARK   11  A    between atoms: C_39  and  C_40
REMARK   12  A    between atoms: C_40  and  C_41
REMARK                            x       y       z     vdW  Elec       q    Type
REMARK                         _______ _______ _______ _____ _____    ______ ____
ROOT
ATOM      4  N   UNL     1      -1.155  -9.454 -17.682  0.00  0.00    -0.281 N 
ATOM      5  H   UNL     1      -1.572  -8.615 -18.199  0.00  0.00    +0.155 HD
ATOM      6  C   UNL     1      -0.579 -10.408 -18.474  0.00  0.00    +0.220 A 
ATOM      7  N   UNL     1       0.055 -11.420 -17.824  0.00  0.00    -0.212 NA
ATOM      8  C   UNL     1       0.635 -12.399 -18.551  0.00  0.00    +0.097 A 
ATOM      9  C   UNL     1       1.300 -13.512 -17.894  0.00  0.00    +0.091 A 
ATOM     10  N   UNL     1       1.338 -13.845 -16.579  0.00  0.00    -0.264 N 
ATOM     11  N   UNL     1       2.065 -14.991 -16.416  0.00  0.00    -0.166 NA
ATOM     12  C   UNL     1       2.474 -15.369 -17.640  0.00  0.00    +0.151 A 
ATOM     27  C   UNL     1       0.737 -13.172 -15.439  0.00  0.00    +0.173 C 
ATOM     28  C   UNL     1       2.000 -14.477 -18.585  0.00  0.00    +0.012 A 
ATOM     29  C   UNL     1       2.180 -14.405 -20.074  0.00  0.00    +0.044 C 
ATOM     30  C   UNL     1       1.186 -13.482 -20.759  0.00  0.00    +0.043 C 
ATOM     31  C   UNL     1       0.575 -12.367 -19.942  0.00  0.00    -0.001 A 
ATOM     32  C   UNL     1      -0.127 -11.248 -20.547  0.00  0.00    +0.120 A 
ATOM     33  N   UNL     1      -0.685 -10.293 -19.817  0.00  0.00    -0.222 NA
ENDROOT
BRANCH   4   3
ATOM      2  C   UNL     1      -0.961  -8.234 -15.597  0.00  0.00    +0.143 A 
ATOM      3  C   UNL     1      -1.275  -9.424 -16.269  0.00  0.00    +0.076 A 
ATOM     34  C   UNL     1      -1.666 -10.552 -15.544  0.00  0.00    +0.029 A 
ATOM     35  C   UNL     1      -1.742 -10.498 -14.170  0.00  0.00    +0.025 A 
ATOM     36  C   UNL     1      -1.440  -9.322 -13.485  0.00  0.00    +0.033 A 
ATOM     44  C   UNL     1      -1.042  -8.196 -14.209  0.00  0.00    +0.070 A 
BRANCH  36  37
ATOM     37  N   UNL     1      -1.514  -9.271 -12.077  0.00  0.00    -0.327 N 
ATOM     38  C   UNL     1      -2.711  -9.639 -11.319  0.00  0.00    +0.120 C 
ATOM     39  C   UNL     1      -2.365 -10.520 -10.138  0.00  0.00    +0.103 C 
ATOM     40  N   UNL     1      -1.314  -9.933  -9.307  0.00  0.00    -0.302 NA
ATOM     41  C   UNL     1      -1.031 -10.792  -8.156  0.00  0.00    +0.105 C 
ATOM     42  C   UNL     1      -0.111  -9.740 -10.118  0.00  0.00    +0.103 C 
ATOM     43  C   UNL     1      -0.382  -8.805 -11.275  0.00  0.00    +0.120 C 
ENDBRANCH  36  37
BRANCH   2   1
ATOM      1  O   UNL     1      -0.575  -7.171 -16.361  0.00  0.00    -0.493 OA
ATOM     45  C   UNL     1      -1.147  -5.895 -16.088  0.00  0.00    +0.277 C 
ENDBRANCH   2   1
ENDBRANCH   4   3
BRANCH  12  13
ATOM     13  C   UNL     1       3.289 -16.588 -17.854  0.00  0.00    +0.269 C 
ATOM     14  N   UNL     1       3.534 -17.348 -16.753  0.00  0.00    -0.280 N 
ATOM     15  H   UNL     1       3.222 -16.949 -15.810  0.00  0.00    +0.155 HD
ATOM     26  O   UNL     1       3.663 -16.890 -18.988  0.00  0.00    -0.268 OA
BRANCH  14  16
ATOM     16  C   UNL     1       4.170 -18.633 -16.735  0.00  0.00    +0.040 A 
ATOM     17  C   UNL     1       3.391 -19.790 -16.875  0.00  0.00    -0.026 A 
ATOM     20  C   UNL     1       4.049 -21.022 -16.866  0.00  0.00    +0.005 A 
ATOM     21  C   UNL     1       5.417 -21.105 -16.728  0.00  0.00    +0.001 A 
ATOM     22  C   UNL     1       6.161 -19.953 -16.596  0.00  0.00    +0.005 A 
ATOM     23  C   UNL     1       5.561 -18.692 -16.598  0.00  0.00    -0.026 A 
BRANCH  17  18
ATOM     18  C   UNL     1       1.887 -19.755 -17.020  0.00  0.00    +0.033 C 
ATOM     19  C   UNL     1       1.122 -19.928 -15.726  0.00  0.00    +0.009 C 
ENDBRANCH  17  18
BRANCH  23  24
ATOM     24  C   UNL     1       6.415 -17.455 -16.447  0.00  0.00    +0.033 C 
ATOM     25  C   UNL     1       6.607 -16.999 -15.024  0.00  0.00    +0.009 C 
ENDBRANCH  23  24
ENDBRANCH  14  16
ENDBRANCH  12  13
TORSDOF 7
