REMARK  Name = 2o0u_ligand
REMARK  6 active torsions:
REMARK  status: ('A' for Active; 'I' for Inactive)
REMARK    1  A    between atoms: C25_4  and  C27_5
REMARK    2  A    between atoms: C27_5  and  C28_6
REMARK    3  A    between atoms: C28_6  and  N29_7
REMARK    4  A    between atoms: C8_18  and  N12_22
REMARK    5  A    between atoms: C7_19  and  C10_20
REMARK    6  A    between atoms: C13_23  and  C15_25
REMARK                            x       y       z     vdW  Elec       q    Type
REMARK                         _______ _______ _______ _____ _____    ______ ____
ROOT
ATOM      1  C   UNL     1      23.132   5.896  31.013  0.00  0.00    +0.054 C 
ATOM      2  C   UNL     1      23.983   5.931  29.756  0.00  0.00    +0.148 C 
ATOM      3  N   UNL     1      24.973   7.011  29.747  0.00  0.00    -0.265 N 
ATOM      4  C   UNL     1      24.508   8.417  29.819  0.00  0.00    +0.190 C 
ATOM      5  C   UNL     1      23.428   8.470  30.853  0.00  0.00    +0.019 A 
ATOM      6  S   UNL     1      22.806   9.957  31.469  0.00  0.00    -0.002 S 
ATOM      7  C   UNL     1      21.601   9.212  32.455  0.00  0.00    +0.170 A 
ATOM     22  C   UNL     1      21.717   7.751  32.321  0.00  0.00    +0.089 A 
ATOM     25  C   UNL     1      26.272   6.764  29.418  0.00  0.00    +0.185 C 
ATOM     35  O   UNL     1      26.917   7.610  28.784  0.00  0.00    -0.397 OA
ATOM     36  C   UNL     1      22.729   7.298  31.372  0.00  0.00    -0.052 A 
ENDROOT
BRANCH   7   8
ATOM      8  N   UNL     1      20.765   9.831  33.242  0.00  0.00    -0.202 N 
ATOM      9  H   UNL     1      20.069   9.277  33.699  0.00  0.00    +0.244 HD
ATOM     10  C   UNL     1      20.762  11.162  33.491  0.00  0.00    +0.245 C 
ATOM     21  O   UNL     1      21.359  11.990  32.853  0.00  0.00    -0.368 OA
BRANCH  10  11
ATOM     11  C   UNL     1      19.859  11.517  34.621  0.00  0.00    +0.065 A 
ATOM     12  C   UNL     1      18.855  12.592  34.444  0.00  0.00    +0.000 A 
ATOM     13  C   UNL     1      17.930  12.817  35.570  0.00  0.00    -0.012 A 
ATOM     14  C   UNL     1      16.989  13.841  35.461  0.00  0.00    +0.011 A 
ATOM     15  C   UNL     1      16.919  14.598  34.300  0.00  0.00    +0.002 A 
ATOM     16  C   UNL     1      17.820  14.374  33.236  0.00  0.00    +0.003 A 
ATOM     17  C   UNL     1      18.039  12.035  36.723  0.00  0.00    +0.019 A 
ATOM     18  C   UNL     1      18.985  11.033  36.834  0.00  0.00    +0.009 A 
ATOM     19  C   UNL     1      18.772  13.380  33.294  0.00  0.00    +0.010 A 
ATOM     20  C   UNL     1      19.873  10.756  35.805  0.00  0.00    +0.029 A 
ENDBRANCH  10  11
ENDBRANCH   7   8
BRANCH  22  23
ATOM     23  C   UNL     1      21.036   6.775  32.921  0.00  0.00    +0.036 C 
ATOM     24  N   UNL     1      20.435   5.953  33.428  0.00  0.00    -0.386 NA
ENDBRANCH  22  23
BRANCH  25  26
ATOM     26  C   UNL     1      26.905   5.446  29.901  0.00  0.00    +0.189 C 
BRANCH  26  27
ATOM     27  C   UNL     1      27.902   4.787  28.926  0.00  0.00    +0.153 C 
BRANCH  27  28
ATOM     28  N   UNL     1      29.054   5.669  28.664  0.00  0.00    +0.237 N 
ATOM     29  H   UNL     1      28.724   6.614  28.543  0.00  0.00    +0.203 HD
ATOM     30  C   UNL     1      29.756   5.233  27.447  0.00  0.00    +0.131 C 
ATOM     31  C   UNL     1      30.806   6.291  27.086  0.00  0.00    +0.051 C 
ATOM     32  C   UNL     1      31.772   6.545  28.239  0.00  0.00    +0.010 C 
ATOM     33  C   UNL     1      31.020   6.747  29.555  0.00  0.00    +0.051 C 
ATOM     34  C   UNL     1      30.004   5.623  29.779  0.00  0.00    +0.131 C 
ENDBRANCH  27  28
ENDBRANCH  26  27
ENDBRANCH  25  26
TORSDOF 6
