REMARK  Name = 6EGE
REMARK  5 active torsions:
REMARK  status: ('A' for Active; 'I' for Inactive)
REMARK    1  A    between atoms: NBB_6  and  CAV_7
REMARK    2  A    between atoms: CBA_9  and  OAT_10
REMARK    3  A    between atoms: CAY_14  and  NAQ_15
REMARK    4  A    between atoms: CAU_16  and  CAW_18
REMARK    5  A    between atoms: CAX_23  and  CAZ_24
REMARK                            x       y       z     vdW  Elec       q    Type
REMARK                         _______ _______ _______ _____ _____    ______ ____
ROOT
ATOM      3  C   UNL     1       4.328 -15.472 -63.026  0.00  0.00    +0.000 A 
ATOM      4  C   UNL     1       3.362 -15.349 -63.981  0.00  0.00    -0.130 A 
ATOM      5  C   UNL     1       2.015 -15.294 -63.634  0.00  0.00    -0.130 A 
ATOM      6  C   UNL     1       1.706 -15.384 -62.279  0.00  0.00    +0.050 A 
ATOM     21  C   UNL     1       2.665 -15.479 -61.321  0.00  0.00    +0.185 A 
ATOM     24  C   UNL     1       3.982 -15.544 -61.649  0.00  0.00    -0.130 A 
ENDROOT
BRANCH   3   2
ATOM      1  C   UNL     1       6.311 -16.806 -63.145  0.00  0.00    +0.100 C 
ATOM      2  N   UNL     1       5.700 -15.546 -63.413  0.00  0.00    -0.400 N 
ATOM     25  C   UNL     1       5.987 -15.107 -64.729  0.00  0.00    +0.100 C 
ATOM     26  C   UNL     1       7.476 -15.110 -65.062  0.00  0.00    +0.080 C 
ATOM     27  O   UNL     1       8.082 -16.381 -64.748  0.00  0.00    -0.360 OA
ATOM     28  C   UNL     1       7.815 -16.782 -63.406  0.00  0.00    +0.080 C 
ENDBRANCH   3   2
BRANCH   6   7
ATOM      7  N   UNL     1       0.346 -15.288 -61.739  0.00  0.00    -0.350 NA
ATOM      8  C   UNL     1      -0.849 -15.176 -62.503  0.00  0.00    +0.600 C 
ATOM     20  O   UNL     1      -0.948 -15.205 -63.704  0.00  0.00    -0.550 OA
BRANCH   8   9
ATOM      9  C   UNL     1      -2.025 -14.991 -61.601  0.00  0.00    +0.380 A 
ATOM     10  C   UNL     1      -3.277 -14.718 -62.119  0.00  0.00    -0.130 A 
ATOM     11  C   UNL     1      -4.348 -14.513 -61.191  0.00  0.00    -0.130 A 
ATOM     12  C   UNL     1      -4.050 -14.581 -59.790  0.00  0.00    -0.130 A 
ATOM     13  C   UNL     1      -2.751 -14.830 -59.379  0.00  0.00    +0.100 A 
ATOM     19  N   UNL     1      -1.756 -15.022 -60.296  0.00  0.00    -0.480 NA
BRANCH  13  14
ATOM     14  C   UNL     1      -2.390 -14.869 -57.901  0.00  0.00    +0.150 A 
ATOM     15  C   UNL     1      -1.109 -14.863 -57.346  0.00  0.00    -0.150 A 
ATOM     16  C   UNL     1      -1.258 -14.879 -55.989  0.00  0.00    +0.000 A 
ATOM     17  N   UNL     1      -2.628 -14.880 -55.716  0.00  0.00    -0.100 NA
ATOM     18  N   UNL     1      -3.277 -14.870 -56.898  0.00  0.00    -0.400 NA
ENDBRANCH  13  14
ENDBRANCH   8   9
ENDBRANCH   6   7
BRANCH  21  22
ATOM     22  O   UNL     1       2.197 -15.529 -59.984  0.00  0.00    -0.365 OA
ATOM     23  C   UNL     1       3.228 -15.345 -58.977  0.00  0.00    +0.030 C 
ENDBRANCH  21  22
TORSDOF 5
