REMARK  Name = 2vww_ligand
REMARK  8 active torsions:
REMARK  status: ('A' for Active; 'I' for Inactive)
REMARK    1  A    between atoms: C1_1  and  O2_2
REMARK    2  A    between atoms: O2_2  and  C3_3
REMARK    3  A    between atoms: C5_5  and  N6_6
REMARK    4  A    between atoms: N12_12  and  C13_13
REMARK    5  A    between atoms: C25_25  and  O26_26
REMARK    6  A    between atoms: O26_26  and  C27_27
REMARK    7  A    between atoms: C28_28  and  O29_29
REMARK    8  A    between atoms: O29_29  and  C30_30
REMARK                            x       y       z     vdW  Elec       q    Type
REMARK                         _______ _______ _______ _____ _____    ______ ____
ROOT
ATOM     12  N   UNL     1      13.967   7.103  11.600  0.00  0.00    -0.255 N 
ATOM     13  H   UNL     1      14.962   7.132  11.865  0.00  0.00    +0.215 HD
ATOM     14  C   UNL     1      13.306   5.920  11.861  0.00  0.00    +0.192 A 
ATOM     15  N   UNL     1      11.986   5.799  11.729  0.00  0.00    -0.236 NA
ATOM     16  C   UNL     1      11.400   4.626  12.003  0.00  0.00    +0.131 A 
ATOM     17  N   UNL     1      10.015   4.478  11.849  0.00  0.00    -0.261 N 
ATOM     18  H   UNL     1       9.476   5.252  11.435  0.00  0.00    +0.213 HD
ATOM     29  C   UNL     1      12.209   3.554  12.452  0.00  0.00    +0.055 A 
ATOM     30  C   UNL     1      13.558   3.725  12.596  0.00  0.00    +0.085 A 
ATOM     31  N   UNL     1      14.065   4.904  12.279  0.00  0.00    -0.270 NA
ENDROOT
BRANCH  17  19
ATOM     19  C   UNL     1       9.331   3.305  12.241  0.00  0.00    +0.100 A 
ATOM     20  C   UNL     1       8.748   2.468  11.282  0.00  0.00    +0.043 A 
ATOM     21 CL   UNL     1       8.873   2.907   9.613  0.00  0.00    -0.092 Cl
ATOM     22  C   UNL     1       8.110   1.287  11.655  0.00  0.00    -0.029 A 
ATOM     23  C   UNL     1       8.000   0.939  13.014  0.00  0.00    -0.009 A 
ATOM     24  C   UNL     1       8.580   1.767  13.977  0.00  0.00    +0.115 A 
ATOM     25  O   UNL     1       8.624   1.657  15.349  0.00  0.00    -0.294 OA
ATOM     26  C   UNL     1       9.672   2.569  15.746  0.00  0.00    +0.378 C 
ATOM     27  O   UNL     1       9.716   3.571  14.710  0.00  0.00    -0.296 OA
ATOM     28  C   UNL     1       9.241   2.939  13.595  0.00  0.00    +0.147 A 
ENDBRANCH  17  19
BRANCH  12  11
ATOM      3  C   UNL     1      13.744  10.586  10.478  0.00  0.00    +0.103 A 
ATOM      4  C   UNL     1      12.482  10.549   9.874  0.00  0.00    +0.135 A 
ATOM      7  C   UNL     1      11.721   9.366   9.837  0.00  0.00    +0.103 A 
ATOM     10  C   UNL     1      12.219   8.222  10.417  0.00  0.00    +0.006 A 
ATOM     11  C   UNL     1      13.457   8.259  11.025  0.00  0.00    +0.038 A 
ATOM     32  C   UNL     1      14.240   9.425  11.045  0.00  0.00    +0.006 A 
BRANCH   3   2
ATOM      1  C   UNL     1      15.695  11.776  11.060  0.00  0.00    +0.228 C 
ATOM      2  O   UNL     1      14.416  11.771  10.430  0.00  0.00    -0.331 OA
ENDBRANCH   3   2
BRANCH   4   5
ATOM      5  O   UNL     1      12.033  11.706   9.310  0.00  0.00    -0.337 OA
ATOM      6  C   UNL     1      10.832  12.075   9.984  0.00  0.00    +0.221 C 
ENDBRANCH   4   5
BRANCH   7   8
ATOM      8  O   UNL     1      10.480   9.314   9.251  0.00  0.00    -0.331 OA
ATOM      9  C   UNL     1      10.499   8.513   8.078  0.00  0.00    +0.228 C 
ENDBRANCH   7   8
ENDBRANCH  12  11
TORSDOF 5
