REMARK  Name = 31O
REMARK  5 active torsions:
REMARK  status: ('A' for Active; 'I' for Inactive)
REMARK    1  A    between atoms: OAU_2  and  CAT_3
REMARK    2  A    between atoms: CAT_3  and  CAS_5
REMARK    3  A    between atoms: CAS_5  and  CAI_7
REMARK    4  A    between atoms: CAB_18  and  OAL_19
REMARK    5  A    between atoms: CAG_23  and  CAQ_24
REMARK                            x       y       z     vdW  Elec       q    Type
REMARK                         _______ _______ _______ _____ _____    ______ ____
ROOT
ATOM      6  C   UNL     1      69.927  -7.056  71.869  0.00  0.00    +0.172 C 
ATOM      7  N   UNL     1      69.848  -6.529  73.274  0.00  0.00    -0.264 NA
ATOM      8  C   UNL     1      70.301  -5.298  73.594  0.00  0.00    +0.078 C 
ATOM     16  C   UNL     1      70.794  -4.463  72.587  0.00  0.00    +0.036 A 
ATOM     17  C   UNL     1      71.953  -3.766  72.928  0.00  0.00    +0.040 A 
ATOM     18  C   UNL     1      72.556  -2.908  72.014  0.00  0.00    +0.139 A 
ATOM     21  C   UNL     1      71.979  -2.759  70.748  0.00  0.00    +0.038 A 
ATOM     22  C   UNL     1      70.823  -3.466  70.394  0.00  0.00    +0.021 A 
ATOM     23  C   UNL     1      70.205  -4.317  71.317  0.00  0.00    +0.068 A 
ATOM     24  N   UNL     1      69.112  -4.997  70.880  0.00  0.00    -0.279 N 
ATOM     25  C   UNL     1      68.010  -4.716  70.187  0.00  0.00    +0.147 A 
ATOM     26  N   UNL     1      67.260  -5.825  70.055  0.00  0.00    -0.133 NA
ATOM     27  N   UNL     1      67.834  -6.755  70.603  0.00  0.00    -0.131 NA
ATOM     28  C   UNL     1      67.634  -3.349  69.623  0.00  0.00    +0.074 C 
ATOM     29  C   UNL     1      68.987  -6.304  71.127  0.00  0.00    +0.170 A 
ENDROOT
BRANCH   8   9
ATOM      9  C   UNL     1      70.174  -4.838  74.916  0.00  0.00    +0.017 A 
ATOM     10  C   UNL     1      70.300  -5.726  75.993  0.00  0.00    +0.002 A 
ATOM     11  C   UNL     1      70.163  -5.268  77.304  0.00  0.00    +0.011 A 
ATOM     12  C   UNL     1      69.895  -3.922  77.555  0.00  0.00    +0.058 A 
ATOM     13 CL   UNL     1      69.721  -3.356  79.188  0.00  0.00    -0.082 Cl
ATOM     14  C   UNL     1      69.768  -3.036  76.495  0.00  0.00    +0.011 A 
ATOM     15  C   UNL     1      69.906  -3.491  75.185  0.00  0.00    +0.002 A 
ENDBRANCH   8   9
BRANCH   6   5
ATOM      5  C   UNL     1      69.801  -8.565  71.741  0.00  0.00    +0.129 C 
ATOM     30  C   UNL     1      70.078  -8.929  70.270  0.00  0.00    +0.014 C 
BRANCH   5   3
ATOM      3  C   UNL     1      70.833  -9.259  72.676  0.00  0.00    +0.319 C 
ATOM      4  O   UNL     1      71.655  -8.620  73.341  0.00  0.00    -0.250 OA
BRANCH   3   2
ATOM      1  C   UNL     1      71.958 -11.265  73.107  0.00  0.00    +0.256 C 
ATOM      2  O   UNL     1      70.747 -10.615  72.718  0.00  0.00    -0.444 OA
ENDBRANCH   3   2
ENDBRANCH   5   3
ENDBRANCH   6   5
BRANCH  18  19
ATOM     19  O   UNL     1      73.690  -2.249  72.433  0.00  0.00    -0.471 OA
ATOM     20  C   UNL     1      74.485  -1.512  71.487  0.00  0.00    +0.253 C 
ENDBRANCH  18  19
TORSDOF 5
