REMARK  Name = L5S
REMARK  1 active torsions:
REMARK  status: ('A' for Active; 'I' for Inactive)
REMARK    1  A    between atoms: CAO_13  and  CAQ_14
REMARK                            x       y       z     vdW  Elec       q    Type
REMARK                         _______ _______ _______ _____ _____    ______ ____
ROOT
ATOM      1  C   UNL     1     -10.403  -6.356   1.203  0.00  0.00    +0.040 A 
ATOM      2  C   UNL     1     -10.979  -6.240   2.547  0.00  0.00    +0.078 C 
ATOM      9  N   UNL     1     -12.248  -6.365   2.862  0.00  0.00    -0.262 NA
ATOM     10  C   UNL     1     -13.198  -6.775   1.817  0.00  0.00    +0.191 C 
ATOM     11  C   UNL     1     -13.347  -5.686   0.817  0.00  0.00    +0.172 A 
ATOM     12  N   UNL     1     -14.406  -4.969   0.537  0.00  0.00    -0.131 NA
ATOM     13  N   UNL     1     -14.044  -4.059  -0.451  0.00  0.00    -0.133 NA
ATOM     14  C   UNL     1     -12.782  -4.252  -0.737  0.00  0.00    +0.148 A 
ATOM     15  C   UNL     1     -11.987  -3.465  -1.714  0.00  0.00    +0.074 C 
ATOM     16  N   UNL     1     -12.286  -5.283   0.031  0.00  0.00    -0.274 N 
ATOM     17  C   UNL     1      -9.126  -6.928   0.891  0.00  0.00    +0.011 A 
ATOM     18  C   UNL     1      -8.840  -6.873  -0.439  0.00  0.00    +0.037 A 
ATOM     19  S   UNL     1     -10.087  -6.142  -1.348  0.00  0.00    -0.069 S 
ATOM     20  C   UNL     1     -11.026  -5.892   0.061  0.00  0.00    +0.098 A 
ENDROOT
BRANCH   2   3
ATOM      3  C   UNL     1     -10.066  -5.852   3.648  0.00  0.00    +0.017 A 
ATOM      4  C   UNL     1     -10.379  -6.183   4.964  0.00  0.00    +0.002 A 
ATOM      5  C   UNL     1      -9.575  -5.753   6.008  0.00  0.00    +0.000 A 
ATOM      6  C   UNL     1      -8.450  -4.999   5.754  0.00  0.00    +0.000 A 
ATOM      7  C   UNL     1      -8.120  -4.677   4.458  0.00  0.00    +0.000 A 
ATOM      8  C   UNL     1      -8.920  -5.099   3.406  0.00  0.00    +0.002 A 
ENDBRANCH   2   3
TORSDOF 1
