REMARK  Name = 2c4g_ligand
REMARK  2 active torsions:
REMARK  status: ('A' for Active; 'I' for Inactive)
REMARK    1  A    between atoms: C5_5  and  C8_8
REMARK    2  A    between atoms: C19_19  and  C20_20
REMARK                            x       y       z     vdW  Elec       q    Type
REMARK                         _______ _______ _______ _____ _____    ______ ____
ROOT
ATOM      1  O   UNL     1     -19.171 212.447 104.513  0.00  0.00    -0.397 OA
ATOM      2  C   UNL     1     -18.043 212.797 104.882  0.00  0.00    +0.178 C 
ATOM      3  C   UNL     1     -17.733 212.824 106.384  0.00  0.00    +0.166 C 
ATOM      4  N   UNL     1     -17.070 213.167 103.986  0.00  0.00    -0.257 N 
ATOM      5  C   UNL     1     -17.266 213.182 102.501  0.00  0.00    +0.231 C 
ATOM      6  C   UNL     1     -15.933 213.662 102.070  0.00  0.00    +0.079 A 
ATOM      7  C   UNL     1     -15.143 213.871 103.087  0.00  0.00    +0.015 A 
ATOM      8  C   UNL     1     -13.882 214.340 102.466  0.00  0.00    +0.103 A 
ATOM      9  N   UNL     1     -12.593 214.748 103.043  0.00  0.00    -0.237 N 
ATOM     10  H   UNL     1     -11.880 215.037 102.404  0.00  0.00    +0.219 HD
ATOM     11  C   UNL     1     -12.284 214.768 104.364  0.00  0.00    +0.228 C 
ATOM     12  O   UNL     1     -13.081 214.431 105.235  0.00  0.00    -0.375 OA
ATOM     19  N   UNL     1     -14.168 214.327 101.102  0.00  0.00    -0.240 NA
ATOM     20  N   UNL     1     -15.275 213.960 100.879  0.00  0.00    -0.243 N 
ATOM     21  H   UNL     1     -15.689 213.874  99.940  0.00  0.00    +0.239 HD
ATOM     22  C   UNL     1     -15.708 213.600 104.414  0.00  0.00    +0.166 C 
ENDROOT
BRANCH  11  13
ATOM     13  C   UNL     1     -11.000 215.188 104.767  0.00  0.00    +0.055 A 
ATOM     14  C   UNL     1     -10.855 216.119 105.858  0.00  0.00    +0.025 A 
ATOM     15  C   UNL     1      -9.565 216.544 106.274  0.00  0.00    +0.007 A 
ATOM     16  C   UNL     1      -8.397 216.049 105.611  0.00  0.00    +0.008 A 
ATOM     17  C   UNL     1      -8.524 215.131 104.534  0.00  0.00    +0.007 A 
ATOM     18  C   UNL     1      -9.810 214.701 104.112  0.00  0.00    +0.025 A 
ENDBRANCH  11  13
TORSDOF 1
