REMARK  Name = 3py1_ligand
REMARK  3 active torsions:
REMARK  status: ('A' for Active; 'I' for Inactive)
REMARK    1  A    between atoms: C1'_5  and  C6'_6
REMARK    2  A    between atoms: C2_14  and  O11_15
REMARK    3  A    between atoms: O11_15  and  C12_16
REMARK                            x       y       z     vdW  Elec       q    Type
REMARK                         _______ _______ _______ _____ _____    ______ ____
ROOT
ATOM      3  C   UNL     1     -77.551 -97.430  28.399  0.00  0.00    +0.029 C 
ATOM      4  C   UNL     1     -78.320 -98.504  28.767  0.00  0.00    +0.038 C 
ATOM      5  C   UNL     1     -79.669 -98.793  28.268  0.00  0.00    -0.010 A 
ATOM      6  C   UNL     1     -80.511 -98.110  27.346  0.00  0.00    +0.002 A 
ATOM      7  C   UNL     1     -81.814 -98.618  27.020  0.00  0.00    +0.072 A 
ATOM     10  C   UNL     1     -82.217 -99.846  27.664  0.00  0.00    -0.000 A 
ATOM     11  C   UNL     1     -81.382-100.548  28.595  0.00  0.00    -0.004 A 
ATOM     12  C   UNL     1     -80.097 -99.989  28.885  0.00  0.00    +0.058 A 
ATOM     13  N   UNL     1     -79.088-100.441  29.737  0.00  0.00    -0.244 N 
ATOM     14  H   UNL     1     -79.130-101.266  30.300  0.00  0.00    +0.221 HD
ATOM     15  C   UNL     1     -78.023 -99.564  29.676  0.00  0.00    +0.213 C 
ATOM     16  O   UNL     1     -77.004 -99.757  30.347  0.00  0.00    -0.384 OA
ENDROOT
BRANCH   3   2
ATOM      1  N   UNL     1     -75.362 -97.691  29.682  0.00  0.00    -0.312 NA
ATOM      2  C   UNL     1     -76.199 -97.059  28.818  0.00  0.00    +0.035 A 
ATOM     17  C   UNL     1     -75.580 -95.928  28.334  0.00  0.00    +0.166 A 
ATOM     18  N   UNL     1     -74.334 -95.889  28.931  0.00  0.00    -0.252 N 
ATOM     19  H   UNL     1     -73.608 -95.172  28.793  0.00  0.00    +0.247 HD
ATOM     20  C   UNL     1     -74.254 -96.976  29.732  0.00  0.00    +0.230 A 
ENDBRANCH   3   2
BRANCH   7   8
ATOM      8  O   UNL     1     -82.710 -98.028  26.148  0.00  0.00    -0.332 OA
ATOM      9  C   UNL     1     -82.361 -96.820  25.493  0.00  0.00    +0.227 C 
ENDBRANCH   7   8
TORSDOF 2
