REMARK  Name = 1xbc_ligand
REMARK  5 active torsions:
REMARK  status: ('A' for Active; 'I' for Inactive)
REMARK    1  A    between atoms: C24_24  and  C35_35
REMARK    2  A    between atoms: C25_25  and  O33_33
REMARK    3  A    between atoms: C26_26  and  N31_31
REMARK    4  A    between atoms: N31_31  and  C32_32
REMARK    5  A    between atoms: O33_33  and  C34_34
REMARK                            x       y       z     vdW  Elec       q    Type
REMARK                         _______ _______ _______ _____ _____    ______ ____
ROOT
ATOM      1  C   UNL     1       6.043   3.669  12.556  0.00  0.00    -0.013 A 
ATOM      2  C   UNL     1       4.713   3.271  12.511  0.00  0.00    -0.007 A 
ATOM      3  C   UNL     1       3.980   2.192  13.204  0.00  0.00    +0.001 A 
ATOM      4  C   UNL     1       4.430   1.225  14.104  0.00  0.00    -0.017 A 
ATOM      5  C   UNL     1       5.802   0.942  14.674  0.00  0.00    +0.196 C 
ATOM      6  N   UNL     1       5.502  -0.152  15.618  0.00  0.00    -0.279 N 
ATOM      7  H   UNL     1       6.189  -0.528  16.239  0.00  0.00    +0.186 HD
ATOM      8  C   UNL     1       4.240  -0.605  15.582  0.00  0.00    +0.187 C 
ATOM      9  O   UNL     1       3.762  -1.552  16.189  0.00  0.00    -0.396 OA
ATOM     10  C   UNL     1       3.482   0.266  14.660  0.00  0.00    +0.032 A 
ATOM     11  C   UNL     1       2.059   0.358  14.278  0.00  0.00    -0.002 A 
ATOM     12  C   UNL     1       0.846  -0.405  14.631  0.00  0.00    -0.007 A 
ATOM     13  C   UNL     1       0.632  -1.473  15.489  0.00  0.00    -0.011 A 
ATOM     14  C   UNL     1      -0.682  -1.948  15.580  0.00  0.00    -0.023 A 
ATOM     15  C   UNL     1      -1.738  -1.367  14.854  0.00  0.00    -0.016 A 
ATOM     16  C   UNL     1      -1.547  -0.280  13.990  0.00  0.00    +0.014 A 
ATOM     17  C   UNL     1      -0.251   0.219  13.873  0.00  0.00    +0.068 A 
ATOM     18  N   UNL     1       0.245   1.288  13.093  0.00  0.00    -0.238 N 
ATOM     19  C   UNL     1      -0.553   2.114  12.183  0.00  0.00    +0.260 C 
ATOM     20  O   UNL     1       0.288   2.662  11.159  0.00  0.00    -0.315 OA
ATOM     21  C   UNL     1       1.124   3.807  11.415  0.00  0.00    +0.202 C 
ATOM     22  C   UNL     1       1.227   4.496  10.054  0.00  0.00    +0.079 C 
ATOM     23  C   UNL     1       0.513   4.768  12.457  0.00  0.00    +0.227 C 
ATOM     26  C   UNL     1      -0.994   4.598  12.489  0.00  0.00    +0.102 C 
ATOM     31  N   UNL     1       2.457   3.347  11.916  0.00  0.00    -0.229 N 
ATOM     32  C   UNL     1      -1.320   3.187  12.985  0.00  0.00    +0.120 C 
ATOM     33  C   UNL     1       1.634   1.404  13.324  0.00  0.00    +0.095 A 
ATOM     34  C   UNL     1       2.547   2.307  12.769  0.00  0.00    +0.098 A 
ATOM     35  C   UNL     1       3.663   3.939  11.730  0.00  0.00    +0.070 A 
ATOM     36  C   UNL     1       4.095   5.040  10.983  0.00  0.00    +0.013 A 
ATOM     37  C   UNL     1       5.435   5.442  11.007  0.00  0.00    -0.018 A 
ATOM     38  C   UNL     1       6.395   4.772  11.776  0.00  0.00    -0.024 A 
ENDROOT
BRANCH  26  27
ATOM     27  N   UNL     1      -1.581   5.643  13.308  0.00  0.00    +0.229 N 
ATOM     28  H   UNL     1      -2.559   5.424  13.413  0.00  0.00    +0.201 HD
ATOM     29  H   UNL     1      -1.129   5.604  14.208  0.00  0.00    +0.201 HD
ATOM     30  C   UNL     1      -1.497   7.025  12.845  0.00  0.00    +0.189 C 
ENDBRANCH  26  27
BRANCH  23  24
ATOM     24  O   UNL     1       0.976   4.522  13.792  0.00  0.00    -0.369 OA
ATOM     25  C   UNL     1       1.898   5.488  14.297  0.00  0.00    +0.195 C 
ENDBRANCH  23  24
TORSDOF 2
