REMARK  Name = 5VO6
REMARK  9 active torsions:
REMARK  status: ('A' for Active; 'I' for Inactive)
REMARK    1  A    between atoms: C_2  and  N_25
REMARK    2  A    between atoms: C_2  and  C_28
REMARK    3  A    between atoms: C_3  and  C_6
REMARK    4  A    between atoms: C_3  and  C_7
REMARK    5  A    between atoms: C_4  and  N_21
REMARK    6  A    between atoms: C_10  and  C_16
REMARK    7  A    between atoms: C_10  and  O_23
REMARK    8  A    between atoms: C_17  and  N_21
REMARK    9  A    between atoms: C_19  and  C_24
REMARK                            x       y       z     vdW  Elec       q    Type
REMARK                         _______ _______ _______ _____ _____    ______ ____
ROOT
ATOM      6  C   UNL     1      -0.179 -14.308  -3.883  0.00  0.00    +0.067 A 
ATOM      7  C   UNL     1      -0.639 -12.981  -3.754  0.00  0.00    +0.078 A 
ATOM      8  C   UNL     1      -1.984 -12.787  -3.347  0.00  0.00    +0.148 A 
ATOM      9  N   UNL     1      -2.872 -13.687  -3.086  0.00  0.00    -0.174 NA
ATOM     10  N   UNL     1      -2.408 -14.970  -3.227  0.00  0.00    -0.237 N 
ATOM     11  C   UNL     1      -3.220 -16.044  -3.038  0.00  0.00    +0.121 A 
ATOM     12  C   UNL     1      -2.474 -17.175  -3.259  0.00  0.00    +0.002 A 
ATOM     19  C   UNL     1      -1.137 -16.754  -3.618  0.00  0.00    +0.039 A 
ATOM     25  C   UNL     1      -1.121 -15.357  -3.597  0.00  0.00    +0.087 A 
ENDROOT
BRANCH  12  13
ATOM     13  C   UNL     1      -3.018 -18.548  -3.081  0.00  0.00    -0.016 A 
ATOM     14  C   UNL     1      -2.497 -19.625  -3.798  0.00  0.00    +0.008 A 
ATOM     15  C   UNL     1      -3.075 -20.888  -3.699  0.00  0.00    +0.001 A 
ATOM     16  C   UNL     1      -4.165 -21.094  -2.873  0.00  0.00    +0.000 A 
ATOM     17  C   UNL     1      -4.687 -20.036  -2.151  0.00  0.00    +0.001 A 
ATOM     18  C   UNL     1      -4.122 -18.772  -2.253  0.00  0.00    +0.008 A 
ENDBRANCH  12  13
BRANCH   7  20
ATOM     20  C   UNL     1       0.256 -11.804  -3.999  0.00  0.00    +0.216 C 
ATOM     23  N   UNL     1      -0.151 -10.611  -3.577  0.00  0.00    -0.267 NA
ATOM     24  H   UNL     1       0.463  -9.749  -3.735  0.00  0.00    +0.190 HD
BRANCH  20  21
ATOM     21  O   UNL     1       1.350 -11.928  -4.575  0.00  0.00    -0.492 OA
ATOM     22  H   UNL     1       1.962 -12.583  -4.028  0.00  0.00    +0.294 HD
ENDBRANCH  20  21
ENDBRANCH   7  20
BRANCH   6   4
ATOM      4  N   UNL     1       1.096 -14.550  -4.181  0.00  0.00    -0.338 N 
ATOM      5  H   UNL     1       1.786 -13.776  -3.917  0.00  0.00    +0.146 HD
BRANCH   4   3
ATOM      1  C   UNL     1       3.706 -17.030  -5.042  0.00  0.00    +0.024 C 
ATOM      2  C   UNL     1       2.896 -16.205  -4.030  0.00  0.00    +0.024 C 
ATOM      3  C   UNL     1       1.678 -15.717  -4.813  0.00  0.00    +0.078 C 
ATOM     26  C   UNL     1       2.186 -15.520  -6.245  0.00  0.00    +0.001 C 
ATOM     27  C   UNL     1       1.018 -15.353  -7.230  0.00  0.00    +0.014 C 
ATOM     28  C   UNL     1       3.099 -14.291  -6.474  0.00  0.00    +0.014 C 
ATOM     29  C   UNL     1       2.899 -16.933  -6.355  0.00  0.00    +0.021 C 
ATOM     30  C   UNL     1       1.983 -18.139  -6.529  0.00  0.00    +0.028 C 
BRANCH  29  31
ATOM     31  N   UNL     1       3.856 -17.027  -7.479  0.00  0.00    -0.324 NA
ATOM     32  H   UNL     1       4.561 -16.225  -7.416  0.00  0.00    +0.119 HD
ATOM     33  H   UNL     1       4.375 -17.962  -7.429  0.00  0.00    +0.119 HD
ENDBRANCH  29  31
ENDBRANCH   4   3
ENDBRANCH   6   4
TORSDOF 6
