REMARK  Name = 4hvd_ligand
REMARK  8 active torsions:
REMARK  status: ('A' for Active; 'I' for Inactive)
REMARK    1  A    between atoms: C3_3  and  C10_10
REMARK    2  A    between atoms: C7_7  and  C13_13
REMARK    3  A    between atoms: N14_14  and  C16_16
REMARK    4  A    between atoms: C16_16  and  C17_17
REMARK    5  A    between atoms: C16_16  and  C21_21
REMARK    6  A    between atoms: C17_17  and  C18_18
REMARK    7  A    between atoms: C17_17  and  C19_19
REMARK    8  A    between atoms: C17_17  and  C20_20
REMARK                            x       y       z     vdW  Elec       q    Type
REMARK                         _______ _______ _______ _____ _____    ______ ____
ROOT
ATOM      1  N   UNL     1      -2.542 -14.191  -2.965  0.00  0.00    -0.265 NA
ATOM      2  C   UNL     1      -1.434 -13.539  -3.325  0.00  0.00    +0.164 A 
ATOM      3  N   UNL     1      -1.080 -12.211  -3.360  0.00  0.00    -0.250 N 
ATOM      4  H   UNL     1      -1.690 -11.432  -3.075  0.00  0.00    +0.237 HD
ATOM      5  C   UNL     1       0.195 -12.072  -3.826  0.00  0.00    +0.175 A 
ATOM      6  C   UNL     1       0.728 -13.302  -4.096  0.00  0.00    +0.073 A 
ATOM     17  C   UNL     1      -0.321 -14.281  -3.784  0.00  0.00    +0.079 A 
ATOM     18  N   UNL     1      -0.381 -15.606  -3.858  0.00  0.00    -0.296 NA
ATOM     19  C   UNL     1      -1.489 -16.239  -3.506  0.00  0.00    +0.041 A 
ATOM     23  C   UNL     1      -2.583 -15.512  -3.044  0.00  0.00    +0.107 A 
ENDROOT
BRANCH   6   7
ATOM      7  C   UNL     1       2.051 -13.648  -4.629  0.00  0.00    +0.182 C 
ATOM      8  O   UNL     1       2.889 -12.789  -4.856  0.00  0.00    -0.402 OA
ATOM      9  N   UNL     1       2.279 -14.963  -4.871  0.00  0.00    -0.288 N 
ATOM     10  H   UNL     1       1.549 -15.605  -4.640  0.00  0.00    +0.184 HD
BRANCH   9  11
ATOM     11  C   UNL     1       3.511 -15.521  -5.445  0.00  0.00    +0.099 C 
ATOM     12  C   UNL     1       4.006 -16.672  -4.555  0.00  0.00    +0.034 C 
BRANCH  11  13
ATOM     13  C   UNL     1       3.205 -15.984  -6.890  0.00  0.00    -0.015 C 
ATOM     14  C   UNL     1       2.118 -17.066  -6.936  0.00  0.00    +0.013 C 
ATOM     15  C   UNL     1       4.461 -16.527  -7.575  0.00  0.00    +0.013 C 
ATOM     16  C   UNL     1       2.725 -14.786  -7.721  0.00  0.00    +0.013 C 
ENDBRANCH  11  13
ENDBRANCH   9  11
ENDBRANCH   6   7
BRANCH  19  20
ATOM     20  C   UNL     1      -1.574 -17.745  -3.576  0.00  0.00    +0.058 C 
ATOM     21  C   UNL     1      -0.282 -18.537  -3.365  0.00  0.00    +0.023 C 
ATOM     22  C   UNL     1      -0.915 -18.461  -4.760  0.00  0.00    +0.023 C 
ENDBRANCH  19  20
TORSDOF 4
