REMARK  Name = 3prf_ligand
REMARK  4 active torsions:
REMARK  status: ('A' for Active; 'I' for Inactive)
REMARK    1  A    between atoms: C4_4  and  N7_7
REMARK    2  A    between atoms: C6_6  and  O23_23
REMARK    3  A    between atoms: N7_7  and  C16_16
REMARK    4  A    between atoms: C15_15  and  C17_17
REMARK                            x       y       z     vdW  Elec       q    Type
REMARK                         _______ _______ _______ _____ _____    ______ ____
ROOT
ATOM     10  C   UNL     1      82.934   7.986  -7.822  0.00  0.00    +0.112 A 
ATOM     11  C   UNL     1      84.204   8.334  -8.255  0.00  0.00    +0.184 A 
ATOM     18  O   UNL     1      84.263   9.619  -8.848  0.00  0.00    -0.250 OA
ATOM     19  C   UNL     1      82.970  10.075  -8.770  0.00  0.00    +0.152 A 
ATOM     20  C   UNL     1      82.459  11.310  -9.215  0.00  0.00    +0.121 A 
ATOM     21  N   UNL     1      81.147  11.595  -9.055  0.00  0.00    -0.310 NA
ATOM     22  C   UNL     1      80.334  10.688  -8.466  0.00  0.00    +0.067 A 
ATOM     23  C   UNL     1      80.778   9.431  -7.996  0.00  0.00    +0.030 A 
ATOM     24  C   UNL     1      82.143   9.135  -8.163  0.00  0.00    +0.054 A 
ENDROOT
BRANCH  11  12
ATOM     12  C   UNL     1      85.382   7.521  -8.150  0.00  0.00    +0.143 A 
ATOM     13  N   UNL     1      85.220   6.201  -7.909  0.00  0.00    -0.271 NA
ATOM     14  C   UNL     1      86.343   5.451  -7.818  0.00  0.00    +0.110 A 
ATOM     15  C   UNL     1      87.630   6.015  -7.975  0.00  0.00    +0.054 A 
ATOM     16  C   UNL     1      87.709   7.399  -8.229  0.00  0.00    +0.110 A 
ATOM     17  N   UNL     1      86.578   8.137  -8.314  0.00  0.00    -0.271 NA
ENDBRANCH  11  12
BRANCH  10   8
ATOM      8  N   UNL     1      82.549   6.838  -7.229  0.00  0.00    -0.278 N 
ATOM      9  H   UNL     1      83.280   6.358  -6.705  0.00  0.00    +0.208 HD
BRANCH   8   7
ATOM      1  C   UNL     1      78.825   4.995  -7.221  0.00  0.00    +0.055 A 
ATOM      2 CL   UNL     1      77.274   4.234  -7.214  0.00  0.00    -0.090 Cl
ATOM      3  C   UNL     1      79.772   4.681  -6.223  0.00  0.00    +0.092 A 
ATOM      6  C   UNL     1      81.040   5.298  -6.214  0.00  0.00    +0.033 A 
ATOM      7  C   UNL     1      81.351   6.228  -7.221  0.00  0.00    +0.049 A 
ATOM     25  C   UNL     1      80.398   6.533  -8.217  0.00  0.00    -0.006 A 
ATOM     26  C   UNL     1      79.131   5.928  -8.226  0.00  0.00    -0.010 A 
BRANCH   3   4
ATOM      4  O   UNL     1      79.459   3.764  -5.248  0.00  0.00    -0.335 OA
ATOM      5  H   UNL     1      78.568   3.438  -5.391  0.00  0.00    +0.248 HD
ENDBRANCH   3   4
ENDBRANCH   8   7
ENDBRANCH  10   8
TORSDOF 4
