REMARK  Name = 4puz_ligand
REMARK  3 active torsions:
REMARK  status: ('A' for Active; 'I' for Inactive)
REMARK    1  A    between atoms: N03_3  and  C07_7
REMARK    2  A    between atoms: C10_10  and  N11_11
REMARK    3  A    between atoms: C14_14  and  C21_21
REMARK                            x       y       z     vdW  Elec       q    Type
REMARK                         _______ _______ _______ _____ _____    ______ ____
ROOT
ATOM     10  N   UNL     1     -24.135  16.714   4.641  0.00  0.00    -0.257 N 
ATOM     11  H   UNL     1     -23.708  16.008   4.025  0.00  0.00    +0.213 HD
ATOM     12  C   UNL     1     -23.298  17.313   5.555  0.00  0.00    +0.183 A 
ATOM     13  C   UNL     1     -21.889  16.978   5.688  0.00  0.00    +0.203 A 
ATOM     14  N   UNL     1     -21.213  16.110   4.976  0.00  0.00    -0.324 NA
ATOM     15  C   UNL     1     -19.939  16.185   5.494  0.00  0.00    +0.030 A 
ATOM     16  C   UNL     1     -19.846  17.098   6.527  0.00  0.00    +0.141 A 
ATOM     17  N   UNL     1     -21.111  17.609   6.631  0.00  0.00    -0.204 N 
ATOM     18  C   UNL     1     -21.665  18.553   7.479  0.00  0.00    +0.199 A 
ATOM     19  C   UNL     1     -22.977  18.839   7.318  0.00  0.00    +0.056 A 
ATOM     30  N   UNL     1     -23.810  18.219   6.382  0.00  0.00    -0.288 NA
ENDROOT
BRANCH  19  20
ATOM     20  C   UNL     1     -23.599  19.830   8.210  0.00  0.00    -0.014 A 
ATOM     21  C   UNL     1     -22.992  20.124   9.451  0.00  0.00    +0.007 A 
ATOM     22  C   UNL     1     -23.636  21.062  10.260  0.00  0.00    -0.016 A 
ATOM     23  N   UNL     1     -23.317  21.564  11.498  0.00  0.00    -0.335 NA
ATOM     24  N   UNL     1     -24.205  22.458  11.970  0.00  0.00    -0.245 N 
ATOM     25  H   UNL     1     -24.187  22.964  12.867  0.00  0.00    +0.293 HD
ATOM     26  C   UNL     1     -25.117  22.531  10.994  0.00  0.00    +0.245 A 
ATOM     27  C   UNL     1     -24.832  21.683   9.901  0.00  0.00    +0.030 A 
ATOM     28  C   UNL     1     -25.438  21.376   8.672  0.00  0.00    +0.013 A 
ATOM     29  C   UNL     1     -24.805  20.447   7.823  0.00  0.00    +0.005 A 
ENDBRANCH  19  20
BRANCH  10   9
ATOM      6  C   UNL     1     -28.258  17.424   3.955  0.00  0.00    +0.029 A 
ATOM      7  C   UNL     1     -27.582  18.094   4.986  0.00  0.00    -0.004 A 
ATOM      8  C   UNL     1     -26.223  17.861   5.230  0.00  0.00    +0.002 A 
ATOM      9  C   UNL     1     -25.497  16.956   4.455  0.00  0.00    +0.052 A 
ATOM     31  C   UNL     1     -26.156  16.288   3.426  0.00  0.00    +0.002 A 
ATOM     32  C   UNL     1     -27.507  16.519   3.187  0.00  0.00    -0.004 A 
BRANCH   6   5
ATOM      1  C   UNL     1     -31.641  18.930   4.298  0.00  0.00    +0.183 C 
ATOM      2  O   UNL     1     -32.361  18.199   3.300  0.00  0.00    -0.376 OA
ATOM      3  C   UNL     1     -31.872  16.856   3.151  0.00  0.00    +0.183 C 
ATOM      4  C   UNL     1     -30.382  16.814   2.795  0.00  0.00    +0.155 C 
ATOM      5  N   UNL     1     -29.622  17.654   3.733  0.00  0.00    -0.310 N 
ATOM     33  C   UNL     1     -30.151  19.013   3.948  0.00  0.00    +0.155 C 
ENDBRANCH   6   5
ENDBRANCH  10   9
TORSDOF 3
