REMARK  Name = 4IWP
REMARK  7 active torsions:
REMARK  status: ('A' for Active; 'I' for Inactive)
REMARK    1  A    between atoms: N_6  and  C_17
REMARK    2  A    between atoms: N_7  and  C_21
REMARK    3  A    between atoms: N_8  and  C_22
REMARK    4  A    between atoms: N_9  and  C_23
REMARK    5  A    between atoms: C_19  and  C_21
REMARK    6  A    between atoms: C_19  and  C_23
REMARK    7  A    between atoms: C_29  and  C_31
REMARK                            x       y       z     vdW  Elec       q    Type
REMARK                         _______ _______ _______ _____ _____    ______ ____
ROOT
ATOM      1  I   UNL     1      -0.842 -30.819 -17.622  0.00  0.00    -0.039 I 
ATOM      2  C   UNL     1      -1.955 -30.479 -15.855  0.00  0.00    +0.071 A 
ATOM      3  C   UNL     1      -3.102 -30.346 -16.064  0.00  0.00    +0.132 A 
ATOM      4  N   UNL     1      -4.034 -30.131 -15.269  0.00  0.00    -0.222 NA
ATOM      5  C   UNL     1      -3.598 -30.039 -13.871  0.00  0.00    +0.221 A 
ATOM      6  N   UNL     1      -2.046 -30.225 -13.650  0.00  0.00    -0.198 NA
ATOM      7  N   UNL     1      -4.546 -29.797 -12.775  0.00  0.00    -0.283 N 
ATOM      8  H   UNL     1      -4.956 -28.824 -12.950  0.00  0.00    +0.155 HD
ATOM     24  C   UNL     1      -1.296 -30.458 -14.848  0.00  0.00    +0.137 A 
ATOM     25  N   UNL     1       0.139 -30.649 -14.779  0.00  0.00    -0.328 N 
ATOM     26  H   UNL     1       0.357 -31.603 -15.211  0.00  0.00    +0.147 HD
ENDROOT
BRANCH   7   9
ATOM      9  C   UNL     1      -4.160 -29.823 -11.376  0.00  0.00    +0.035 A 
ATOM     10  C   UNL     1      -3.160 -30.463 -10.933  0.00  0.00    +0.023 A 
ATOM     11  C   UNL     1      -2.674 -30.619  -9.855  0.00  0.00    +0.004 A 
ATOM     12  C   UNL     1      -3.060 -30.157  -8.740  0.00  0.00    +0.023 A 
ATOM     13  C   UNL     1      -4.311 -29.290  -8.823  0.00  0.00    +0.036 A 
ATOM     23  C   UNL     1      -4.914 -29.116 -10.318  0.00  0.00    +0.046 A 
BRANCH  13  14
ATOM     14  N   UNL     1      -4.912 -28.660  -7.654  0.00  0.00    -0.269 N 
ATOM     15  H   UNL     1      -5.753 -28.008  -7.770  0.00  0.00    +0.156 HD
ATOM     16  C   UNL     1      -4.410 -28.898  -6.431  0.00  0.00    +0.306 C 
ATOM     17  N   UNL     1      -3.618 -27.770  -5.920  0.00  0.00    -0.285 N 
ATOM     18  C   UNL     1      -2.896 -26.814  -6.746  0.00  0.00    +0.109 C 
ATOM     19  C   UNL     1      -2.598 -25.685  -5.863  0.00  0.00    +0.020 C 
ATOM     20  C   UNL     1      -2.348 -26.309  -4.559  0.00  0.00    +0.020 C 
ATOM     21  C   UNL     1      -3.399 -27.400  -4.494  0.00  0.00    +0.109 C 
ATOM     22  O   UNL     1      -4.392 -29.883  -5.519  0.00  0.00    -0.252 OA
ENDBRANCH  13  14
ENDBRANCH   7   9
BRANCH  25  27
ATOM     27  C   UNL     1       0.767 -30.615 -13.430  0.00  0.00    +0.104 C 
BRANCH  27  28
ATOM     28  C   UNL     1       1.062 -32.038 -12.930  0.00  0.00    +0.037 C 
BRANCH  28  29
ATOM     29  C   UNL     1       1.745 -32.831 -14.022  0.00  0.00    +0.106 C 
BRANCH  29  30
ATOM     30  N   UNL     1       3.018 -32.210 -14.326  0.00  0.00    -0.311 N 
ATOM     31  H   UNL     1       3.800 -32.210 -13.596  0.00  0.00    +0.149 HD
ATOM     32  C   UNL     1       3.217 -31.636 -15.520  0.00  0.00    +0.250 C 
ATOM     38  O   UNL     1       2.627 -31.523 -16.720  0.00  0.00    -0.270 OA
BRANCH  32  33
ATOM     33  C   UNL     1       4.509 -30.865 -15.488  0.00  0.00    +0.066 C 
ATOM     34  C   UNL     1       4.630 -29.815 -14.732  0.00  0.00    -0.006 C 
ATOM     35  C   UNL     1       6.017 -29.201 -14.860  0.00  0.00    +0.039 C 
ATOM     36  C   UNL     1       6.810 -30.104 -15.898  0.00  0.00    +0.079 C 
ATOM     37  S   UNL     1       5.698 -31.287 -16.325  0.00  0.00    -0.120 S 
ENDBRANCH  32  33
ENDBRANCH  29  30
ENDBRANCH  28  29
ENDBRANCH  27  28
ENDBRANCH  25  27
TORSDOF 7
