REMARK  Name = FOY
REMARK  3 active torsions:
REMARK  status: ('A' for Active; 'I' for Inactive)
REMARK    1  A    between atoms: N2_3  and  C8_4
REMARK    2  A    between atoms: C8_4  and  C9_5
REMARK    3  A    between atoms: C6_12  and  C5_15
REMARK                            x       y       z     vdW  Elec       q    Type
REMARK                         _______ _______ _______ _____ _____    ______ ____
ROOT
ATOM      1  O   UNL     1      -6.638  -7.092  -0.103  0.00  0.00    -0.267 OA
ATOM      2  C   UNL     1      -7.856  -6.586  -0.249  0.00  0.00    +0.261 C 
ATOM      3  N   UNL     1      -8.641  -6.511   0.901  0.00  0.00    -0.290 N 
ATOM     11  C   UNL     1      -9.854  -5.949   0.778  0.00  0.00    +0.079 C 
ATOM     12  C   UNL     1     -10.311  -5.476  -0.435  0.00  0.00    +0.021 C 
ATOM     20  C   UNL     1      -9.527  -5.546  -1.609  0.00  0.00    +0.006 C 
ATOM     21  C   UNL     1      -8.271  -6.116  -1.528  0.00  0.00    +0.061 C 
ENDROOT
BRANCH  12  13
ATOM     13  C   UNL     1     -11.663  -4.859  -0.482  0.00  0.00    +0.051 A 
ATOM     14  C   UNL     1     -12.824  -5.345   0.030  0.00  0.00    +0.154 A 
ATOM     15  C   UNL     1     -13.124  -6.617   0.755  0.00  0.00    +0.075 C 
ATOM     16  O   UNL     1     -13.835  -4.444  -0.223  0.00  0.00    -0.358 OA
ATOM     17  N   UNL     1     -13.304  -3.368  -0.874  0.00  0.00    -0.082 NA
ATOM     18  C   UNL     1     -12.002  -3.565  -1.063  0.00  0.00    +0.101 A 
ATOM     19  C   UNL     1     -11.079  -2.653  -1.762  0.00  0.00    +0.056 C 
ENDBRANCH  12  13
BRANCH   3   4
ATOM      4  C   UNL     1      -8.242  -7.032   2.233  0.00  0.00    +0.136 C 
BRANCH   4   5
ATOM      5  C   UNL     1      -7.894  -5.870   3.159  0.00  0.00    +0.001 A 
ATOM      6  C   UNL     1      -8.515  -5.746   4.394  0.00  0.00    -0.002 A 
ATOM      7  C   UNL     1      -8.198  -4.666   5.180  0.00  0.00    -0.000 A 
ATOM      8  C   UNL     1      -7.301  -3.681   4.782  0.00  0.00    -0.000 A 
ATOM      9  C   UNL     1      -6.724  -3.770   3.522  0.00  0.00    -0.000 A 
ATOM     10  C   UNL     1      -7.029  -4.869   2.736  0.00  0.00    -0.002 A 
ENDBRANCH   4   5
ENDBRANCH   3   4
TORSDOF 3
