REMARK  Name = 4Q1B
REMARK  13 active torsions:
REMARK  status: ('A' for Active; 'I' for Inactive)
REMARK    1  A    between atoms: C_1  and  S_2
REMARK    2  A    between atoms: S_2  and  N_5
REMARK    3  A    between atoms: N_5  and  C_6
REMARK    4  A    between atoms: C_6  and  C_7
REMARK    5  A    between atoms: C_7  and  O_8
REMARK    6  A    between atoms: O_8  and  C_9
REMARK    7  A    between atoms: C_18  and  C_19
REMARK    8  A    between atoms: C_19  and  C_20
REMARK    9  A    between atoms: C_20  and  C_21
REMARK   10  A    between atoms: C_22  and  C_23
REMARK   11  A    between atoms: C_23  and  S_24
REMARK   12  A    between atoms: S_24  and  C_25
REMARK   13  A    between atoms: C_31  and  N_32
REMARK                            x       y       z     vdW  Elec       q    Type
REMARK                         _______ _______ _______ _____ _____    ______ ____
ROOT
ATOM      8  C   UNL     1     -36.557  10.516  -2.337  0.00  0.00    +0.121 C 
ATOM      9  C   UNL     1     -37.581  10.969  -3.170  0.00  0.00    +0.042 C 
ATOM     10  C   UNL     1     -37.298  11.820  -4.227  0.00  0.00    -0.019 C 
ATOM     11  C   UNL     1     -35.983  12.221  -4.469  0.00  0.00    +0.065 C 
ATOM     12  C   UNL     1     -34.928  11.785  -3.656  0.00  0.00    -0.008 C 
ATOM     13  C   UNL     1     -33.668  12.220  -3.902  0.00  0.00    +0.101 C 
ATOM     14  S   UNL     1     -33.208  13.211  -5.140  0.00  0.00    -0.091 S 
ATOM     15  C   UNL     1     -31.687  13.280  -4.734  0.00  0.00    +0.082 C 
ATOM     16  C   UNL     1     -31.494  12.557  -3.647  0.00  0.00    +0.048 C 
ATOM     34  N   UNL     1     -32.587  11.965  -3.161  0.00  0.00    -0.247 NA
ATOM     35  C   UNL     1     -35.227  10.925  -2.580  0.00  0.00    +0.052 C 
ENDROOT
BRANCH   8   7
ATOM      7  O   UNL     1     -36.937   9.703  -1.297  0.00  0.00    -0.491 OA
BRANCH   7   6
ATOM      6  C   UNL     1     -36.001   9.008  -0.432  0.00  0.00    +0.246 C 
BRANCH   6   5
ATOM      5  C   UNL     1     -36.736   8.550   0.848  0.00  0.00    +0.146 C 
BRANCH   5   3
ATOM      3  N   UNL     1     -35.840   8.312   2.000  0.00  0.00    -0.192 NA
ATOM      4  H   UNL     1     -35.723   7.255   2.122  0.00  0.00    +0.148 HD
BRANCH   3   2
ATOM      1  C   UNL     1     -37.708  10.231   3.290  0.00  0.00    +0.214 C 
ATOM      2  S   UNL     1     -36.446   9.000   3.556  0.00  0.00    +0.027 S 
ATOM     36  O   UNL     1     -35.261   9.643   4.277  0.00  0.00    -0.159 OA
ATOM     37  O   UNL     1     -37.019   7.889   4.446  0.00  0.00    -0.159 OA
ENDBRANCH   3   2
ENDBRANCH   5   3
ENDBRANCH   6   5
ENDBRANCH   7   6
ENDBRANCH   8   7
BRANCH  16  17
ATOM     17  C   UNL     1     -30.121  12.382  -3.023  0.00  0.00    +0.129 C 
BRANCH  17  18
ATOM     18  S   UNL     1     -29.328  10.893  -3.772  0.00  0.00    -0.080 S 
BRANCH  18  19
ATOM     19  C   UNL     1     -27.617  11.358  -3.862  0.00  0.00    +0.192 A 
ATOM     20  N   UNL     1     -26.676  10.416  -4.021  0.00  0.00    -0.207 NA
ATOM     21  C   UNL     1     -25.363  10.724  -4.081  0.00  0.00    +0.122 A 
ATOM     22  C   UNL     1     -24.961  12.051  -3.982  0.00  0.00    +0.086 A 
ATOM     23  C   UNL     1     -25.968  12.997  -3.803  0.00  0.00    +0.122 A 
ATOM     27  N   UNL     1     -24.458   9.760  -4.246  0.00  0.00    -0.343 N 
ATOM     28  H   UNL     1     -23.418  10.005  -4.293  0.00  0.00    +0.144 HD
ATOM     29  H   UNL     1     -24.772   8.741  -4.331  0.00  0.00    +0.144 HD
ATOM     30  N   UNL     1     -27.257  12.630  -3.752  0.00  0.00    -0.207 NA
BRANCH  23  24
ATOM     24  N   UNL     1     -25.657  14.282  -3.695  0.00  0.00    -0.343 N 
ATOM     25  H   UNL     1     -24.633  14.590  -3.734  0.00  0.00    +0.144 HD
ATOM     26  H   UNL     1     -26.430  15.011  -3.569  0.00  0.00    +0.144 HD
ENDBRANCH  23  24
ENDBRANCH  18  19
ENDBRANCH  17  18
ENDBRANCH  16  17
BRANCH  15  31
ATOM     31  C   UNL     1     -30.614  14.047  -5.501  0.00  0.00    +0.025 C 
BRANCH  31  32
ATOM     32  C   UNL     1     -30.991  15.499  -5.527  0.00  0.00    -0.002 C 
ATOM     33  C   UNL     1     -29.958  16.239  -6.368  0.00  0.00    +0.004 C 
ENDBRANCH  31  32
ENDBRANCH  15  31
TORSDOF 11
