REMARK  Name = 4B6L
REMARK  8 active torsions:
REMARK  status: ('A' for Active; 'I' for Inactive)
REMARK    1  A    between atoms: N_1  and  C_2
REMARK    2  A    between atoms: C_5  and  C_7
REMARK    3  A    between atoms: C_9  and  O_10
REMARK    4  A    between atoms: O_10  and  C_11
REMARK    5  A    between atoms: C_12  and  N_15
REMARK    6  A    between atoms: C_27  and  C_28
REMARK    7  A    between atoms: C_28  and  C_29
REMARK    8  A    between atoms: N_30  and  C_31
REMARK                            x       y       z     vdW  Elec       q    Type
REMARK                         _______ _______ _______ _____ _____    ______ ____
ROOT
ATOM      8  N   UNL     1      54.924  -3.283 -10.051  0.00  0.00    -0.281 N 
ATOM      9  H   UNL     1      54.864  -2.610 -10.881  0.00  0.00    +0.155 HD
ATOM     10  C   UNL     1      53.834  -3.321  -9.208  0.00  0.00    +0.221 A 
ATOM     11  N   UNL     1      52.773  -2.621  -9.591  0.00  0.00    -0.221 NA
ATOM     12  C   UNL     1      51.686  -2.545  -8.805  0.00  0.00    +0.144 A 
ATOM     13  C   UNL     1      51.650  -3.257  -7.644  0.00  0.00    +0.107 A 
ATOM     14  N   UNL     1      50.545  -3.202  -6.770  0.00  0.00    -0.279 N 
ATOM     15  C   UNL     1      50.500  -4.001  -5.637  0.00  0.00    +0.159 A 
ATOM     16  C   UNL     1      51.561  -5.067  -5.339  0.00  0.00    +0.143 C 
ATOM     17  N   UNL     1      52.813  -4.774  -6.083  0.00  0.00    -0.300 N 
ATOM     25  N   UNL     1      49.415  -3.696  -5.020  0.00  0.00    -0.132 NA
ATOM     26  N   UNL     1      48.808  -2.741  -5.637  0.00  0.00    -0.138 NA
ATOM     27  C   UNL     1      49.472  -2.409  -6.711  0.00  0.00    +0.230 A 
ATOM     28  C   UNL     1      52.785  -4.062  -7.273  0.00  0.00    +0.151 A 
ATOM     29  N   UNL     1      53.857  -4.027  -8.075  0.00  0.00    -0.197 NA
ENDROOT
BRANCH   8   7
ATOM      4  C   UNL     1      58.514  -5.377  -9.845  0.00  0.00    +0.040 A 
ATOM      5  C   UNL     1      57.810  -5.134  -8.649  0.00  0.00    +0.015 A 
ATOM      6  C   UNL     1      56.617  -4.429  -8.696  0.00  0.00    +0.028 A 
ATOM      7  C   UNL     1      56.089  -4.024  -9.937  0.00  0.00    +0.076 A 
ATOM     30  C   UNL     1      56.822  -4.216 -11.111  0.00  0.00    +0.142 A 
ATOM     33  C   UNL     1      58.005  -4.904 -11.067  0.00  0.00    +0.060 A 
BRANCH   4   3
ATOM      1  N   UNL     1      60.080  -7.032  -8.950  0.00  0.00    -0.309 N 
ATOM      2  H   UNL     1      59.367  -7.260  -8.186  0.00  0.00    +0.149 HD
ATOM      3  C   UNL     1      59.819  -6.066  -9.849  0.00  0.00    +0.244 C 
ATOM     34  O   UNL     1      60.490  -6.015 -10.878  0.00  0.00    -0.270 OA
BRANCH   1  35
ATOM     35  C   UNL     1      61.352  -7.776  -9.020  0.00  0.00    +0.073 C 
ATOM     36  C   UNL     1      61.314  -9.298  -9.171  0.00  0.00    +0.024 C 
ATOM     37  C   UNL     1      61.702  -8.670  -7.830  0.00  0.00    +0.024 C 
ENDBRANCH   1  35
ENDBRANCH   4   3
BRANCH  30  31
ATOM     31  O   UNL     1      56.307  -3.770 -12.306  0.00  0.00    -0.493 OA
ATOM     32  C   UNL     1      57.054  -3.996 -13.508  0.00  0.00    +0.277 C 
ENDBRANCH  30  31
ENDBRANCH   8   7
BRANCH  17  18
ATOM     18  C   UNL     1      54.089  -5.467  -5.699  0.00  0.00    +0.076 C 
ATOM     19  C   UNL     1      54.305  -6.785  -6.475  0.00  0.00    +0.022 C 
ATOM     20  C   UNL     1      55.125  -7.700  -5.545  0.00  0.00    +0.002 C 
ATOM     21  C   UNL     1      55.243  -6.971  -4.174  0.00  0.00    +0.002 C 
ATOM     22  C   UNL     1      54.143  -5.880  -4.200  0.00  0.00    +0.022 C 
ENDBRANCH  17  18
BRANCH  16  23
ATOM     23  C   UNL     1      51.003  -6.472  -5.682  0.00  0.00    +0.027 C 
ATOM     24  C   UNL     1      50.642  -6.583  -7.187  0.00  0.00    +0.006 C 
ENDBRANCH  16  23
TORSDOF 6
