REMARK  Name = 5AA8
REMARK  5 active torsions:
REMARK  status: ('A' for Active; 'I' for Inactive)
REMARK    1  A    between atoms: C_1  and  C_7
REMARK    2  A    between atoms: C_15  and  N_27
REMARK    3  A    between atoms: C_18  and  C_19
REMARK    4  A    between atoms: C_20  and  N_25
REMARK    5  A    between atoms: C_21  and  N_26
REMARK                            x       y       z     vdW  Elec       q    Type
REMARK                         _______ _______ _______ _____ _____    ______ ____
ROOT
ATOM      3  C   UNL     1      27.923  48.612   7.375  0.00  0.00    +0.146 A 
ATOM      4  N   UNL     1      28.564  49.640   6.707  0.00  0.00    -0.256 N 
ATOM      5  N   UNL     1      29.895  49.557   6.715  0.00  0.00    -0.173 NA
ATOM      6  C   UNL     1      30.168  48.444   7.405  0.00  0.00    +0.089 A 
ATOM      7  C   UNL     1      31.638  48.098   7.579  0.00  0.00    +0.165 C 
ATOM      8  N   UNL     1      32.216  47.090   6.616  0.00  0.00    -0.295 N 
ATOM      9  C   UNL     1      31.884  47.256   5.189  0.00  0.00    +0.133 C 
ATOM     10  C   UNL     1      33.072  45.983   6.958  0.00  0.00    +0.247 C 
ATOM     11  O   UNL     1      33.532  45.176   6.141  0.00  0.00    -0.270 OA
ATOM     12  C   UNL     1      33.480  45.722   8.382  0.00  0.00    +0.044 A 
ATOM     13  C   UNL     1      33.009  44.568   9.139  0.00  0.00    +0.007 A 
ATOM     14  C   UNL     1      32.037  43.498   8.559  0.00  0.00    +0.202 C 
ATOM     15  O   UNL     1      30.801  43.348   9.352  0.00  0.00    -0.481 OA
ATOM     16  C   UNL     1      29.800  44.317   9.361  0.00  0.00    +0.161 A 
ATOM     17  C   UNL     1      28.657  44.085  10.167  0.00  0.00    +0.158 A 
ATOM     21  N   UNL     1      27.627  45.002  10.232  0.00  0.00    -0.236 NA
ATOM     22  C   UNL     1      27.713  46.174   9.502  0.00  0.00    +0.121 A 
ATOM     23  C   UNL     1      28.803  46.508   8.669  0.00  0.00    +0.008 A 
ATOM     24  C   UNL     1      29.822  45.536   8.634  0.00  0.00    +0.059 A 
ATOM     25  C   UNL     1      32.689  42.104   8.527  0.00  0.00    +0.057 C 
ATOM     26  C   UNL     1      33.478  44.440  10.497  0.00  0.00    +0.046 A 
ATOM     27  C   UNL     1      34.360  45.405  11.057  0.00  0.00    +0.124 A 
ATOM     28  F   UNL     1      34.772  45.263  12.320  0.00  0.00    -0.205 F 
ATOM     29  C   UNL     1      34.807  46.512  10.311  0.00  0.00    +0.039 A 
ATOM     30  C   UNL     1      34.374  46.675   8.977  0.00  0.00    +0.016 A 
ATOM     31  C   UNL     1      27.954  50.768   6.023  0.00  0.00    +0.174 C 
ATOM     32  C   UNL     1      28.948  47.771   7.867  0.00  0.00    +0.044 A 
ENDROOT
BRANCH  17  18
ATOM     18  N   UNL     1      28.553  42.902  10.929  0.00  0.00    -0.340 N 
ATOM     19  H   UNL     1      27.689  42.731  11.536  0.00  0.00    +0.144 HD
ATOM     20  H   UNL     1      29.339  42.176  10.900  0.00  0.00    +0.144 HD
ENDBRANCH  17  18
BRANCH   3   1
ATOM      1  C   UNL     1      26.495  48.522   7.484  0.00  0.00    +0.119 C 
ATOM      2  N   UNL     1      25.345  48.468   7.590  0.00  0.00    -0.189 NA
ENDBRANCH   3   1
TORSDOF 2
