REMARK  Name = 2ghg_ligand
REMARK  9 active torsions:
REMARK  status: ('A' for Active; 'I' for Inactive)
REMARK    1  A    between atoms: C1_1  and  C6_6
REMARK    2  A    between atoms: C6_6  and  C7_7
REMARK    3  A    between atoms: C15_15  and  C17_17
REMARK    4  A    between atoms: C21_21  and  O23_23
REMARK    5  A    between atoms: O23_23  and  C24_24
REMARK    6  A    between atoms: C24_24  and  C25_25
REMARK    7  A    between atoms: C25_25  and  C26_26
REMARK    8  A    between atoms: C25_25  and  N27_27
REMARK    9  A    between atoms: C26_26  and  C28_28
REMARK                            x       y       z     vdW  Elec       q    Type
REMARK                         _______ _______ _______ _____ _____    ______ ____
ROOT
ATOM      7  C   UNL     1      -7.801   7.405 -16.213  0.00  0.00    -0.011 A 
ATOM      8  C   UNL     1      -6.919   6.476 -15.610  0.00  0.00    +0.053 A 
ATOM      9  C   UNL     1      -7.373   5.489 -14.695  0.00  0.00    +0.117 A 
ATOM     28  C   UNL     1      -8.752   5.471 -14.403  0.00  0.00    +0.110 A 
ATOM     29  N   UNL     1      -9.621   6.353 -14.969  0.00  0.00    -0.309 NA
ATOM     30  C   UNL     1      -9.168   7.299 -15.850  0.00  0.00    +0.075 A 
ENDROOT
BRANCH   7   6
ATOM      3  C   UNL     1      -4.065   9.603 -19.212  0.00  0.00    +0.165 C 
ATOM      4  C   UNL     1      -5.376   9.389 -18.587  0.00  0.00    +0.007 A 
ATOM      5  C   UNL     1      -5.937   8.423 -17.644  0.00  0.00    -0.006 A 
ATOM      6  C   UNL     1      -7.281   8.448 -17.195  0.00  0.00    -0.034 A 
ATOM     31  C   UNL     1      -8.109   9.474 -17.695  0.00  0.00    -0.016 A 
ATOM     32  C   UNL     1      -7.627  10.436 -18.610  0.00  0.00    +0.007 A 
ATOM     33  C   UNL     1      -6.245  10.445 -19.099  0.00  0.00    +0.076 A 
ATOM     34  N   UNL     1      -5.497  11.236 -19.979  0.00  0.00    -0.233 N 
ATOM     35  H   UNL     1      -5.865  12.026 -20.470  0.00  0.00    +0.227 HD
ATOM     36  C   UNL     1      -4.237  10.815 -20.087  0.00  0.00    +0.215 C 
ATOM     37  O   UNL     1      -3.367  11.316 -20.784  0.00  0.00    -0.387 OA
BRANCH   3   2
ATOM      2  C   UNL     1      -2.871   8.733 -18.938  0.00  0.00    +0.124 C 
BRANCH   2   1
ATOM      1  C   UNL     1      -1.512   8.854 -19.498  0.00  0.00    +0.036 A 
ATOM     38  N   UNL     1      -0.973   9.968 -20.288  0.00  0.00    -0.293 N 
ATOM     39  H   UNL     1      -1.477  10.830 -20.542  0.00  0.00    +0.231 HD
ATOM     40  C   UNL     1       0.412   9.637 -20.652  0.00  0.00    +0.073 A 
ATOM     41  C   UNL     1       0.666   8.433 -20.119  0.00  0.00    -0.074 A 
ATOM     42  C   UNL     1      -0.524   7.951 -19.404  0.00  0.00    -0.071 A 
ENDBRANCH   2   1
ENDBRANCH   3   2
ENDBRANCH   7   6
BRANCH   9  10
ATOM     10  O   UNL     1      -6.551   4.537 -14.064  0.00  0.00    -0.305 OA
BRANCH  10  11
ATOM     11  C   UNL     1      -5.887   3.594 -14.907  0.00  0.00    +0.251 C 
BRANCH  11  12
ATOM     12  C   UNL     1      -6.683   2.286 -14.922  0.00  0.00    +0.098 C 
BRANCH  12  13
ATOM     13  N   UNL     1      -7.791   2.422 -15.870  0.00  0.00    +0.224 N 
ATOM     14  H   UNL     1      -7.424   2.562 -16.798  0.00  0.00    +0.200 HD
ATOM     15  H   UNL     1      -8.352   1.585 -15.853  0.00  0.00    +0.200 HD
ATOM     16  H   UNL     1      -8.360   3.213 -15.611  0.00  0.00    +0.200 HD
ENDBRANCH  12  13
BRANCH  12  17
ATOM     17  C   UNL     1      -5.789   1.086 -15.284  0.00  0.00    +0.090 C 
BRANCH  17  18
ATOM     18  C   UNL     1      -5.650   0.163 -14.085  0.00  0.00    -0.041 A 
ATOM     19  C   UNL     1      -4.426  -0.271 -13.446  0.00  0.00    -0.021 A 
ATOM     20  C   UNL     1      -3.070  -0.011 -13.679  0.00  0.00    -0.021 A 
ATOM     21  C   UNL     1      -2.075  -0.606 -12.851  0.00  0.00    -0.028 A 
ATOM     22  C   UNL     1      -2.466  -1.460 -11.780  0.00  0.00    -0.024 A 
ATOM     23  C   UNL     1      -3.846  -1.718 -11.545  0.00  0.00    +0.010 A 
ATOM     24  C   UNL     1      -4.817  -1.134 -12.359  0.00  0.00    +0.060 A 
ATOM     25  N   UNL     1      -6.203  -1.200 -12.376  0.00  0.00    -0.289 N 
ATOM     26  H   UNL     1      -6.773  -1.747 -11.715  0.00  0.00    +0.222 HD
ATOM     27  C   UNL     1      -6.701  -0.444 -13.383  0.00  0.00    +0.096 A 
ENDBRANCH  17  18
ENDBRANCH  12  17
ENDBRANCH  11  12
ENDBRANCH  10  11
ENDBRANCH   9  10
TORSDOF 9
