REMARK  Name = 6NSQ
REMARK  5 active torsions:
REMARK  status: ('A' for Active; 'I' for Inactive)
REMARK    1  A    between atoms: C13_2  and  N14_3
REMARK    2  A    between atoms: N14_3  and  C15_7
REMARK    3  A    between atoms: C02_9  and  N03_27
REMARK    4  A    between atoms: C05_10  and  C06_11
REMARK    5  A    between atoms: C07_12  and  C08_13
REMARK                            x       y       z     vdW  Elec       q    Type
REMARK                         _______ _______ _______ _____ _____    ______ ____
ROOT
ATOM      1  C   UNL     1      -4.260 -27.768   4.806  0.00  0.00    -0.130 A 
ATOM      2  C   UNL     1      -2.924 -27.950   4.986  0.00  0.00    +0.250 A 
ATOM      3  N   UNL     1      -2.386 -28.803   5.901  0.00  0.00    -0.760 NA
ATOM      4  C   UNL     1      -3.280 -29.470   6.664  0.00  0.00    +0.430 A 
ATOM      5  C   UNL     1      -4.695 -29.341   6.542  0.00  0.00    +0.000 A 
ATOM      6  C   UNL     1      -5.576 -30.090   7.380  0.00  0.00    -0.130 A 
ATOM      7  C   UNL     1      -6.921 -29.907   7.203  0.00  0.00    -0.130 A 
ATOM      8  C   UNL     1      -7.399 -28.992   6.209  0.00  0.00    +0.000 A 
ATOM      9  C   UNL     1      -8.849 -28.815   6.042  0.00  0.00    -0.150 C 
ATOM     10  C   UNL     1      -6.568 -28.256   5.384  0.00  0.00    +0.000 A 
ATOM     33  C   UNL     1      -5.190 -28.468   5.594  0.00  0.00    +0.000 A 
ENDROOT
BRANCH  10  11
ATOM     11  C   UNL     1      -6.946 -27.328   4.373  0.00  0.00    +0.000 C 
ATOM     12  C   UNL     1      -7.191 -26.527   3.505  0.00  0.00    +0.000 C 
BRANCH  12  13
ATOM     13  C   UNL     1      -7.454 -25.576   2.480  0.00  0.00    +0.050 A 
ATOM     14  N   UNL     1      -7.257 -25.919   1.165  0.00  0.00    -0.100 NA
ATOM     15  N   UNL     1      -7.578 -24.856   0.348  0.00  0.00    -0.250 N 
ATOM     16  C   UNL     1      -7.995 -23.776   1.134  0.00  0.00    +0.550 A 
ATOM     17  N   UNL     1      -8.402 -22.527   0.722  0.00  0.00    -0.730 NA
ATOM     18  C   UNL     1      -8.739 -21.718   1.744  0.00  0.00    +0.630 A 
ATOM     19  N   UNL     1      -8.718 -22.005   3.093  0.00  0.00    -0.760 NA
ATOM     20  C   UNL     1      -8.314 -23.241   3.473  0.00  0.00    +0.430 A 
ATOM     21  N   UNL     1      -8.289 -23.533   4.850  0.00  0.00    -0.550 NA
ATOM     24  C   UNL     1      -7.925 -24.206   2.508  0.00  0.00    +0.050 A 
BRANCH  15  22
ATOM     22  C   UNL     1      -7.454 -24.947  -1.155  0.00  0.00    -0.050 C 
ATOM     23  C   UNL     1      -6.095 -25.428  -1.685  0.00  0.00    -0.150 C 
ENDBRANCH  15  22
ENDBRANCH  12  13
ENDBRANCH  10  11
BRANCH   4  25
ATOM     25  N   UNL     1      -2.760 -30.356   7.623  0.00  0.00    -0.350 NA
BRANCH  25  26
ATOM     26  C   UNL     1      -1.657 -29.928   8.407  0.00  0.00    +0.050 A 
ATOM     27  C   UNL     1      -0.825 -30.901   8.955  0.00  0.00    -0.130 A 
ATOM     28  C   UNL     1       0.260 -30.500   9.726  0.00  0.00    -0.130 A 
ATOM     29  C   UNL     1       0.515 -29.156   9.946  0.00  0.00    +0.200 A 
ATOM     30 CL   UNL     1       1.856 -28.658  10.898  0.00  0.00    -0.200 Cl
ATOM     31  C   UNL     1      -0.291 -28.173   9.415  0.00  0.00    -0.130 A 
ATOM     32  C   UNL     1      -1.371 -28.566   8.655  0.00  0.00    -0.130 A 
ENDBRANCH  25  26
ENDBRANCH   4  25
TORSDOF 5
