REMARK  Name = EMW
REMARK  2 active torsions:
REMARK  status: ('A' for Active; 'I' for Inactive)
REMARK    1  A    between atoms: C3_2  and  O2_19
REMARK    2  A    between atoms: C6_5  and  N7_20
REMARK                            x       y       z     vdW  Elec       q    Type
REMARK                         _______ _______ _______ _____ _____    ______ ____
ROOT
ATOM      7  N   UNL     1     -41.808  -9.523   5.795  0.00  0.00    -0.163 NA
ATOM      8  C   UNL     1     -41.084 -10.700   5.868  0.00  0.00    +0.328 C 
ATOM      9  O   UNL     1     -41.555 -11.677   6.432  0.00  0.00    -0.250 OA
ATOM     10  N   UNL     1     -39.822 -10.841   5.323  0.00  0.00    -0.259 N 
ATOM     11  C   UNL     1     -38.994 -12.095   5.435  0.00  0.00    +0.117 C 
ATOM     12  C   UNL     1     -38.425 -12.529   4.081  0.00  0.00    +0.114 C 
ATOM     13  N   UNL     1     -37.845 -11.338   3.384  0.00  0.00    -0.291 N 
ATOM     14  C   UNL     1     -38.815 -10.244   3.171  0.00  0.00    +0.094 C 
ATOM     15  C   UNL     1     -40.059 -10.590   2.339  0.00  0.00    +0.023 C 
ATOM     16  C   UNL     1     -36.472 -11.218   3.073  0.00  0.00    +0.139 A 
ATOM     17  N   UNL     1     -35.649 -12.001   3.776  0.00  0.00    -0.196 NA
ATOM     18  C   UNL     1     -34.334 -12.036   3.642  0.00  0.00    +0.259 A 
ATOM     19  N   UNL     1     -33.631 -12.923   4.435  0.00  0.00    -0.086 NA
ATOM     20  N   UNL     1     -33.712 -11.247   2.777  0.00  0.00    -0.192 NA
ATOM     21  C   UNL     1     -34.421 -10.408   2.000  0.00  0.00    +0.167 A 
ATOM     22  N   UNL     1     -34.054  -9.515   1.047  0.00  0.00    -0.232 N 
ATOM     23  C   UNL     1     -32.695  -9.234   0.635  0.00  0.00    +0.155 C 
ATOM     24  N   UNL     1     -35.180  -8.877   0.552  0.00  0.00    -0.166 NA
ATOM     25  C   UNL     1     -36.225  -9.361   1.150  0.00  0.00    +0.126 A 
ATOM     26  C   UNL     1     -35.843 -10.346   2.106  0.00  0.00    +0.088 A 
ATOM     27  C   UNL     1     -39.139  -9.751   4.579  0.00  0.00    +0.115 C 
ENDROOT
BRANCH   7   6
ATOM      3  C   UNL     1     -45.644  -8.693   7.424  0.00  0.00    +0.139 A 
ATOM      4  C   UNL     1     -44.763  -9.531   8.091  0.00  0.00    +0.038 A 
ATOM      5  C   UNL     1     -43.511  -9.794   7.573  0.00  0.00    +0.019 A 
ATOM      6  C   UNL     1     -43.093  -9.248   6.337  0.00  0.00    +0.071 A 
ATOM     28  C   UNL     1     -43.992  -8.384   5.650  0.00  0.00    -0.003 A 
ATOM     29  C   UNL     1     -43.667  -7.721   4.319  0.00  0.00    +0.033 C 
ATOM     30  C   UNL     1     -45.255  -8.124   6.205  0.00  0.00    +0.034 A 
BRANCH   3   2
ATOM      1  C   UNL     1     -47.174  -7.143   8.405  0.00  0.00    +0.253 C 
ATOM      2  O   UNL     1     -46.866  -8.471   7.985  0.00  0.00    -0.471 OA
ENDBRANCH   3   2
ENDBRANCH   7   6
TORSDOF 2
