REMARK  Name = 6GJD
REMARK  14 active torsions:
REMARK  status: ('A' for Active; 'I' for Inactive)
REMARK    1  A    between atoms: C02_9  and  C03_10
REMARK    2  A    between atoms: C03_10  and  N04_11
REMARK    3  A    between atoms: C07_14  and  C09_16
REMARK    4  A    between atoms: N0B_18  and  C0C_19
REMARK    5  A    between atoms: C0I_25  and  C0J_26
REMARK    6  A    between atoms: C0N_30  and  C0P_32
REMARK    7  A    between atoms: N0R_34  and  C0S_35
REMARK    8  A    between atoms: C0S_35  and  C0T_36
REMARK    9  A    between atoms: C0T_36  and  C0U_37
REMARK   10  A    between atoms: C0U_37  and  N0V_38
REMARK   11  A    between atoms: C0W_39  and  O0Y_41
REMARK   12  A    between atoms: O0Y_41  and  C0Z_42
REMARK   13  A    between atoms: N1C_48  and  C1F_51
REMARK   14  A    between atoms: C1I_54  and  C1L_57
REMARK                            x       y       z     vdW  Elec       q    Type
REMARK                         _______ _______ _______ _____ _____    ______ ____
ROOT
ATOM     18  C   UNL     1      11.741   7.160  43.131  0.00  0.00    +0.100 A 
ATOM     19  C   UNL     1      10.531   6.838  43.767  0.00  0.00    +0.000 A 
ATOM     20  C   UNL     1       9.238   7.377  43.784  0.00  0.00    -0.130 A 
ATOM     21  C   UNL     1       8.234   6.768  44.527  0.00  0.00    +0.050 A 
ATOM     22  C   UNL     1       8.521   5.655  45.311  0.00  0.00    -0.130 A 
ATOM     23  C   UNL     1       9.782   5.097  45.275  0.00  0.00    -0.130 A 
ATOM     53  C   UNL     1      10.773   5.712  44.515  0.00  0.00    +0.200 A 
ATOM     54  N   UNL     1      12.085   5.400  44.338  0.00  0.00    -0.500 NA
ATOM     55  N   UNL     1      12.677   6.273  43.497  0.00  0.00    -0.100 NA
ENDROOT
BRANCH  18  15
ATOM     13  C   UNL     1      13.577   9.871  41.285  0.00  0.00    +0.380 A 
ATOM     14  C   UNL     1      13.334   8.829  42.164  0.00  0.00    -0.130 A 
ATOM     15  C   UNL     1      12.061   8.268  42.215  0.00  0.00    +0.000 A 
ATOM     16  C   UNL     1      11.099   8.792  41.355  0.00  0.00    -0.130 A 
ATOM     17  C   UNL     1      11.418   9.837  40.516  0.00  0.00    +0.250 A 
ATOM     56  N   UNL     1      12.640  10.386  40.473  0.00  0.00    -0.760 NA
BRANCH  13  11
ATOM     10  N   UNL     1      15.976   9.809  41.643  0.00  0.00    -0.400 NA
ATOM     11  C   UNL     1      14.926  10.536  41.241  0.00  0.00    +0.600 C 
ATOM     12  O   UNL     1      15.017  11.700  40.847  0.00  0.00    -0.550 OA
BRANCH  10   9
ATOM      9  C   UNL     1      17.337  10.330  41.623  0.00  0.00    +0.000 C 
BRANCH   9   8
ATOM      8  C   UNL     1      18.356   9.308  42.100  0.00  0.00    -0.100 C 
BRANCH   8   7
ATOM      7  C   UNL     1      19.798   9.812  42.042  0.00  0.00    +0.000 C 
BRANCH   7   6
ATOM      4  C   UNL     1      21.076   9.695  44.177  0.00  0.00    +0.750 C 
ATOM      5  O   UNL     1      21.025   9.895  45.385  0.00  0.00    -0.550 OA
ATOM      6  N   UNL     1      20.231  10.343  43.326  0.00  0.00    -0.400 NA
BRANCH   4   3
ATOM      3  O   UNL     1      21.978   8.806  43.603  0.00  0.00    -0.650 OA
BRANCH   3   2
ATOM      1  C   UNL     1      22.034   6.713  44.807  0.00  0.00    -0.100 C 
ATOM      2  C   UNL     1      21.618   7.412  43.505  0.00  0.00    +0.450 C 
ATOM     57  C   UNL     1      22.215   6.853  42.204  0.00  0.00    -0.100 C 
ATOM     58  C   UNL     1      21.892   5.390  41.888  0.00  0.00    -0.100 C 
ATOM     59  C   UNL     1      22.562   4.370  42.760  0.00  0.00    -0.100 C 
ATOM     60  C   UNL     1      23.734   4.493  43.356  0.00  0.00    -0.100 C 
ATOM     61  C   UNL     1      23.957   4.961  44.762  0.00  0.00    -0.100 C 
ATOM     62  C   UNL     1      23.523   6.407  45.000  0.00  0.00    -0.100 C 
ENDBRANCH   3   2
ENDBRANCH   4   3
ENDBRANCH   7   6
ENDBRANCH   8   7
ENDBRANCH   9   8
ENDBRANCH  10   9
ENDBRANCH  13  11
ENDBRANCH  18  15
BRANCH  21  24
ATOM     24  N   UNL     1       6.946   7.341  44.526  0.00  0.00    -0.350 NA
ATOM     25  C   UNL     1       5.795   6.795  44.950  0.00  0.00    +0.600 C 
ATOM     26  O   UNL     1       5.697   5.669  45.415  0.00  0.00    -0.550 OA
BRANCH  25  27
ATOM     27  C   UNL     1       4.574   7.696  44.818  0.00  0.00    -0.050 C 
ATOM     28  C   UNL     1       3.263   6.973  45.100  0.00  0.00    +0.100 C 
ATOM     29  N   UNL     1       3.039   7.221  46.529  0.00  0.00    -0.600 NA
ATOM     30  C   UNL     1       3.355   8.639  46.686  0.00  0.00    +0.100 C 
ATOM     52  C   UNL     1       4.612   8.840  45.838  0.00  0.00    -0.100 C 
BRANCH  29  31
ATOM     31  C   UNL     1       1.694   6.840  46.950  0.00  0.00    +0.100 C 
BRANCH  31  32
ATOM     32  C   UNL     1       1.514   6.806  48.454  0.00  0.00    +0.550 C 
ATOM     33  N   UNL     1       0.270   6.618  48.947  0.00  0.00    -0.400 N 
ATOM     34  C   UNL     1      -0.968   6.788  48.186  0.00  0.00    +0.100 C 
ATOM     35  C   UNL     1      -1.504   8.199  48.381  0.00  0.00    +0.100 C 
ATOM     36  N   UNL     1      -1.678   8.520  49.815  0.00  0.00    -0.400 N 
ATOM     49  C   UNL     1      -0.503   8.163  50.638  0.00  0.00    +0.100 C 
ATOM     50  C   UNL     1      -0.022   6.755  50.367  0.00  0.00    +0.100 C 
ATOM     51  O   UNL     1       2.497   6.954  49.175  0.00  0.00    -0.550 OA
BRANCH  36  37
ATOM     37  C   UNL     1      -2.052   9.899  50.107  0.00  0.00    +0.000 A 
ATOM     38  C   UNL     1      -1.882  10.409  51.402  0.00  0.00    -0.130 A 
ATOM     39  C   UNL     1      -2.203  11.715  51.698  0.00  0.00    -0.130 A 
ATOM     40  C   UNL     1      -2.736  12.560  50.727  0.00  0.00    +0.000 A 
ATOM     47  C   UNL     1      -2.898  12.064  49.431  0.00  0.00    -0.130 A 
ATOM     48  C   UNL     1      -2.557  10.752  49.120  0.00  0.00    -0.130 A 
BRANCH  40  41
ATOM     41  C   UNL     1      -3.040  13.974  51.061  0.00  0.00    +0.200 A 
ATOM     42  N   UNL     1      -2.457  14.475  52.164  0.00  0.00    -0.480 NA
ATOM     43  C   UNL     1      -2.710  15.759  52.448  0.00  0.00    +0.250 A 
ATOM     44  C   UNL     1      -3.517  16.522  51.642  0.00  0.00    -0.130 A 
ATOM     45  C   UNL     1      -4.062  15.937  50.525  0.00  0.00    +0.250 A 
ATOM     46  N   UNL     1      -3.830  14.652  50.217  0.00  0.00    -0.480 NA
ENDBRANCH  40  41
ENDBRANCH  36  37
ENDBRANCH  31  32
ENDBRANCH  29  31
ENDBRANCH  25  27
ENDBRANCH  21  24
TORSDOF 14
