REMARK  Name = 25V
REMARK  2 active torsions:
REMARK  status: ('A' for Active; 'I' for Inactive)
REMARK    1  A    between atoms: N_4  and  C2_5
REMARK    2  A    between atoms: C4_9  and  C5_11
REMARK                            x       y       z     vdW  Elec       q    Type
REMARK                         _______ _______ _______ _____ _____    ______ ____
ROOT
ATOM      8  C   UNL     1      29.823  15.976  -0.046  0.00  0.00    +0.069 C 
ATOM      9  C   UNL     1      30.212  17.029   0.839  0.00  0.00    -0.002 C 
ATOM     10  C   UNL     1      31.510  17.573   0.778  0.00  0.00    +0.064 C 
ATOM     11  C   UNL     1      31.972  18.644   1.735  0.00  0.00    +0.052 C 
ATOM     12  N   UNL     1      32.426  17.116  -0.137  0.00  0.00    -0.190 N 
ATOM     13  O   UNL     1      33.657  17.683  -0.222  0.00  0.00    -0.080 OA
ATOM     14  C   UNL     1      32.085  15.993  -1.079  0.00  0.00    +0.086 A 
ATOM     15  C   UNL     1      33.082  15.466  -2.031  0.00  0.00    +0.019 A 
ATOM     16  C   UNL     1      32.778  14.430  -2.866  0.00  0.00    +0.002 A 
ATOM     17  C   UNL     1      31.470  13.828  -2.808  0.00  0.00    -0.000 A 
ATOM     18  C   UNL     1      30.519  14.311  -1.930  0.00  0.00    -0.002 A 
ATOM     19  C   UNL     1      30.794  15.415  -1.042  0.00  0.00    +0.004 A 
ENDROOT
BRANCH   8   7
ATOM      5  C   UNL     1      26.700  14.610   1.540  0.00  0.00    +0.073 A 
ATOM      6  C   UNL     1      28.022  15.095   1.371  0.00  0.00    +0.013 A 
ATOM      7  C   UNL     1      28.458  15.499   0.093  0.00  0.00    -0.013 A 
ATOM     20  C   UNL     1      27.625  15.447  -1.023  0.00  0.00    -0.004 A 
ATOM     21  C   UNL     1      26.347  14.980  -0.857  0.00  0.00    +0.001 A 
ATOM     22  C   UNL     1      25.846  14.566   0.413  0.00  0.00    +0.017 A 
BRANCH   5   4
ATOM      1  O   UNL     1      28.171  13.129   3.743  0.00  0.00    -0.273 OA
ATOM      2  C   UNL     1      26.966  13.350   3.815  0.00  0.00    +0.246 C 
ATOM      3  C   UNL     1      26.175  12.901   4.985  0.00  0.00    +0.097 C 
ATOM      4  N   UNL     1      26.210  14.082   2.795  0.00  0.00    -0.179 NA
ENDBRANCH   5   4
ENDBRANCH   8   7
TORSDOF 2
