REMARK  Name = 2yit_ligand
REMARK  12 active torsions:
REMARK  status: ('A' for Active; 'I' for Inactive)
REMARK    1  A    between atoms: CAL_5  and  OBB_6
REMARK    2  A    between atoms: OBB_6  and  CAO_7
REMARK    3  A    between atoms: CAM_11  and  CAP_12
REMARK    4  A    between atoms: NAB_14  and  CAQ_15
REMARK    5  A    between atoms: CAT_20  and  CAW_21
REMARK    6  A    between atoms: CAW_21  and  CAX_22
REMARK    7  A    between atoms: CAX_22  and  CAZ_23
REMARK    8  A    between atoms: CAZ_23  and  CBA_24
REMARK    9  A    between atoms: NAC_25  and  NAD_26
REMARK   10  A    between atoms: NAD_26  and  CAY_27
REMARK   11  A    between atoms: CAY_27  and  NAF_28
REMARK   12  A    between atoms: CAY_27  and  NAE_29
REMARK                            x       y       z     vdW  Elec       q    Type
REMARK                         _______ _______ _______ _____ _____    ______ ____
ROOT
ATOM      7  C   UNL     1      47.538 -13.947 -10.713  0.00  0.00    +0.141 A 
ATOM      8  C   UNL     1      48.524 -12.978 -10.829  0.00  0.00    +0.088 A 
ATOM      9  C   UNL     1      48.613 -12.203 -12.000  0.00  0.00    +0.064 A 
ATOM     10  C   UNL     1      47.716 -12.396 -13.069  0.00  0.00    +0.053 A 
ATOM     25  C   UNL     1      46.743 -13.393 -12.947  0.00  0.00    +0.064 A 
ATOM     26  C   UNL     1      46.659 -14.135 -11.781  0.00  0.00    +0.088 A 
ENDROOT
BRANCH   7   5
ATOM      4  C   UNL     1      48.011 -14.688  -8.471  0.00  0.00    +0.292 C 
ATOM      5  N   UNL     1      47.386 -14.772  -9.662  0.00  0.00    -0.186 N 
ATOM      6  H   UNL     1      46.728 -15.543  -9.779  0.00  0.00    +0.277 HD
ATOM     27  O   UNL     1      48.849 -13.834  -8.203  0.00  0.00    -0.350 OA
BRANCH   4   3
ATOM      1  N   UNL     1      46.985 -16.906  -7.715  0.00  0.00    -0.270 N 
ATOM      2  H   UNL     1      46.487 -17.101  -8.584  0.00  0.00    +0.224 HD
ATOM      3  C   UNL     1      47.733 -15.831  -7.465  0.00  0.00    +0.146 A 
ATOM     28  C   UNL     1      48.245 -15.922  -6.227  0.00  0.00    -0.002 A 
ATOM     29  C   UNL     1      47.809 -17.064  -5.673  0.00  0.00    -0.027 A 
ATOM     30  C   UNL     1      48.001 -17.690  -4.415  0.00  0.00    +0.000 A 
ATOM     31  C   UNL     1      47.384 -18.932  -4.156  0.00  0.00    +0.075 A 
ATOM     34  C   UNL     1      46.596 -19.517  -5.139  0.00  0.00    +0.008 A 
ATOM     35  C   UNL     1      46.408 -18.901  -6.373  0.00  0.00    +0.008 A 
ATOM     36  C   UNL     1      47.002 -17.679  -6.634  0.00  0.00    +0.059 A 
BRANCH  31  32
ATOM     32  O   UNL     1      47.512 -19.642  -2.981  0.00  0.00    -0.329 OA
ATOM     33  C   UNL     1      48.112 -18.977  -1.838  0.00  0.00    +0.229 C 
ENDBRANCH  31  32
ENDBRANCH   4   3
ENDBRANCH   7   5
BRANCH  10  11
ATOM     11  C   UNL     1      47.795 -11.606 -14.231  0.00  0.00    +0.132 C 
ATOM     12  N   UNL     1      47.348 -12.112 -15.394  0.00  0.00    -0.111 NA
BRANCH  12  13
ATOM     13  N   UNL     1      47.372 -11.501 -16.490  0.00  0.00    -0.195 N 
ATOM     14  H   UNL     1      47.715 -10.541 -16.529  0.00  0.00    +0.246 HD
BRANCH  13  15
ATOM     15  C   UNL     1      46.945 -12.109 -17.619  0.00  0.00    +0.165 C 
BRANCH  15  16
ATOM     16  N   UNL     1      46.513 -13.338 -17.586  0.00  0.00    -0.352 NA
ATOM     17  H   UNL     1      46.193 -13.789 -18.443  0.00  0.00    +0.166 HD
ATOM     18  H   UNL     1      46.495 -13.849 -16.703  0.00  0.00    +0.166 HD
ENDBRANCH  15  16
BRANCH  15  19
ATOM     19  N   UNL     1      46.964 -11.530 -18.811  0.00  0.00    -0.352 NA
ATOM     20  H   UNL     1      46.629 -12.037 -19.630  0.00  0.00    +0.166 HD
ATOM     21  H   UNL     1      47.314 -10.577 -18.910  0.00  0.00    +0.166 HD
ENDBRANCH  15  19
ENDBRANCH  13  15
ENDBRANCH  12  13
BRANCH  11  22
ATOM     22  C   UNL     1      48.353 -10.187 -14.214  0.00  0.00    +0.124 C 
BRANCH  22  23
ATOM     23  C   UNL     1      49.671 -10.090 -15.007  0.00  0.00    +0.019 C 
ATOM     24  C   UNL     1      50.201  -8.641 -14.986  0.00  0.00    +0.007 C 
ENDBRANCH  22  23
ENDBRANCH  11  22
ENDBRANCH  10  11
TORSDOF 10
