REMARK  Name = 4ZJJ
REMARK  7 active torsions:
REMARK  status: ('A' for Active; 'I' for Inactive)
REMARK    1  A    between atoms: C_1  and  N_18
REMARK    2  A    between atoms: C_1  and  C_19
REMARK    3  A    between atoms: C_7  and  C_8
REMARK    4  A    between atoms: C_7  and  C_9
REMARK    5  A    between atoms: C_7  and  C_10
REMARK    6  A    between atoms: C_7  and  N_32
REMARK    7  A    between atoms: N_27  and  C_28
REMARK                            x       y       z     vdW  Elec       q    Type
REMARK                         _______ _______ _______ _____ _____    ______ ____
ROOT
ATOM      3  N   UNL     1      12.387  46.277  46.062  0.00  0.00    -0.296 N 
ATOM      4  C   UNL     1      12.029  47.393  45.242  0.00  0.00    +0.049 A 
ATOM      5  C   UNL     1      11.972  48.676  45.794  0.00  0.00    +0.026 A 
ATOM      6  C   UNL     1      11.470  49.746  45.065  0.00  0.00    +0.022 A 
ATOM      7  C   UNL     1      11.048  49.537  43.769  0.00  0.00    +0.042 A 
ATOM      8 CL   UNL     1      10.385  50.869  42.856  0.00  0.00    -0.084 Cl
ATOM      9  C   UNL     1      11.113  48.291  43.182  0.00  0.00    +0.037 A 
ATOM     10  C   UNL     1      11.607  47.204  43.907  0.00  0.00    +0.088 A 
ATOM     11  C   UNL     1      11.612  45.851  43.295  0.00  0.00    +0.321 C 
ATOM     12  N   UNL     1      12.071  45.804  42.011  0.00  0.00    -0.229 N 
ATOM     13  H   UNL     1      12.422  46.726  41.597  0.00  0.00    +0.292 HD
ATOM     27  N   UNL     1      11.213  44.728  43.886  0.00  0.00    -0.040 NA
ATOM     28  C   UNL     1      10.718  44.680  45.203  0.00  0.00    +0.200 A 
ATOM     29  C   UNL     1       9.581  43.894  45.418  0.00  0.00    +0.095 A 
ATOM     30  C   UNL     1       9.130  43.734  46.704  0.00  0.00    +0.128 A 
ATOM     31  C   UNL     1       9.738  44.307  47.794  0.00  0.00    +0.040 A 
ATOM     32  C   UNL     1      10.848  45.104  47.584  0.00  0.00    +0.030 A 
ATOM     33  F   UNL     1       8.038  42.941  46.909  0.00  0.00    -0.205 F 
ATOM     34  C   UNL     1      11.340  45.320  46.294  0.00  0.00    +0.086 A 
ENDROOT
BRANCH  12  14
ATOM     14  C   UNL     1      12.137  44.631  41.137  0.00  0.00    +0.184 C 
ATOM     15  C   UNL     1      12.590  44.957  39.751  0.00  0.00    +0.067 C 
ATOM     16  C   UNL     1      14.105  44.773  39.749  0.00  0.00    +0.113 C 
ATOM     17  N   UNL     1      14.360  43.927  40.925  0.00  0.00    -0.282 N 
ATOM     18  C   UNL     1      15.601  43.564  41.355  0.00  0.00    +0.303 C 
ATOM     19  N   UNL     1      16.715  43.943  40.551  0.00  0.00    -0.294 N 
ATOM     20  H   UNL     1      16.488  44.479  39.653  0.00  0.00    +0.151 HD
ATOM     25  O   UNL     1      15.763  42.937  42.397  0.00  0.00    -0.253 OA
ATOM     26  C   UNL     1      13.124  43.560  41.605  0.00  0.00    +0.156 C 
BRANCH  19  21
ATOM     21  C   UNL     1      18.149  43.683  40.810  0.00  0.00    +0.028 C 
ATOM     22  C   UNL     1      18.394  42.186  40.803  0.00  0.00    +0.031 C 
ATOM     23  C   UNL     1      18.978  44.330  39.712  0.00  0.00    +0.031 C 
ATOM     24  C   UNL     1      18.537  44.262  42.163  0.00  0.00    +0.031 C 
ENDBRANCH  19  21
ENDBRANCH  12  14
BRANCH   3   1
ATOM      1  C   UNL     1      13.403  46.481  47.104  0.00  0.00    +0.108 C 
ATOM      2  C   UNL     1      14.333  45.300  47.282  0.00  0.00    +0.025 C 
ENDBRANCH   3   1
TORSDOF 3
