REMARK  Name = 3gfe_ligand
REMARK  6 active torsions:
REMARK  status: ('A' for Active; 'I' for Inactive)
REMARK    1  A    between atoms: N1_1  and  C2_17
REMARK    2  A    between atoms: C5_4  and  C1_18
REMARK    3  A    between atoms: C24_15  and  C23_20
REMARK    4  A    between atoms: C19_21  and  N5_22
REMARK    5  A    between atoms: N4_25  and  C18_26
REMARK    6  A    between atoms: N2_29  and  C11_30
REMARK                            x       y       z     vdW  Elec       q    Type
REMARK                         _______ _______ _______ _____ _____    ______ ____
ROOT
ATOM     10  N   UNL     1       3.814  32.898  30.304  0.00  0.00    -0.341 NA
ATOM     11  C   UNL     1       2.596  32.702  30.822  0.00  0.00    +0.027 C 
ATOM     12  C   UNL     1       2.243  31.492  31.433  0.00  0.00    +0.248 C 
ATOM     13  C   UNL     1       0.963  31.318  31.965  0.00  0.00    +0.236 C 
ATOM     14  N   UNL     1       0.018  32.364  31.892  0.00  0.00    -0.173 N 
ATOM     15  C   UNL     1       0.385  33.587  31.275  0.00  0.00    +0.241 A 
ATOM     16  N   UNL     1      -0.224  34.755  31.049  0.00  0.00    -0.127 N 
ATOM     25  N   UNL     1       0.513  35.545  30.448  0.00  0.00    -0.216 NA
ATOM     26  C   UNL     1       1.703  34.974  30.245  0.00  0.00    +0.069 A 
ATOM     27  C   UNL     1      -1.337  32.142  32.470  0.00  0.00    +0.230 C 
ATOM     28  O   UNL     1       0.659  30.250  32.497  0.00  0.00    -0.377 OA
ATOM     29  C   UNL     1       1.663  33.742  30.753  0.00  0.00    +0.066 A 
ENDROOT
BRANCH  16  17
ATOM     17  C   UNL     1      -1.496  35.011  31.360  0.00  0.00    +0.143 A 
ATOM     18  C   UNL     1      -1.886  35.653  32.540  0.00  0.00    +0.026 A 
ATOM     19  C   UNL     1      -3.247  35.867  32.775  0.00  0.00    +0.018 A 
ATOM     20  C   UNL     1      -4.202  35.445  31.844  0.00  0.00    +0.123 A 
ATOM     21  F   UNL     1      -5.519  35.640  32.053  0.00  0.00    -0.191 F 
ATOM     22  C   UNL     1      -3.810  34.805  30.676  0.00  0.00    +0.058 A 
ATOM     23  C   UNL     1      -2.461  34.592  30.438  0.00  0.00    +0.165 A 
ATOM     24  F   UNL     1      -2.093  33.966  29.301  0.00  0.00    -0.187 F 
ENDBRANCH  16  17
BRANCH  10   9
ATOM      5  C   UNL     1       5.657  30.053  28.969  0.00  0.00    +0.035 A 
ATOM      6  C   UNL     1       6.711  29.979  29.888  0.00  0.00    +0.002 A 
ATOM      7  C   UNL     1       6.784  30.886  30.950  0.00  0.00    -0.007 A 
ATOM      8  C   UNL     1       5.801  31.870  31.101  0.00  0.00    -0.036 A 
ATOM      9  C   UNL     1       4.751  31.951  30.182  0.00  0.00    +0.002 A 
ATOM     30  C   UNL     1       5.891  32.860  32.268  0.00  0.00    +0.086 C 
ATOM     31  C   UNL     1       4.688  31.044  29.120  0.00  0.00    +0.014 A 
BRANCH   5   3
ATOM      1  N   UNL     1       6.492  28.126  27.722  0.00  0.00    -0.284 N 
ATOM      2  H   UNL     1       7.183  28.099  28.445  0.00  0.00    +0.185 HD
ATOM      3  C   UNL     1       5.555  29.075  27.775  0.00  0.00    +0.199 C 
ATOM      4  O   UNL     1       4.663  29.207  26.934  0.00  0.00    -0.388 OA
BRANCH   1  32
ATOM     32  C   UNL     1       6.559  27.117  26.652  0.00  0.00    +0.097 C 
ATOM     33  C   UNL     1       7.951  26.882  26.060  0.00  0.00    +0.030 C 
ATOM     34  C   UNL     1       6.906  27.662  25.264  0.00  0.00    +0.030 C 
ENDBRANCH   1  32
ENDBRANCH   5   3
ENDBRANCH  10   9
TORSDOF 4
