REMARK  Name = 4DCH
REMARK  6 active torsions:
REMARK  status: ('A' for Active; 'I' for Inactive)
REMARK    1  A    between atoms: C_1  and  C_10
REMARK    2  A    between atoms: C_4  and  S_22
REMARK    3  A    between atoms: C_8  and  C_10
REMARK    4  A    between atoms: C_10  and  C_11
REMARK    5  A    between atoms: C_11  and  C_12
REMARK    6  A    between atoms: S_22  and  C_23
REMARK                            x       y       z     vdW  Elec       q    Type
REMARK                         _______ _______ _______ _____ _____    ______ ____
ROOT
ATOM      2  C   UNL     1       5.782  -8.809  -2.757  0.00  0.00    +0.105 C 
ENDROOT
BRANCH   2   9
ATOM      9  C   UNL     1       5.892 -10.231  -2.281  0.00  0.00    +0.226 C 
ATOM     10  O   UNL     1       4.903 -10.835  -1.842  0.00  0.00    -0.275 OA
ATOM     11  N   UNL     1       7.140 -10.762  -2.368  0.00  0.00    -0.264 N 
ATOM     12  H   UNL     1       7.917 -10.185  -2.825  0.00  0.00    +0.157 HD
ATOM     13  C   UNL     1       7.436 -12.007  -1.892  0.00  0.00    +0.164 A 
ATOM     14  N   UNL     1       8.635 -12.625  -2.005  0.00  0.00    -0.233 NA
ATOM     15  C   UNL     1       8.686 -13.818  -1.330  0.00  0.00    +0.120 A 
ATOM     16  C   UNL     1       7.507 -14.174  -0.654  0.00  0.00    +0.068 A 
ATOM     17  S   UNL     1       6.344 -12.909  -0.937  0.00  0.00    -0.060 S 
ENDBRANCH   2   9
BRANCH   2   1
ATOM      1  C   UNL     1       4.428  -8.359  -3.252  0.00  0.00    -0.035 A 
ATOM     18  C   UNL     1       3.308  -8.444  -2.431  0.00  0.00    +0.006 A 
ATOM     19  C   UNL     1       2.066  -8.007  -2.895  0.00  0.00    +0.027 A 
ATOM     20  C   UNL     1       1.946  -7.478  -4.177  0.00  0.00    +0.088 A 
ATOM     25  C   UNL     1       3.071  -7.372  -4.986  0.00  0.00    +0.027 A 
ATOM     26  C   UNL     1       4.306  -7.823  -4.530  0.00  0.00    +0.006 A 
BRANCH  20  21
ATOM     21  S   UNL     1       0.473  -6.982  -4.752  0.00  0.00    -0.006 S 
ATOM     22  O   UNL     1      -0.446  -6.664  -3.708  0.00  0.00    -0.170 OA
ATOM     23  O   UNL     1      -0.098  -8.112  -5.464  0.00  0.00    -0.170 OA
ATOM     24  C   UNL     1       0.676  -5.691  -5.746  0.00  0.00    +0.200 C 
ENDBRANCH  20  21
ENDBRANCH   2   1
BRANCH   2   3
ATOM      3  C   UNL     1       6.318  -7.922  -1.599  0.00  0.00    +0.021 C 
BRANCH   3   4
ATOM      4  C   UNL     1       6.492  -6.435  -1.901  0.00  0.00    -0.010 C 
ATOM      5  C   UNL     1       7.534  -6.188  -2.993  0.00  0.00    +0.003 C 
ATOM      6  C   UNL     1       8.819  -5.812  -2.254  0.00  0.00    +0.000 C 
ATOM      7  C   UNL     1       8.356  -5.129  -0.987  0.00  0.00    +0.000 C 
ATOM      8  C   UNL     1       6.965  -5.690  -0.637  0.00  0.00    +0.003 C 
ENDBRANCH   3   4
ENDBRANCH   2   3
TORSDOF 5
