REMARK  Name = 4hvi_ligand
REMARK  5 active torsions:
REMARK  status: ('A' for Active; 'I' for Inactive)
REMARK    1  A    between atoms: C8_8  and  C20_20
REMARK    2  A    between atoms: C15_15  and  C16_16
REMARK    3  A    between atoms: N17_17  and  C19_19
REMARK    4  A    between atoms: C19_19  and  C23_23
REMARK    5  A    between atoms: C19_19  and  C24_24
REMARK                            x       y       z     vdW  Elec       q    Type
REMARK                         _______ _______ _______ _____ _____    ______ ____
ROOT
ATOM      6  N   UNL     1       2.125 -14.353  -5.427  0.00  0.00    -0.271 N 
ATOM      7  H   UNL     1       1.442 -15.065  -5.265  0.00  0.00    +0.187 HD
ATOM      8  C   UNL     1       1.849 -13.124  -4.975  0.00  0.00    +0.184 C 
ATOM      9  O   UNL     1       2.635 -12.204  -5.126  0.00  0.00    -0.402 OA
ENDROOT
BRANCH   8  10
ATOM     10  C   UNL     1       0.535 -12.963  -4.334  0.00  0.00    +0.073 A 
ATOM     11  C   UNL     1      -0.123 -11.815  -3.989  0.00  0.00    +0.175 A 
ATOM     12  N   UNL     1      -1.339 -12.111  -3.449  0.00  0.00    -0.250 N 
ATOM     13  H   UNL     1      -2.014 -11.419  -3.094  0.00  0.00    +0.237 HD
ATOM     14  C   UNL     1      -1.531 -13.481  -3.450  0.00  0.00    +0.164 A 
ATOM     15  N   UNL     1      -2.535 -14.280  -3.051  0.00  0.00    -0.265 NA
ATOM     16  C   UNL     1      -2.423 -15.606  -3.192  0.00  0.00    +0.107 A 
ATOM     17  C   UNL     1      -1.272 -16.175  -3.737  0.00  0.00    +0.041 A 
ATOM     21  N   UNL     1      -0.263 -15.396  -4.130  0.00  0.00    -0.296 NA
ATOM     22  C   UNL     1      -0.365 -14.071  -4.004  0.00  0.00    +0.079 A 
BRANCH  17  18
ATOM     18  C   UNL     1      -1.187 -17.673  -3.899  0.00  0.00    +0.058 C 
ATOM     19  C   UNL     1       0.163 -18.393  -3.784  0.00  0.00    +0.023 C 
ATOM     20  C   UNL     1      -0.485 -18.188  -5.163  0.00  0.00    +0.023 C 
ENDBRANCH  17  18
ENDBRANCH   8  10
BRANCH   6   4
ATOM      4  C   UNL     1       3.340 -14.741  -6.137  0.00  0.00    +0.207 C 
ATOM      5  C   UNL     1       2.867 -15.265  -7.504  0.00  0.00    +0.059 C 
BRANCH   4   2
ATOM      1  N   UNL     1       5.354 -16.089  -5.584  0.00  0.00    -0.271 N 
ATOM      2  C   UNL     1       4.016 -15.886  -5.418  0.00  0.00    +0.204 C 
ATOM      3  O   UNL     1       3.323 -16.619  -4.719  0.00  0.00    -0.394 OA
ATOM     23  C   UNL     1       6.076 -17.192  -4.935  0.00  0.00    +0.138 C 
ATOM     24  C   UNL     1       7.217 -16.618  -4.067  0.00  0.00    +0.025 C 
ATOM     25  C   UNL     1       8.036 -15.553  -4.815  0.00  0.00    +0.004 C 
ATOM     26  C   UNL     1       7.160 -14.501  -5.509  0.00  0.00    +0.025 C 
ATOM     27  C   UNL     1       6.161 -15.202  -6.432  0.00  0.00    +0.138 C 
ENDBRANCH   4   2
ENDBRANCH   6   4
TORSDOF 4
