REMARK  Name = 3nww_ligand
REMARK  14 active torsions:
REMARK  status: ('A' for Active; 'I' for Inactive)
REMARK    1  A    between atoms: C2_2  and  C7_7
REMARK    2  A    between atoms: C6_6  and  C18_18
REMARK    3  A    between atoms: N12_12  and  C13_13
REMARK    4  A    between atoms: C13_13  and  C14_14
REMARK    5  A    between atoms: C13_13  and  C15_15
REMARK    6  A    between atoms: N16_16  and  C27_27
REMARK    7  A    between atoms: C19_19  and  C23_23
REMARK    8  A    between atoms: C23_23  and  N29_29
REMARK    9  A    between atoms: C24_24  and  N25_25
REMARK   10  A    between atoms: N25_25  and  C26_26
REMARK   11  A    between atoms: N25_25  and  C28_28
REMARK   12  A    between atoms: C26_26  and  C27_27
REMARK   13  A    between atoms: N31_31  and  C33_33
REMARK   14  A    between atoms: C33_33  and  C34_34
REMARK                            x       y       z     vdW  Elec       q    Type
REMARK                         _______ _______ _______ _____ _____    ______ ____
ROOT
ATOM      1  C   UNL     1      -3.561   0.922  20.469  0.00  0.00    +0.037 A 
ATOM      2  C   UNL     1      -3.600   2.094  19.672  0.00  0.00    +0.040 A 
ATOM     18  N   UNL     1      -3.035   3.295  20.123  0.00  0.00    -0.267 NA
ATOM     19  C   UNL     1      -2.435   3.369  21.339  0.00  0.00    +0.173 A 
ATOM     20  N   UNL     1      -1.865   4.508  21.841  0.00  0.00    -0.287 N 
ATOM     21  H   UNL     1      -2.130   5.438  21.485  0.00  0.00    +0.186 HD
ATOM     28  N   UNL     1      -2.393   2.265  22.103  0.00  0.00    -0.269 NA
ATOM     29  C   UNL     1      -2.929   1.044  21.722  0.00  0.00    +0.044 A 
ENDROOT
BRANCH  29  30
ATOM     30  C   UNL     1      -2.804  -0.090  22.680  0.00  0.00    +0.063 A 
ATOM     31  S   UNL     1      -2.374   0.251  24.280  0.00  0.00    +0.028 S 
ATOM     32  C   UNL     1      -2.439  -1.408  24.677  0.00  0.00    +0.192 A 
ATOM     33  N   UNL     1      -2.168  -1.984  26.004  0.00  0.00    -0.276 N 
ATOM     34  H   UNL     1      -2.308  -2.996  26.137  0.00  0.00    +0.194 HD
ATOM     38  N   UNL     1      -2.780  -2.154  23.593  0.00  0.00    -0.299 NA
ATOM     39  C   UNL     1      -2.998  -1.472  22.439  0.00  0.00    +0.054 A 
BRANCH  33  35
ATOM     35  C   UNL     1      -1.704  -1.180  27.157  0.00  0.00    +0.097 C 
ATOM     36  C   UNL     1      -1.858  -1.962  28.451  0.00  0.00    +0.035 C 
ATOM     37  C   UNL     1      -0.204  -0.925  27.022  0.00  0.00    +0.035 C 
ENDBRANCH  33  35
ENDBRANCH  29  30
BRANCH   2   3
ATOM      3  C   UNL     1      -4.266   1.965  18.346  0.00  0.00    +0.005 A 
ATOM      4  C   UNL     1      -5.654   1.465  18.237  0.00  0.00    +0.009 A 
ATOM      5  C   UNL     1      -6.267   1.348  16.947  0.00  0.00    -0.007 A 
ATOM      6  C   UNL     1      -5.595   1.695  15.716  0.00  0.00    -0.002 A 
ATOM      7  C   UNL     1      -4.238   2.185  15.795  0.00  0.00    +0.003 A 
ATOM      8  C   UNL     1      -3.593   2.312  17.099  0.00  0.00    -0.006 A 
BRANCH   8   9
ATOM      9  C   UNL     1      -2.179   2.832  17.065  0.00  0.00    +0.207 C 
BRANCH   9  10
ATOM     10  N   UNL     1      -1.955   3.649  15.873  0.00  0.00    -0.261 N 
ATOM     11  H   UNL     1      -2.673   4.268  15.554  0.00  0.00    +0.187 HD
ATOM     12  C   UNL     1      -0.782   3.574  15.196  0.00  0.00    +0.259 C 
ATOM     13  O   UNL     1       0.099   2.767  15.476  0.00  0.00    -0.401 OA
ATOM     14  N   UNL     1      -0.681   4.467  14.192  0.00  0.00    -0.273 N 
ATOM     15  H   UNL     1      -1.418   5.119  14.014  0.00  0.00    +0.185 HD
BRANCH  14  16
ATOM     16  C   UNL     1       0.532   4.464  13.365  0.00  0.00    +0.131 C 
ATOM     17  C   UNL     1       0.116   4.318  11.894  0.00  0.00    +0.030 C 
ENDBRANCH  14  16
ENDBRANCH   9  10
ENDBRANCH   8   9
ENDBRANCH   2   3
BRANCH  20  22
ATOM     22  C   UNL     1      -0.859   4.359  22.908  0.00  0.00    +0.186 C 
BRANCH  22  23
ATOM     23  C   UNL     1      -0.161   5.669  23.222  0.00  0.00    +0.156 C 
BRANCH  23  24
ATOM     24  N   UNL     1       0.503   6.188  22.007  0.00  0.00    +0.232 N 
ATOM     25  H   UNL     1       0.159   5.714  21.187  0.00  0.00    +0.203 HD
ATOM     26  C   UNL     1       0.193   7.624  21.934  0.00  0.00    +0.190 C 
ATOM     27  C   UNL     1       1.967   5.986  22.127  0.00  0.00    +0.190 C 
ENDBRANCH  23  24
ENDBRANCH  22  23
ENDBRANCH  20  22
TORSDOF 9
