REMARK  Name = 5JGB
REMARK  10 active torsions:
REMARK  status: ('A' for Active; 'I' for Inactive)
REMARK    1  A    between atoms: C_7  and  C_16
REMARK    2  A    between atoms: C_10  and  C_22
REMARK    3  A    between atoms: C_12  and  O_20
REMARK    4  A    between atoms: N_18  and  C_19
REMARK    5  A    between atoms: O_20  and  C_21
REMARK    6  A    between atoms: N_24  and  C_25
REMARK    7  A    between atoms: C_25  and  C_26
REMARK    8  A    between atoms: C_26  and  C_27
REMARK    9  A    between atoms: C_27  and  N_28
REMARK   10  A    between atoms: N_31  and  C_32
REMARK                            x       y       z     vdW  Elec       q    Type
REMARK                         _______ _______ _______ _____ _____    ______ ____
ROOT
ATOM      6  C   UNL     1     -16.015 -48.349 -16.646  0.00  0.00    +0.076 A 
ATOM      7  C   UNL     1     -16.314 -49.438 -17.507  0.00  0.00    +0.142 A 
ATOM     10  C   UNL     1     -17.578 -49.543 -18.098  0.00  0.00    +0.060 A 
ATOM     11  C   UNL     1     -18.555 -48.571 -17.849  0.00  0.00    +0.040 A 
ATOM     26  C   UNL     1     -18.254 -47.497 -17.004  0.00  0.00    +0.015 A 
ATOM     27  C   UNL     1     -17.003 -47.387 -16.407  0.00  0.00    +0.028 A 
ENDROOT
BRANCH   6   4
ATOM      3  C   UNL     1     -14.136 -47.431 -15.186  0.00  0.00    +0.251 C 
ATOM      4  N   UNL     1     -14.712 -48.304 -16.069  0.00  0.00    -0.279 N 
ATOM      5  H   UNL     1     -14.067 -49.097 -16.384  0.00  0.00    +0.155 HD
ATOM     28  O   UNL     1     -14.723 -46.475 -14.670  0.00  0.00    -0.270 OA
BRANCH   3   2
ATOM      1  C   UNL     1     -11.903 -48.793 -15.358  0.00  0.00    +0.097 A 
ATOM      2  C   UNL     1     -12.693 -47.701 -14.855  0.00  0.00    +0.070 A 
ATOM     29  C   UNL     1     -11.980 -46.893 -14.018  0.00  0.00    +0.061 A 
ATOM     30  S   UNL     1     -10.373 -47.416 -13.815  0.00  0.00    -0.089 S 
ATOM     31  N   UNL     1     -12.350 -49.862 -16.292  0.00  0.00    -0.236 NA
ATOM     32  C   UNL     1     -11.421 -50.738 -16.587  0.00  0.00    +0.200 C 
ATOM     33  N   UNL     1     -10.146 -50.720 -16.107  0.00  0.00    -0.313 N 
ATOM     34  H   UNL     1      -9.483 -51.499 -16.421  0.00  0.00    +0.170 HD
ATOM     35  C   UNL     1      -9.649 -49.755 -15.234  0.00  0.00    +0.266 C 
ATOM     36  O   UNL     1      -8.486 -49.778 -14.827  0.00  0.00    -0.267 OA
ATOM     37  C   UNL     1     -10.605 -48.767 -14.868  0.00  0.00    +0.103 A 
ENDBRANCH   3   2
ENDBRANCH   6   4
BRANCH  11  12
ATOM     12  C   UNL     1     -19.909 -48.681 -18.505  0.00  0.00    +0.244 C 
ATOM     13  N   UNL     1     -20.995 -48.423 -17.756  0.00  0.00    -0.311 N 
ATOM     14  H   UNL     1     -21.094 -47.449 -17.325  0.00  0.00    +0.149 HD
ATOM     25  O   UNL     1     -19.996 -48.980 -19.695  0.00  0.00    -0.270 OA
BRANCH  13  15
ATOM     15  C   UNL     1     -22.052 -49.409 -17.498  0.00  0.00    +0.106 C 
BRANCH  15  16
ATOM     16  C   UNL     1     -23.145 -49.450 -18.589  0.00  0.00    +0.034 C 
BRANCH  16  17
ATOM     17  C   UNL     1     -24.614 -49.375 -18.095  0.00  0.00    +0.086 C 
BRANCH  17  18
ATOM     18  N   UNL     1     -25.626 -49.735 -19.114  0.00  0.00    -0.300 NA
ATOM     19  C   UNL     1     -26.219 -48.534 -19.774  0.00  0.00    +0.100 C 
ATOM     20  C   UNL     1     -27.249 -48.953 -20.859  0.00  0.00    +0.099 C 
ATOM     21  N   UNL     1     -28.314 -49.788 -20.275  0.00  0.00    -0.303 NA
ATOM     22  C   UNL     1     -29.293 -50.166 -21.293  0.00  0.00    +0.105 C 
ATOM     23  C   UNL     1     -27.731 -50.986 -19.642  0.00  0.00    +0.099 C 
ATOM     24  C   UNL     1     -26.700 -50.590 -18.543  0.00  0.00    +0.100 C 
ENDBRANCH  17  18
ENDBRANCH  16  17
ENDBRANCH  15  16
ENDBRANCH  13  15
ENDBRANCH  11  12
BRANCH   7   8
ATOM      8  O   UNL     1     -15.295 -50.344 -17.675  0.00  0.00    -0.493 OA
ATOM      9  C   UNL     1     -14.755 -50.526 -18.992  0.00  0.00    +0.277 C 
ENDBRANCH   7   8
TORSDOF 8
