REMARK  Name = F3Z
REMARK  7 active torsions:
REMARK  status: ('A' for Active; 'I' for Inactive)
REMARK    1  A    between atoms: C20_2  and  C19_19
REMARK    2  A    between atoms: N5_3  and  C21_4
REMARK    3  A    between atoms: C27_7  and  C28_8
REMARK    4  A    between atoms: N_22  and  C2_24
REMARK    5  A    between atoms: C2_24  and  C3_25
REMARK    6  A    between atoms: N2_30  and  C8_33
REMARK    7  A    between atoms: C11_36  and  C14_39
REMARK                            x       y       z     vdW  Elec       q    Type
REMARK                         _______ _______ _______ _____ _____    ______ ____
ROOT
ATOM      3  C   UNL     1       5.035   8.293  45.433  0.00  0.00    +0.096 C 
ATOM      4  C   UNL     1       5.014   9.245  46.636  0.00  0.00    +0.028 C 
ATOM      5  C   UNL     1       3.676   8.975  47.312  0.00  0.00    +0.073 C 
ATOM      6  N   UNL     1       3.311   7.618  46.877  0.00  0.00    -0.265 NA
ATOM     28  C   UNL     1       3.655   7.629  45.456  0.00  0.00    +0.082 C 
ENDROOT
BRANCH   3   2
ATOM      1  O   UNL     1       5.983   6.109  45.694  0.00  0.00    -0.273 OA
ATOM      2  C   UNL     1       6.189   7.301  45.498  0.00  0.00    +0.247 C 
ATOM     29  N   UNL     1       7.426   7.828  45.327  0.00  0.00    -0.179 NA
BRANCH  29  30
ATOM     30  C   UNL     1       8.655   7.137  45.216  0.00  0.00    +0.073 A 
ATOM     31  C   UNL     1       8.846   5.933  45.887  0.00  0.00    +0.018 A 
ATOM     32  C   UNL     1      10.042   5.264  45.777  0.00  0.00    +0.022 A 
ATOM     33  C   UNL     1      11.060   5.803  44.989  0.00  0.00    +0.104 A 
ATOM     34  N   UNL     1      12.306   5.354  44.720  0.00  0.00    -0.148 NA
ATOM     35  N   UNL     1      12.960   6.203  43.898  0.00  0.00    -0.148 NA
ATOM     36  C   UNL     1      12.110   7.209  43.643  0.00  0.00    +0.104 A 
ATOM     43  C   UNL     1      10.907   6.978  44.320  0.00  0.00    +0.040 A 
ATOM     44  C   UNL     1       9.684   7.658  44.435  0.00  0.00    +0.020 A 
BRANCH  36  37
ATOM     37  C   UNL     1      12.550   8.305  42.760  0.00  0.00    +0.022 A 
ATOM     38  C   UNL     1      13.897   8.613  42.610  0.00  0.00    +0.022 A 
ATOM     39  C   UNL     1      14.269   9.645  41.774  0.00  0.00    +0.099 A 
ATOM     40  N   UNL     1      13.391  10.378  41.088  0.00  0.00    -0.242 NA
ATOM     41  C   UNL     1      12.097  10.087  41.227  0.00  0.00    +0.099 A 
ATOM     42  C   UNL     1      11.640   9.073  42.042  0.00  0.00    +0.022 A 
ENDBRANCH  36  37
ENDBRANCH  29  30
ENDBRANCH   3   2
BRANCH   6   7
ATOM      7  C   UNL     1       1.914   7.270  47.147  0.00  0.00    +0.159 C 
BRANCH   7   8
ATOM      8  C   UNL     1       1.613   7.062  48.625  0.00  0.00    +0.242 C 
ATOM      9  O   UNL     1       2.535   7.016  49.432  0.00  0.00    -0.273 OA
ATOM     10  N   UNL     1       0.329   6.933  49.018  0.00  0.00    -0.275 N 
ATOM     11  C   UNL     1      -0.034   6.921  50.430  0.00  0.00    +0.115 C 
ATOM     12  C   UNL     1      -0.350   8.341  50.863  0.00  0.00    +0.112 C 
ATOM     13  N   UNL     1      -1.403   8.955  50.026  0.00  0.00    -0.304 N 
ATOM     26  C   UNL     1      -1.201   8.772  48.572  0.00  0.00    +0.112 C 
ATOM     27  C   UNL     1      -0.824   7.341  48.222  0.00  0.00    +0.115 C 
BRANCH  13  14
ATOM     14  C   UNL     1      -1.596  10.346  50.405  0.00  0.00    +0.048 A 
ATOM     15  C   UNL     1      -1.487  10.741  51.741  0.00  0.00    +0.015 A 
ATOM     16  C   UNL     1      -1.668  12.061  52.106  0.00  0.00    +0.004 A 
ATOM     17  C   UNL     1      -1.966  13.032  51.154  0.00  0.00    +0.036 A 
ATOM     24  C   UNL     1      -2.076  12.641  49.821  0.00  0.00    +0.004 A 
ATOM     25  C   UNL     1      -1.894  11.318  49.451  0.00  0.00    +0.015 A 
BRANCH  17  18
ATOM     18  C   UNL     1      -2.160  14.449  51.551  0.00  0.00    +0.162 A 
ATOM     19  N   UNL     1      -1.856  14.773  52.816  0.00  0.00    -0.225 NA
ATOM     20  C   UNL     1      -2.034  16.054  53.163  0.00  0.00    +0.102 A 
ATOM     21  C   UNL     1      -2.501  16.977  52.267  0.00  0.00    +0.041 A 
ATOM     22  C   UNL     1      -2.787  16.563  50.992  0.00  0.00    +0.102 A 
ATOM     23  N   UNL     1      -2.620  15.291  50.616  0.00  0.00    -0.225 NA
ENDBRANCH  17  18
ENDBRANCH  13  14
ENDBRANCH   7   8
ENDBRANCH   6   7
TORSDOF 7
