REMARK  Name = 5otr
REMARK  2 active torsions:
REMARK  status: ('A' for Active; 'I' for Inactive)
REMARK    1  A    between atoms: C1_1  and  C_12
REMARK    2  A    between atoms: C4_3  and  C7_16
REMARK                            x       y       z     vdW  Elec       q    Type
REMARK                         _______ _______ _______ _____ _____    ______ ____
ROOT
ATOM      1  C   UNL     1    -113.085-175.197 308.153  0.00  0.00    -0.031 A 
ATOM      2  C   UNL     1    -112.110-174.224 307.972  0.00  0.00    +0.026 A 
ATOM      3  C   UNL     1    -110.777-174.512 308.209  0.00  0.00    +0.050 A 
ATOM      4 CL   UNL     1    -109.624-173.238 307.990  0.00  0.00    -0.084 Cl
ATOM      5  C   UNL     1    -110.350-175.771 308.642  0.00  0.00    +0.019 A 
ATOM     12  C   UNL     1    -111.349-176.728 308.796  0.00  0.00    +0.050 A 
ATOM     13 CL   UNL     1    -110.926-178.300 309.373  0.00  0.00    -0.084 Cl
ATOM     16  C   UNL     1    -112.680-176.468 308.538  0.00  0.00    +0.026 A 
ENDROOT
BRANCH   5   6
ATOM      6  C   UNL     1    -108.918-176.074 308.952  0.00  0.00    -0.015 A 
ATOM      7  C   UNL     1    -108.032-176.475 307.946  0.00  0.00    +0.009 A 
ATOM      8  C   UNL     1    -106.732-176.850 308.252  0.00  0.00    +0.001 A 
ATOM      9  C   UNL     1    -106.288-176.823 309.566  0.00  0.00    +0.000 A 
ATOM     10  C   UNL     1    -107.147-176.408 310.572  0.00  0.00    +0.001 A 
ATOM     11  C   UNL     1    -108.448-176.031 310.269  0.00  0.00    +0.009 A 
ENDBRANCH   5   6
BRANCH   1  14
ATOM     14  C   UNL     1    -114.557-174.891 307.997  0.00  0.00    +0.113 C 
ATOM     15  N   UNL     1    -115.245-175.744 307.027  0.00  0.00    -0.089 NA
ENDBRANCH   1  14
TORSDOF 2
