REMARK  Name = 3ezr_ligand
REMARK  7 active torsions:
REMARK  status: ('A' for Active; 'I' for Inactive)
REMARK    1  A    between atoms: C17_9  and  N32_32
REMARK    2  A    between atoms: C20_10  and  C19_24
REMARK    3  A    between atoms: C26_14  and  O34_34
REMARK    4  A    between atoms: C11_19  and  C12_20
REMARK    5  A    between atoms: C16_22  and  N31_31
REMARK    6  A    between atoms: C18_23  and  O34_34
REMARK    7  A    between atoms: C25_26  and  N33_33
REMARK                            x       y       z     vdW  Elec       q    Type
REMARK                         _______ _______ _______ _____ _____    ______ ____
ROOT
ATOM     11  C   UNL     1      -1.888  32.106  10.532  0.00  0.00    -0.029 A 
ATOM     12  C   UNL     1      -1.465  30.797  10.632  0.00  0.00    -0.000 A 
ATOM     13  C   UNL     1      -0.456  30.259   9.857  0.00  0.00    +0.009 A 
ATOM     14  C   UNL     1       0.126  31.107   8.929  0.00  0.00    +0.033 A 
ATOM     15  C   UNL     1       1.154  31.027   7.952  0.00  0.00    +0.177 A 
ATOM     16  N   UNL     1       1.335  32.177   7.300  0.00  0.00    -0.215 N 
ATOM     17  H   UNL     1       2.011  32.391   6.553  0.00  0.00    +0.298 HD
ATOM     18  N   UNL     1       0.423  32.986   7.855  0.00  0.00    -0.257 NA
ATOM     37  C   UNL     1      -0.330  32.403   8.828  0.00  0.00    +0.020 A 
ATOM     38  C   UNL     1      -1.316  32.949   9.609  0.00  0.00    +0.010 A 
ENDROOT
BRANCH  15  19
ATOM     19  C   UNL     1       2.020  29.872   7.657  0.00  0.00    +0.167 A 
ATOM     20  N   UNL     1       2.966  29.870   6.676  0.00  0.00    -0.315 NA
ATOM     21  C   UNL     1       3.595  28.662   6.693  0.00  0.00    +0.019 A 
ATOM     22  C   UNL     1       2.985  27.964   7.716  0.00  0.00    +0.101 A 
ATOM     23  C   UNL     1       3.383  26.672   8.028  0.00  0.00    +0.066 A 
ATOM     32  C   UNL     1       4.396  26.167   7.238  0.00  0.00    -0.016 A 
ATOM     33  C   UNL     1       4.991  26.880   6.223  0.00  0.00    -0.042 A 
ATOM     34  C   UNL     1       4.611  28.165   5.908  0.00  0.00    -0.034 A 
ATOM     35  N   UNL     1       2.012  28.731   8.307  0.00  0.00    -0.257 N 
ATOM     36  H   UNL     1       1.403  28.467   9.095  0.00  0.00    +0.223 HD
BRANCH  23  24
ATOM     24  N   UNL     1       2.789  25.917   9.058  0.00  0.00    -0.301 N 
ATOM     25  C   UNL     1       3.137  24.501   9.002  0.00  0.00    +0.178 C 
ATOM     26  C   UNL     1       3.450  23.930  10.375  0.00  0.00    +0.155 C 
ATOM     27  N   UNL     1       2.529  24.433  11.440  0.00  0.00    +0.236 N 
ATOM     28  H   UNL     1       3.139  24.543  12.235  0.00  0.00    +0.203 HD
ATOM     29  C   UNL     1       1.541  23.430  11.888  0.00  0.00    +0.190 C 
ATOM     30  C   UNL     1       1.952  25.792  11.270  0.00  0.00    +0.155 C 
ATOM     31  C   UNL     1       2.892  26.548  10.357  0.00  0.00    +0.178 C 
ENDBRANCH  23  24
ENDBRANCH  15  19
BRANCH  11   2
ATOM      1  C   UNL     1      -2.579  33.925  11.954  0.00  0.00    -0.014 A 
ATOM      2  C   UNL     1      -2.862  32.675  11.436  0.00  0.00    +0.001 A 
ATOM      3  C   UNL     1      -4.023  32.062  11.852  0.00  0.00    +0.091 A 
ATOM      6  C   UNL     1      -4.870  32.681  12.748  0.00  0.00    +0.030 A 
ATOM      7  C   UNL     1      -4.576  33.927  13.250  0.00  0.00    +0.028 A 
ATOM     39  C   UNL     1      -3.419  34.552  12.842  0.00  0.00    -0.009 A 
BRANCH   7   8
ATOM      8  N   UNL     1      -5.448  34.537  14.159  0.00  0.00    -0.338 N 
ATOM      9  H   UNL     1      -6.309  34.053  14.451  0.00  0.00    +0.173 HD
ATOM     10  H   UNL     1      -5.229  35.470  14.536  0.00  0.00    +0.173 HD
ENDBRANCH   7   8
BRANCH   3   4
ATOM      4  O   UNL     1      -4.358  30.811  11.376  0.00  0.00    -0.322 OA
ATOM      5  C   UNL     1      -5.646  30.564  11.918  0.00  0.00    +0.234 C 
ENDBRANCH   3   4
ENDBRANCH  11   2
TORSDOF 5
