REMARK  Name = 3ue4_ligand
REMARK  13 active torsions:
REMARK  status: ('A' for Active; 'I' for Inactive)
REMARK    1  A    between atoms: CAA_1  and  OAV_22
REMARK    2  A    between atoms: O02_2  and  CAX_24
REMARK    3  A    between atoms: O02_2  and  C01_36
REMARK    4  A    between atoms: CAC_3  and  CAM_13
REMARK    5  A    between atoms: CAC_3  and  NBH_34
REMARK    6  A    between atoms: CAG_7  and  CBA_27
REMARK    7  A    between atoms: CAM_13  and  CAN_14
REMARK    8  A    between atoms: CAN_14  and  OAW_23
REMARK    9  A    between atoms: CAO_15  and  NBI_35
REMARK   10  A    between atoms: NAU_21  and  CBB_28
REMARK   11  A    between atoms: NAU_21  and  CBE_31
REMARK   12  A    between atoms: OAV_22  and  CBC_29
REMARK   13  A    between atoms: OAW_23  and  CBD_30
REMARK                            x       y       z     vdW  Elec       q    Type
REMARK                         _______ _______ _______ _____ _____    ______ ____
ROOT
ATOM      3  C   UNL     1      -1.523  13.877 -51.545  0.00  0.00    +0.131 A 
ATOM      4  C   UNL     1      -0.780  12.583 -51.556  0.00  0.00    +0.132 A 
ATOM     18  C   UNL     1      -0.538  11.808 -50.305  0.00  0.00    +0.031 A 
ATOM     19  C   UNL     1      -1.045  12.359 -48.992  0.00  0.00    +0.021 A 
ATOM     20  C   UNL     1      -1.792  13.677 -48.989  0.00  0.00    +0.029 A 
ATOM     21  C   UNL     1      -2.323  14.244 -47.677  0.00  0.00    +0.119 A 
ATOM     22  C   UNL     1      -2.047  13.438 -46.419  0.00  0.00    +0.135 A 
ATOM     23  C   UNL     1      -1.302  12.144 -46.516  0.00  0.00    +0.101 A 
ATOM     38  N   UNL     1      -0.821  11.640 -47.769  0.00  0.00    -0.322 NA
ATOM     39  C   UNL     1      -2.029  14.442 -50.256  0.00  0.00    +0.035 A 
ENDROOT
BRANCH   3   2
ATOM      1  C   UNL     1      -2.439  15.823 -52.615  0.00  0.00    +0.231 C 
ATOM      2  O   UNL     1      -1.768  14.604 -52.688  0.00  0.00    -0.321 OA
ENDBRANCH   3   2
BRANCH  22  24
ATOM     24  C   UNL     1      -2.532  13.891 -45.081  0.00  0.00    +0.085 C 
ATOM     25  N   UNL     1      -2.895  14.239 -44.070  0.00  0.00    -0.347 NA
ENDBRANCH  22  24
BRANCH  21  26
ATOM     26  N   UNL     1      -3.037  15.528 -47.704  0.00  0.00    -0.256 N 
ATOM     27  H   UNL     1      -3.485  15.862 -48.569  0.00  0.00    +0.222 HD
BRANCH  26  28
ATOM     28  C   UNL     1      -3.098  16.314 -46.488  0.00  0.00    +0.073 A 
ATOM     29  C   UNL     1      -4.428  16.770 -45.953  0.00  0.00    +0.053 A 
ATOM     30  C   UNL     1      -4.478  17.562 -44.688  0.00  0.00    +0.007 A 
ATOM     31  C   UNL     1      -3.217  17.893 -43.963  0.00  0.00    +0.057 A 
ATOM     32  C   UNL     1      -1.886  17.436 -44.492  0.00  0.00    +0.097 A 
ATOM     35 CL   UNL     1      -3.289  18.807 -42.499  0.00  0.00    -0.088 Cl
ATOM     36 CL   UNL     1      -5.890  16.375 -46.802  0.00  0.00    -0.088 Cl
ATOM     37  C   UNL     1      -1.826  16.646 -45.760  0.00  0.00    +0.038 A 
BRANCH  32  33
ATOM     33  O   UNL     1      -0.723  17.749 -43.825  0.00  0.00    -0.323 OA
ATOM     34  C   UNL     1       0.358  16.878 -43.861  0.00  0.00    +0.233 C 
ENDBRANCH  32  33
ENDBRANCH  26  28
ENDBRANCH  21  26
BRANCH   4   5
ATOM      5  O   UNL     1      -0.286  12.026 -52.728  0.00  0.00    -0.313 OA
BRANCH   5   6
ATOM      6  C   UNL     1       0.736  11.074 -52.663  0.00  0.00    +0.199 C 
BRANCH   6   7
ATOM      7  C   UNL     1       0.743  10.325 -53.995  0.00  0.00    +0.084 C 
BRANCH   7   8
ATOM      8  C   UNL     1      -0.276  10.967 -54.926  0.00  0.00    +0.134 C 
BRANCH   8   9
ATOM      9  N   UNL     1      -0.243  10.244 -56.237  0.00  0.00    +0.243 N 
ATOM     10  H   UNL     1       0.486  10.762 -56.703  0.00  0.00    +0.204 HD
ATOM     11  C   UNL     1       0.310   8.915 -56.178  0.00  0.00    +0.183 C 
ATOM     12  C   UNL     1       0.921   8.559 -57.494  0.00  0.00    +0.183 C 
ATOM     13  N   UNL     1      -0.079   8.660 -58.514  0.00  0.00    +0.240 N 
ATOM     14  H   UNL     1       0.552   8.760 -59.293  0.00  0.00    +0.203 HD
ATOM     15  C   UNL     1      -0.713   9.949 -58.605  0.00  0.00    +0.183 C 
ATOM     16  C   UNL     1      -0.798   7.509 -59.039  0.00  0.00    +0.191 C 
ATOM     17  C   UNL     1      -1.308  10.319 -57.236  0.00  0.00    +0.183 C 
ENDBRANCH   8   9
ENDBRANCH   7   8
ENDBRANCH   6   7
ENDBRANCH   5   6
ENDBRANCH   4   5
TORSDOF 10
