REMARK  Name = 2wd1_ligand
REMARK  4 active torsions:
REMARK  status: ('A' for Active; 'I' for Inactive)
REMARK    1  A    between atoms: C10_2  and  C5_4
REMARK    2  A    between atoms: N9_12  and  S13_13
REMARK    3  A    between atoms: S13_13  and  C14_16
REMARK    4  A    between atoms: C21_17  and  N22_18
REMARK                            x       y       z     vdW  Elec       q    Type
REMARK                         _______ _______ _______ _____ _____    ______ ____
ROOT
ATOM      3  C   UNL     1     106.997  22.767 139.142  0.00  0.00    +0.059 A 
ATOM      4  C   UNL     1     107.125  24.023 139.680  0.00  0.00    +0.082 A 
ATOM      5  N   UNL     1     106.045  24.658 140.219  0.00  0.00    -0.321 NA
ATOM      6  C   UNL     1     104.856  24.069 140.235  0.00  0.00    +0.037 A 
ATOM      7  C   UNL     1     103.692  24.495 140.725  0.00  0.00    -0.025 A 
ATOM      8  C   UNL     1     102.866  23.466 140.438  0.00  0.00    +0.168 A 
ATOM      9  N   UNL     1     103.460  22.449 139.841  0.00  0.00    -0.110 N 
ATOM     22  C   UNL     1     104.694  22.828 139.714  0.00  0.00    +0.130 A 
ATOM     23  C   UNL     1     105.774  22.166 139.163  0.00  0.00    +0.071 A 
ENDROOT
BRANCH   3   2
ATOM      1  O   UNL     1     109.212  22.434 138.444  0.00  0.00    -0.388 OA
ATOM      2  C   UNL     1     108.096  22.044 138.535  0.00  0.00    +0.200 C 
ATOM     24  N   UNL     1     107.719  20.844 138.074  0.00  0.00    -0.301 N 
ATOM     25  H   UNL     1     108.388  20.244 137.636  0.00  0.00    +0.181 HD
ATOM     26  H   UNL     1     106.768  20.548 138.168  0.00  0.00    +0.181 HD
ENDBRANCH   3   2
BRANCH   9  10
ATOM     10  S   UNL     1     102.730  21.045 139.398  0.00  0.00    +0.126 S 
ATOM     20  O   UNL     1     103.404  20.450 138.442  0.00  0.00    -0.135 OA
ATOM     21  O   UNL     1     101.555  21.161 138.957  0.00  0.00    -0.135 OA
BRANCH  10  11
ATOM     11  C   UNL     1     102.622  19.891 140.715  0.00  0.00    +0.166 A 
ATOM     12  C   UNL     1     103.615  18.932 140.727  0.00  0.00    +0.040 A 
ATOM     13  C   UNL     1     103.675  17.977 141.712  0.00  0.00    +0.012 A 
ATOM     14  C   UNL     1     102.743  17.946 142.713  0.00  0.00    +0.010 A 
ATOM     15  C   UNL     1     101.692  18.786 142.698  0.00  0.00    +0.053 A 
ATOM     16  C   UNL     1     101.642  19.822 141.771  0.00  0.00    +0.227 A 
BRANCH  16  17
ATOM     17  N   UNL     1     100.527  20.738 142.006  0.00  0.00    +0.317 N 
ATOM     18  O   UNL     1      99.438  20.410 142.333  0.00  0.00    +0.178 OA
ATOM     19  O   UNL     1     100.673  21.968 141.858  0.00  0.00    +0.178 OA
ENDBRANCH  16  17
ENDBRANCH  10  11
ENDBRANCH   9  10
TORSDOF 4
