REMARK  Name = 4e4n_ligand
REMARK  7 active torsions:
REMARK  status: ('A' for Active; 'I' for Inactive)
REMARK    1  A    between atoms: C1_1  and  C2_2
REMARK    2  A    between atoms: C2_2  and  C3_3
REMARK    3  A    between atoms: C2_2  and  C4_4
REMARK    4  A    between atoms: C2_2  and  O5_5
REMARK    5  A    between atoms: O5_5  and  C6_6
REMARK    6  A    between atoms: N8_8  and  C9_9
REMARK    7  A    between atoms: C13_12  and  N16_14
REMARK                            x       y       z     vdW  Elec       q    Type
REMARK                         _______ _______ _______ _____ _____    ______ ____
ROOT
ATOM      7  C   UNL     1       6.828  53.653   2.125  0.00  0.00    +0.102 C 
ATOM      8  C   UNL     1       6.967  54.529   0.859  0.00  0.00    +0.064 C 
ATOM      9  C   UNL     1       6.616  55.951   1.328  0.00  0.00    +0.137 C 
ATOM     23  C   UNL     1       7.086  55.998   2.801  0.00  0.00    +0.039 C 
ATOM     24  C   UNL     1       6.778  54.589   3.356  0.00  0.00    +0.030 C 
ENDROOT
BRANCH   9  10
ATOM     10  N   UNL     1       7.340  57.057   0.678  0.00  0.00    -0.231 N 
ATOM     11  C   UNL     1       6.857  58.333   0.636  0.00  0.00    +0.094 A 
ATOM     12  C   UNL     1       5.673  58.963   1.072  0.00  0.00    +0.022 A 
ATOM     13  C   UNL     1       5.522  60.342   0.825  0.00  0.00    +0.122 A 
ATOM     14  N   UNL     1       6.492  61.038   0.203  0.00  0.00    -0.302 NA
ATOM     15  C   UNL     1       7.606  60.475  -0.212  0.00  0.00    +0.068 A 
ATOM     16  N   UNL     1       4.306  60.704   1.345  0.00  0.00    -0.273 N 
ATOM     17  H   UNL     1       3.917  61.657   1.326  0.00  0.00    +0.229 HD
ATOM     18  C   UNL     1       3.679  59.606   1.897  0.00  0.00    +0.113 A 
ATOM     19  C   UNL     1       4.452  58.519   1.773  0.00  0.00    -0.031 A 
ATOM     20  C   UNL     1       7.844  59.103  -0.024  0.00  0.00    +0.046 A 
ATOM     21  N   UNL     1       8.867  58.264  -0.334  0.00  0.00    -0.307 NA
ATOM     22  C   UNL     1       8.582  57.054   0.088  0.00  0.00    +0.238 A 
ENDBRANCH   9  10
BRANCH   7   5
ATOM      4  C   UNL     1       5.487  51.733   1.372  0.00  0.00    +0.320 C 
ATOM      5  N   UNL     1       5.614  52.824   2.164  0.00  0.00    -0.259 N 
ATOM      6  H   UNL     1       4.870  53.070   2.785  0.00  0.00    +0.187 HD
ATOM     25  O   UNL     1       6.355  51.442   0.560  0.00  0.00    -0.378 OA
BRANCH   4   3
ATOM      3  O   UNL     1       4.351  51.022   1.517  0.00  0.00    -0.258 OA
BRANCH   3   2
ATOM      1  C   UNL     1       3.864  49.829  -0.544  0.00  0.00    +0.046 C 
ATOM      2  C   UNL     1       4.087  49.701   0.956  0.00  0.00    +0.090 C 
ATOM     26  C   UNL     1       5.205  48.700   1.278  0.00  0.00    +0.046 C 
ATOM     27  C   UNL     1       2.779  49.197   1.566  0.00  0.00    +0.046 C 
ENDBRANCH   3   2
ENDBRANCH   4   3
ENDBRANCH   7   5
TORSDOF 4
