REMARK  Name = 2JDR
REMARK  8 active torsions:
REMARK  status: ('A' for Active; 'I' for Inactive)
REMARK    1  A    between atoms: C_1  and  C_2
REMARK    2  A    between atoms: C_8  and  C_11
REMARK    3  A    between atoms: C_15  and  O_16
REMARK    4  A    between atoms: O_16  and  C_17
REMARK    5  A    between atoms: C_17  and  C_18
REMARK    6  A    between atoms: C_18  and  N_19
REMARK    7  A    between atoms: C_18  and  C_20
REMARK    8  A    between atoms: C_20  and  C_21
REMARK                            x       y       z     vdW  Elec       q    Type
REMARK                         _______ _______ _______ _____ _____    ______ ____
ROOT
ATOM      6  C   UNL     1      19.738   2.922  41.429  0.00  0.00    +0.004 A 
ATOM      7  C   UNL     1      20.098   1.832  42.261  0.00  0.00    +0.057 A 
ATOM      8  C   UNL     1      19.503   0.617  42.068  0.00  0.00    +0.139 A 
ATOM     25  C   UNL     1      18.572   0.495  41.049  0.00  0.00    +0.156 A 
ATOM     26  N   UNL     1      18.243   1.512  40.299  0.00  0.00    -0.259 NA
ATOM     27  C   UNL     1      18.775   2.708  40.454  0.00  0.00    +0.119 A 
ENDROOT
BRANCH   6   5
ATOM      1  C   UNL     1      24.754   5.148  42.808  0.00  0.00    +0.068 C 
ATOM      2  C   UNL     1      23.588   6.049  42.640  0.00  0.00    +0.067 A 
ATOM      3  C   UNL     1      22.249   5.618  42.268  0.00  0.00    +0.023 A 
ATOM      4  C   UNL     1      21.716   4.358  42.019  0.00  0.00    +0.020 A 
ATOM      5  C   UNL     1      20.371   4.261  41.681  0.00  0.00    -0.016 A 
ATOM     28  C   UNL     1      19.586   5.432  41.635  0.00  0.00    +0.010 A 
ATOM     29  C   UNL     1      20.105   6.663  41.914  0.00  0.00    +0.028 A 
ATOM     30  C   UNL     1      21.450   6.779  42.215  0.00  0.00    +0.066 A 
ATOM     31  N   UNL     1      22.260   7.852  42.540  0.00  0.00    -0.277 N 
ATOM     32  H   UNL     1      21.957   8.877  42.599  0.00  0.00    +0.189 HD
ATOM     33  N   UNL     1      23.555   7.354  42.779  0.00  0.00    -0.178 NA
ENDBRANCH   6   5
BRANCH   8   9
ATOM      9  O   UNL     1      19.738  -0.510  42.779  0.00  0.00    -0.489 OA
BRANCH   9  10
ATOM     10  C   UNL     1      20.360  -0.617  44.030  0.00  0.00    +0.247 C 
BRANCH  10  11
ATOM     11  C   UNL     1      20.614  -2.120  44.098  0.00  0.00    +0.093 C 
BRANCH  11  22
ATOM     22  N   UNL     1      19.408  -2.891  43.814  0.00  0.00    -0.324 NA
ATOM     23  H   UNL     1      18.651  -2.647  44.530  0.00  0.00    +0.119 HD
ATOM     24  H   UNL     1      19.057  -2.656  42.831  0.00  0.00    +0.119 HD
ENDBRANCH  11  22
BRANCH  11  12
ATOM     12  C   UNL     1      21.573  -2.555  43.001  0.00  0.00    +0.059 C 
BRANCH  12  13
ATOM     13  C   UNL     1      22.941  -1.976  43.252  0.00  0.00    -0.019 A 
ATOM     14  C   UNL     1      23.532  -0.774  42.643  0.00  0.00    +0.005 A 
ATOM     15  C   UNL     1      23.121   0.196  41.693  0.00  0.00    +0.010 A 
ATOM     16  C   UNL     1      23.953   1.240  41.308  0.00  0.00    +0.001 A 
ATOM     17  C   UNL     1      25.224   1.355  41.863  0.00  0.00    +0.002 A 
ATOM     18  C   UNL     1      25.639   0.415  42.796  0.00  0.00    +0.028 A 
ATOM     19  C   UNL     1      24.819  -0.661  43.194  0.00  0.00    +0.071 A 
ATOM     20  N   UNL     1      24.986  -1.720  44.082  0.00  0.00    -0.255 NA
ATOM     21  C   UNL     1      23.849  -2.505  44.109  0.00  0.00    +0.115 A 
ENDBRANCH  12  13
ENDBRANCH  11  12
ENDBRANCH  10  11
ENDBRANCH   9  10
ENDBRANCH   8   9
TORSDOF 7
