REMARK  Name = IQP
REMARK  2 active torsions:
REMARK  status: ('A' for Active; 'I' for Inactive)
REMARK    1  A    between atoms: C1_1  and  S_11
REMARK    2  A    between atoms: S_11  and  N1'_14
REMARK                            x       y       z     vdW  Elec       q    Type
REMARK                         _______ _______ _______ _____ _____    ______ ____
ROOT
ATOM      1  C   UNL     1     -14.865  24.260 -26.480  0.00  0.00    +0.122 A 
ATOM      2  C   UNL     1     -15.724  24.972 -25.582  0.00  0.00    +0.022 A 
ATOM      3  C   UNL     1     -16.521  24.196 -24.697  0.00  0.00    +0.021 A 
ATOM      4  C   UNL     1     -17.335  24.903 -23.775  0.00  0.00    +0.099 A 
ATOM      5  N   UNL     1     -17.401  26.229 -23.702  0.00  0.00    -0.242 NA
ATOM      6  C   UNL     1     -16.670  26.937 -24.581  0.00  0.00    +0.099 A 
ATOM      7  C   UNL     1     -16.465  22.780 -24.765  0.00  0.00    +0.002 A 
ATOM      8  C   UNL     1     -15.642  22.155 -25.653  0.00  0.00    +0.001 A 
ATOM      9  C   UNL     1     -15.841  26.382 -25.513  0.00  0.00    +0.022 A 
ATOM     10  C   UNL     1     -14.839  22.893 -26.511  0.00  0.00    +0.020 A 
ENDROOT
BRANCH   1  11
ATOM     11  S   UNL     1     -13.750  25.102 -27.557  0.00  0.00    +0.063 S 
ATOM     12  O   UNL     1     -13.288  26.271 -26.875  0.00  0.00    -0.153 OA
ATOM     20  O   UNL     1     -14.355  25.223 -28.842  0.00  0.00    -0.153 OA
BRANCH  11  13
ATOM     13  N   UNL     1     -12.467  24.103 -27.705  0.00  0.00    -0.154 NA
ATOM     14  C   UNL     1     -11.403  24.072 -26.682  0.00  0.00    +0.115 C 
ATOM     15  C   UNL     1     -10.892  22.652 -26.524  0.00  0.00    +0.108 C 
ATOM     16  N   UNL     1     -10.519  22.094 -27.829  0.00  0.00    -0.215 NA
ATOM     17  C   UNL     1     -11.670  22.019 -28.733  0.00  0.00    +0.106 C 
ATOM     18  C   UNL     1     -12.162  23.427 -29.002  0.00  0.00    +0.097 C 
ATOM     19  C   UNL     1     -11.160  24.252 -29.798  0.00  0.00    +0.021 C 
ENDBRANCH  11  13
ENDBRANCH   1  11
TORSDOF 2
