REMARK  Name = 5TC0
REMARK  6 active torsions:
REMARK  status: ('A' for Active; 'I' for Inactive)
REMARK    1  A    between atoms: C_4  and  C_5
REMARK    2  A    between atoms: C_8  and  N_25
REMARK    3  A    between atoms: C_9  and  C_10
REMARK    4  A    between atoms: C_12  and  S_13
REMARK    5  A    between atoms: S_13  and  N_16
REMARK    6  A    between atoms: C_18  and  C_20
REMARK                            x       y       z     vdW  Elec       q    Type
REMARK                         _______ _______ _______ _____ _____    ______ ____
ROOT
ATOM      9  C   UNL     1      16.442  16.059  14.023  0.00  0.00    +0.028 A 
ATOM     10  C   UNL     1      17.309  15.570  13.027  0.00  0.00    +0.012 A 
ATOM     11  C   UNL     1      18.219  16.413  12.413  0.00  0.00    +0.001 A 
ATOM     12  C   UNL     1      18.278  17.756  12.784  0.00  0.00    +0.002 A 
ATOM     13  C   UNL     1      17.422  18.246  13.774  0.00  0.00    +0.024 A 
ATOM     14  C   UNL     1      16.481  17.414  14.406  0.00  0.00    +0.043 A 
ENDROOT
BRANCH   9   7
ATOM      5  C   UNL     1      13.705  14.456  15.834  0.00  0.00    +0.079 A 
ATOM      6  N   UNL     1      14.402  15.454  15.337  0.00  0.00    -0.241 NA
ATOM      7  C   UNL     1      15.485  15.139  14.673  0.00  0.00    +0.110 A 
ATOM      8  S   UNL     1      15.686  13.398  14.678  0.00  0.00    -0.075 S 
ATOM     25  C   UNL     1      14.191  13.231  15.609  0.00  0.00    +0.073 A 
BRANCH   5   4
ATOM      1  C   UNL     1      10.596  13.807  18.764  0.00  0.00    +0.137 C 
ATOM      2  N   UNL     1      11.798  14.618  19.080  0.00  0.00    -0.176 NA
ATOM      3  C   UNL     1      12.867  14.893  18.086  0.00  0.00    +0.147 C 
ATOM      4  C   UNL     1      12.446  14.684  16.628  0.00  0.00    +0.183 C 
ATOM     26  O   UNL     1      11.582  13.544  16.542  0.00  0.00    -0.368 OA
ATOM     31  C   UNL     1      10.339  13.646  17.260  0.00  0.00    +0.177 C 
BRANCH   2  27
ATOM     27  S   UNL     1      11.999  15.203  20.623  0.00  0.00    +0.029 S 
ATOM     28  O   UNL     1      12.722  16.421  20.545  0.00  0.00    -0.158 OA
ATOM     29  O   UNL     1      10.732  15.150  21.266  0.00  0.00    -0.158 OA
ATOM     30  C   UNL     1      13.116  13.966  21.317  0.00  0.00    +0.214 C 
ENDBRANCH   2  27
ENDBRANCH   5   4
ENDBRANCH   9   7
BRANCH  14  15
ATOM     15  N   UNL     1      15.612  17.811  15.444  0.00  0.00    -0.278 N 
ATOM     16  H   UNL     1      14.842  17.112  15.697  0.00  0.00    +0.155 HD
ATOM     17  C   UNL     1      15.621  18.959  16.164  0.00  0.00    +0.284 C 
ATOM     18  O   UNL     1      16.380  19.881  15.952  0.00  0.00    -0.267 OA
BRANCH  17  19
ATOM     19  C   UNL     1      14.659  19.107  17.258  0.00  0.00    +0.194 A 
ATOM     20  N   UNL     1      14.659  20.125  18.176  0.00  0.00    -0.341 N 
ATOM     21  H   UNL     1      15.339  20.950  18.218  0.00  0.00    +0.167 HD
ATOM     22  C   UNL     1      13.621  19.880  19.026  0.00  0.00    +0.104 A 
ATOM     23  C   UNL     1      13.038  18.719  18.629  0.00  0.00    +0.131 A 
ATOM     24  N   UNL     1      13.689  18.266  17.557  0.00  0.00    -0.232 NA
ENDBRANCH  17  19
ENDBRANCH  14  15
TORSDOF 5
