REMARK  Name = 3tn8_ligand
REMARK  4 active torsions:
REMARK  status: ('A' for Active; 'I' for Inactive)
REMARK    1  A    between atoms: C3_1  and  O3_4
REMARK    2  A    between atoms: C5_5  and  N9_8
REMARK    3  A    between atoms: N13_9  and  C14_10
REMARK    4  A    between atoms: C19_11  and  N16_12
REMARK                            x       y       z     vdW  Elec       q    Type
REMARK                         _______ _______ _______ _____ _____    ______ ____
ROOT
ATOM      7  C   UNL     1      53.662 -14.812 -13.783  0.00  0.00    +0.138 A 
ATOM      8  C   UNL     1      54.284 -13.538 -13.910  0.00  0.00    +0.101 A 
ATOM      9  N   UNL     1      53.660 -12.294 -13.835  0.00  0.00    -0.336 N 
ATOM     10  H   UNL     1      52.654 -12.237 -13.677  0.00  0.00    +0.170 HD
ATOM     11  H   UNL     1      54.209 -11.441 -13.938  0.00  0.00    +0.170 HD
ATOM     12  N   UNL     1      55.562 -13.728 -14.109  0.00  0.00    -0.235 NA
ATOM     13  N   UNL     1      55.825 -15.103 -14.119  0.00  0.00    -0.207 N 
ATOM     14  H   UNL     1      56.740 -15.533 -14.255  0.00  0.00    +0.246 HD
ATOM     15  C   UNL     1      54.666 -15.765 -13.919  0.00  0.00    +0.193 A 
ENDROOT
BRANCH  15  16
ATOM     16  N   UNL     1      54.501 -17.137 -13.855  0.00  0.00    -0.297 N 
ATOM     17  H   UNL     1      55.306 -17.753 -13.968  0.00  0.00    +0.186 HD
ATOM     18  H   UNL     1      53.575 -17.532 -13.695  0.00  0.00    +0.186 HD
ENDBRANCH  15  16
BRANCH   7   6
ATOM      5  N   UNL     1      51.483 -14.111 -13.637  0.00  0.00    -0.223 NA
ATOM      6  N   UNL     1      52.345 -15.070 -13.574  0.00  0.00    -0.217 NA
BRANCH   5   4
ATOM      1  C   UNL     1      47.462 -14.980 -13.260  0.00  0.00    +0.090 A 
ATOM      2  C   UNL     1      48.363 -15.995 -13.548  0.00  0.00    +0.025 A 
ATOM      3  C   UNL     1      49.702 -15.703 -13.673  0.00  0.00    +0.012 A 
ATOM      4  C   UNL     1      50.151 -14.389 -13.514  0.00  0.00    +0.044 A 
ATOM     19  C   UNL     1      49.243 -13.368 -13.223  0.00  0.00    +0.012 A 
ATOM     22  C   UNL     1      47.905 -13.672 -13.096  0.00  0.00    +0.025 A 
BRANCH   1  20
ATOM     20  O   UNL     1      46.140 -15.267 -13.126  0.00  0.00    -0.332 OA
ATOM     21  H   UNL     1      46.002 -16.206 -13.269  0.00  0.00    +0.249 HD
ENDBRANCH   1  20
ENDBRANCH   5   4
ENDBRANCH   7   6
TORSDOF 4
