REMARK  Name = 4dce_ligand
REMARK  12 active torsions:
REMARK  status: ('A' for Active; 'I' for Inactive)
REMARK    1  A    between atoms: C24_1  and  O2_2
REMARK    2  A    between atoms: O2_2  and  C5_3
REMARK    3  A    between atoms: C4_5  and  O3_6
REMARK    4  A    between atoms: O3_6  and  C25_7
REMARK    5  A    between atoms: C3_8  and  O4_9
REMARK    6  A    between atoms: O4_9  and  C26_10
REMARK    7  A    between atoms: C1_12  and  N5_13
REMARK    8  A    between atoms: C13_19  and  N3_20
REMARK    9  A    between atoms: C20_25  and  C22_26
REMARK   10  A    between atoms: N4_28  and  C23_29
REMARK   11  A    between atoms: C23_29  and  C7_30
REMARK   12  A    between atoms: C10_33  and  C27_34
REMARK                            x       y       z     vdW  Elec       q    Type
REMARK                         _______ _______ _______ _____ _____    ______ ____
ROOT
ATOM      8  N   UNL     1      10.126  18.074  39.217  0.00  0.00    -0.255 N 
ATOM      9  H   UNL     1      10.996  17.564  39.065  0.00  0.00    +0.215 HD
ATOM     10  C   UNL     1       9.518  17.852  40.388  0.00  0.00    +0.192 A 
ATOM     11  N   UNL     1      10.082  16.997  41.268  0.00  0.00    -0.270 NA
ATOM     12  C   UNL     1       9.519  16.726  42.439  0.00  0.00    +0.084 A 
ATOM     13  C   UNL     1       8.326  17.346  42.786  0.00  0.00    +0.051 A 
ATOM     14  C   UNL     1       7.761  18.235  41.874  0.00  0.00    +0.117 A 
ATOM     33  N   UNL     1       8.364  18.455  40.698  0.00  0.00    -0.239 NA
ENDROOT
BRANCH   8   7
ATOM      3  C   UNL     1       8.091  19.997  36.793  0.00  0.00    +0.103 A 
ATOM      4  C   UNL     1       9.129  20.587  36.058  0.00  0.00    +0.135 A 
ATOM      5  C   UNL     1      10.460  20.315  36.388  0.00  0.00    +0.103 A 
ATOM      6  C   UNL     1      10.750  19.477  37.463  0.00  0.00    +0.006 A 
ATOM      7  C   UNL     1       9.737  18.885  38.211  0.00  0.00    +0.038 A 
ATOM     38  C   UNL     1       8.403  19.141  37.867  0.00  0.00    +0.006 A 
BRANCH   3   2
ATOM      1  C   UNL     1       5.778  20.063  37.419  0.00  0.00    +0.228 C 
ATOM      2  O   UNL     1       6.792  20.278  36.424  0.00  0.00    -0.331 OA
ENDBRANCH   3   2
BRANCH   5  34
ATOM     34  O   UNL     1      11.479  20.884  35.678  0.00  0.00    -0.331 OA
ATOM     35  C   UNL     1      12.286  19.924  35.005  0.00  0.00    +0.228 C 
ENDBRANCH   5  34
BRANCH   4  36
ATOM     36  O   UNL     1       8.837  21.413  35.005  0.00  0.00    -0.337 OA
ATOM     37  C   UNL     1       8.952  22.819  35.316  0.00  0.00    +0.221 C 
ENDBRANCH   4  36
ENDBRANCH   8   7
BRANCH  14  15
ATOM     15  N   UNL     1       6.555  18.874  42.153  0.00  0.00    -0.287 N 
ATOM     16  C   UNL     1       5.829  19.684  41.144  0.00  0.00    +0.137 C 
ATOM     17  C   UNL     1       4.505  18.945  40.847  0.00  0.00    +0.028 C 
ATOM     18  C   UNL     1       3.767  18.509  42.133  0.00  0.00    +0.029 C 
ATOM     19  C   UNL     1       4.680  17.811  43.163  0.00  0.00    +0.125 C 
ATOM     32  C   UNL     1       5.899  18.689  43.456  0.00  0.00    +0.162 C 
BRANCH  19  20
ATOM     20  C   UNL     1       3.955  17.569  44.473  0.00  0.00    +0.183 C 
ATOM     21  N   UNL     1       3.851  16.284  44.822  0.00  0.00    -0.276 N 
ATOM     22  H   UNL     1       4.239  15.572  44.204  0.00  0.00    +0.188 HD
ATOM     31  O   UNL     1       3.533  18.518  45.135  0.00  0.00    -0.397 OA
BRANCH  21  23
ATOM     23  C   UNL     1       3.194  15.862  46.070  0.00  0.00    +0.195 C 
BRANCH  23  24
ATOM     24  C   UNL     1       3.001  14.355  46.019  0.00  0.00    -0.028 A 
ATOM     25  C   UNL     1       4.106  13.513  46.040  0.00  0.00    -0.011 A 
ATOM     26  C   UNL     1       3.914  12.135  45.983  0.00  0.00    -0.013 A 
ATOM     27  C   UNL     1       2.629  11.606  45.906  0.00  0.00    -0.053 A 
ATOM     28  C   UNL     1       2.425  10.093  45.845  0.00  0.00    +0.079 C 
ATOM     29  C   UNL     1       1.525  12.452  45.888  0.00  0.00    -0.013 A 
ATOM     30  C   UNL     1       1.709  13.835  45.945  0.00  0.00    -0.011 A 
ENDBRANCH  23  24
ENDBRANCH  21  23
ENDBRANCH  19  20
ENDBRANCH  14  15
TORSDOF 8
