REMARK  Name = 3vhe_ligand
REMARK  6 active torsions:
REMARK  status: ('A' for Active; 'I' for Inactive)
REMARK    1  A    between atoms: C5_5  and  O17_11
REMARK    2  A    between atoms: N8_7  and  C11_10
REMARK    3  A    between atoms: O17_11  and  C18_12
REMARK    4  A    between atoms: C21_15  and  N27_18
REMARK    5  A    between atoms: N29_20  and  C30_21
REMARK    6  A    between atoms: C38_27  and  C44_29
REMARK                            x       y       z     vdW  Elec       q    Type
REMARK                         _______ _______ _______ _____ _____    ______ ____
ROOT
ATOM      9  C   UNL     1     -23.289  -1.209 -12.827  0.00  0.00    +0.107 A 
ATOM     10  C   UNL     1     -24.582  -1.169 -13.498  0.00  0.00    +0.045 A 
ATOM     11  C   UNL     1     -25.694  -1.752 -12.858  0.00  0.00    +0.146 A 
ATOM     12  F   UNL     1     -26.909  -1.763 -13.412  0.00  0.00    -0.196 F 
ATOM     13  C   UNL     1     -25.580  -2.378 -11.567  0.00  0.00    +0.092 A 
ATOM     30  C   UNL     1     -24.306  -2.419 -10.889  0.00  0.00    -0.002 A 
ATOM     31  C   UNL     1     -23.163  -1.830 -11.521  0.00  0.00    +0.005 A 
ENDROOT
BRANCH  13  14
ATOM     14  N   UNL     1     -26.679  -2.951 -11.004  0.00  0.00    -0.219 N 
ATOM     15  H   UNL     1     -27.281  -3.514 -11.571  0.00  0.00    +0.222 HD
ATOM     16  C   UNL     1     -26.974  -2.778  -9.705  0.00  0.00    +0.314 C 
ATOM     17  O   UNL     1     -26.322  -2.040  -8.963  0.00  0.00    -0.382 OA
ATOM     18  N   UNL     1     -28.075  -3.503  -9.294  0.00  0.00    -0.209 N 
ATOM     19  H   UNL     1     -28.593  -3.996  -9.993  0.00  0.00    +0.226 HD
BRANCH  18  20
ATOM     20  C   UNL     1     -28.516  -3.597  -7.981  0.00  0.00    +0.096 A 
ATOM     21  C   UNL     1     -28.169  -2.605  -6.988  0.00  0.00    +0.058 A 
ATOM     22  C   UNL     1     -28.700  -2.736  -5.629  0.00  0.00    +0.033 A 
ATOM     27  C   UNL     1     -29.576  -3.865  -5.296  0.00  0.00    +0.029 A 
ATOM     28  C   UNL     1     -29.910  -4.840  -6.285  0.00  0.00    +0.023 A 
ATOM     29  C   UNL     1     -29.382  -4.708  -7.621  0.00  0.00    +0.064 A 
BRANCH  22  23
ATOM     23  C   UNL     1     -28.319  -1.697  -4.540  0.00  0.00    +0.373 C 
ATOM     24  F   UNL     1     -28.828  -2.077  -3.396  0.00  0.00    -0.221 F 
ATOM     25  F   UNL     1     -26.999  -1.649  -4.465  0.00  0.00    -0.221 F 
ATOM     26  F   UNL     1     -28.814  -0.538  -4.904  0.00  0.00    -0.221 F 
ENDBRANCH  22  23
ENDBRANCH  18  20
ENDBRANCH  13  14
BRANCH   9   8
ATOM      8  O   UNL     1     -22.130  -0.760 -13.481  0.00  0.00    -0.241 OA
BRANCH   8   7
ATOM      1  C   UNL     1     -20.678   2.539 -14.185  0.00  0.00    +0.042 A 
ATOM      2  C   UNL     1     -19.354   2.817 -14.513  0.00  0.00    -0.012 A 
ATOM      3  C   UNL     1     -18.696   1.611 -14.509  0.00  0.00    +0.137 A 
ATOM      4  N   UNL     1     -19.529   0.586 -14.197  0.00  0.00    -0.255 N 
ATOM      5  C   UNL     1     -19.169  -0.834 -14.103  0.00  0.00    +0.215 C 
ATOM      6  C   UNL     1     -20.798   1.144 -13.982  0.00  0.00    +0.151 A 
ATOM      7  C   UNL     1     -22.018   0.626 -13.641  0.00  0.00    +0.224 A 
ATOM     32  N   UNL     1     -23.122   1.497 -13.487  0.00  0.00    -0.259 NA
ATOM     33  C   UNL     1     -22.985   2.890 -13.692  0.00  0.00    +0.146 A 
ATOM     34  N   UNL     1     -21.727   3.478 -14.057  0.00  0.00    -0.310 NA
ENDBRANCH   8   7
ENDBRANCH   9   8
TORSDOF 5
