REMARK  Name = 4B7T
REMARK  6 active torsions:
REMARK  status: ('A' for Active; 'I' for Inactive)
REMARK    1  A    between atoms: C_1  and  C_3
REMARK    2  A    between atoms: C_2  and  C_3
REMARK    3  A    between atoms: C_3  and  N_4
REMARK    4  A    between atoms: C_7  and  C_11
REMARK    5  A    between atoms: N_9  and  C_18
REMARK    6  A    between atoms: C_11  and  C_12
REMARK                            x       y       z     vdW  Elec       q    Type
REMARK                         _______ _______ _______ _____ _____    ______ ____
ROOT
ATOM      3  N   UNL     1      -8.815  45.723  -9.842  0.00  0.00    -0.236 N 
ATOM      4  H   UNL     1      -8.454  45.362 -10.782  0.00  0.00    +0.245 HD
ATOM      5  C   UNL     1      -9.743  44.706  -9.328  0.00  0.00    +0.375 C 
ATOM      6  N   UNL     1     -10.938  44.230  -9.992  0.00  0.00    -0.162 N 
ATOM      7  C   UNL     1     -11.427  44.676 -11.283  0.00  0.00    +0.238 C 
ATOM      8  C   UNL     1     -11.550  43.249  -9.159  0.00  0.00    +0.326 C 
ATOM      9  O   UNL     1     -12.577  42.642  -9.416  0.00  0.00    -0.253 OA
ATOM     10  C   UNL     1     -10.725  43.100  -7.943  0.00  0.00    +0.264 C 
ATOM     21  N   UNL     1      -9.628  44.004  -8.070  0.00  0.00    -0.094 NA
ENDROOT
BRANCH   3   2
ATOM      1  C   UNL     1      -6.373  45.528  -9.557  0.00  0.00    +0.045 C 
ATOM      2  C   UNL     1      -7.638  46.112  -9.059  0.00  0.00    +0.130 C 
ATOM     22  C   UNL     1      -7.556  47.587  -8.793  0.00  0.00    +0.045 C 
ENDBRANCH   3   2
BRANCH  10  11
ATOM     11  C   UNL     1     -10.980  42.237  -6.864  0.00  0.00    +0.072 C 
BRANCH  11  12
ATOM     12  C   UNL     1      -9.954  41.861  -5.799  0.00  0.00    -0.009 C 
ATOM     13  C   UNL     1     -10.035  40.620  -5.174  0.00  0.00    +0.007 C 
ATOM     14  C   UNL     1      -9.105  40.265  -4.189  0.00  0.00    +0.037 C 
ATOM     15  C   UNL     1      -8.061  41.178  -3.823  0.00  0.00    +0.140 C 
ATOM     16  O   UNL     1      -7.039  41.082  -2.907  0.00  0.00    -0.334 OA
ATOM     17  C   UNL     1      -6.242  42.192  -3.063  0.00  0.00    +0.309 C 
ATOM     18  O   UNL     1      -6.909  43.067  -3.899  0.00  0.00    -0.334 OA
ATOM     19  C   UNL     1      -7.983  42.382  -4.426  0.00  0.00    +0.140 C 
ATOM     20  C   UNL     1      -8.944  42.747  -5.431  0.00  0.00    +0.041 C 
ENDBRANCH  11  12
ENDBRANCH  10  11
TORSDOF 3
