REMARK  Name = 4eoi_ligand
REMARK  4 active torsions:
REMARK  status: ('A' for Active; 'I' for Inactive)
REMARK    1  A    between atoms: N3_5  and  C18_6
REMARK    2  A    between atoms: C18_6  and  C19_7
REMARK    3  A    between atoms: C12_13  and  C11_14
REMARK    4  A    between atoms: C11_14  and  C1_15
REMARK                            x       y       z     vdW  Elec       q    Type
REMARK                         _______ _______ _______ _____ _____    ______ ____
ROOT
ATOM      1  O   UNL     1      -6.907  22.385 -21.506  0.00  0.00    -0.394 OA
ATOM      2  C   UNL     1      -6.823  21.291 -20.858  0.00  0.00    +0.158 C 
ATOM      3  C   UNL     1      -7.756  20.139 -20.971  0.00  0.00    +0.187 C 
ATOM     15  S   UNL     1      -7.158  18.933 -19.851  0.00  0.00    +0.005 S 
ATOM     16  C   UNL     1      -5.846  20.011 -19.405  0.00  0.00    +0.187 C 
ATOM     17  N   UNL     1      -4.833  19.823 -18.541  0.00  0.00    -0.259 N 
ATOM     18  H   UNL     1      -4.884  19.073 -17.837  0.00  0.00    +0.202 HD
ATOM     25  N   UNL     1      -5.821  21.203 -20.011  0.00  0.00    -0.267 NA
ENDROOT
BRANCH   3   4
ATOM      4  C   UNL     1      -8.951  20.041 -21.865  0.00  0.00    +0.108 C 
BRANCH   4   5
ATOM      5  C   UNL     1      -9.256  21.220 -22.734  0.00  0.00    -0.033 A 
ATOM      6  C   UNL     1      -8.188  21.982 -23.230  0.00  0.00    +0.010 A 
ATOM      7  C   UNL     1      -8.382  23.105 -24.027  0.00  0.00    -0.001 A 
ATOM      8  C   UNL     1      -7.323  23.872 -24.509  0.00  0.00    +0.037 A 
ATOM      9  C   UNL     1      -7.613  24.980 -25.307  0.00  0.00    +0.035 A 
ATOM     10  C   UNL     1      -8.939  25.308 -25.614  0.00  0.00    +0.093 A 
ATOM     11  N   UNL     1      -9.971  24.576 -25.160  0.00  0.00    -0.298 NA
ATOM     12  C   UNL     1      -9.770  23.485 -24.376  0.00  0.00    +0.042 A 
ATOM     13  C   UNL     1     -10.817  22.703 -23.881  0.00  0.00    +0.022 A 
ATOM     14  C   UNL     1     -10.566  21.584 -23.073  0.00  0.00    +0.011 A 
ENDBRANCH   4   5
ENDBRANCH   3   4
BRANCH  17  19
ATOM     19  C   UNL     1      -3.651  20.696 -18.608  0.00  0.00    +0.230 C 
BRANCH  19  20
ATOM     20  C   UNL     1      -3.397  21.406 -19.933  0.00  0.00    +0.036 A 
ATOM     21  S   UNL     1      -2.871  20.459 -21.284  0.00  0.00    -0.042 S 
ATOM     22  C   UNL     1      -2.776  21.778 -22.403  0.00  0.00    +0.040 A 
ATOM     23  C   UNL     1      -3.156  22.922 -21.701  0.00  0.00    -0.056 A 
ATOM     24  C   UNL     1      -3.494  22.733 -20.353  0.00  0.00    -0.052 A 
ENDBRANCH  19  20
ENDBRANCH  17  19
TORSDOF 4
