REMARK  Name = 5DR6
REMARK  3 active torsions:
REMARK  status: ('A' for Active; 'I' for Inactive)
REMARK    1  A    between atoms: C_7  and  C_8
REMARK    2  A    between atoms: C_13  and  C_14
REMARK    3  A    between atoms: C_14  and  O_16
REMARK                            x       y       z     vdW  Elec       q    Type
REMARK                         _______ _______ _______ _____ _____    ______ ____
ROOT
ATOM      5  C   UNL     1      -6.485 -11.095  13.355  0.00  0.00    +0.072 A 
ATOM      6  N   UNL     1      -7.216 -11.268  12.261  0.00  0.00    -0.247 NA
ATOM      7  C   UNL     1      -7.302 -10.218  11.377  0.00  0.00    +0.072 A 
ATOM      8  C   UNL     1      -8.068 -10.428  10.197  0.00  0.00    +0.028 A 
ATOM      9  C   UNL     1      -8.170  -9.427   9.282  0.00  0.00    +0.002 A 
ATOM     10  C   UNL     1      -7.528  -8.184   9.492  0.00  0.00    +0.001 A 
ATOM     11  C   UNL     1      -6.792  -7.959  10.617  0.00  0.00    +0.011 A 
ATOM     12  C   UNL     1      -6.665  -8.980  11.585  0.00  0.00    +0.014 A 
ATOM     13  C   UNL     1      -5.912  -8.845  12.774  0.00  0.00    +0.070 A 
ATOM     18  C   UNL     1      -5.810  -9.878  13.649  0.00  0.00    +0.044 A 
ENDROOT
BRANCH   5   4
ATOM      1 BR   UNL     1      -7.840 -16.081  14.596  0.00  0.00    -0.050 Br
ATOM      2  C   UNL     1      -6.872 -14.449  14.914  0.00  0.00    +0.018 A 
ATOM      3  C   UNL     1      -7.033 -13.418  14.019  0.00  0.00    +0.025 A 
ATOM      4  C   UNL     1      -6.349 -12.234  14.264  0.00  0.00    +0.001 A 
ATOM     19  C   UNL     1      -5.537 -12.131  15.390  0.00  0.00    +0.010 A 
ATOM     20  C   UNL     1      -5.397 -13.195  16.264  0.00  0.00    +0.002 A 
ATOM     21  C   UNL     1      -6.072 -14.380  16.030  0.00  0.00    +0.015 A 
ENDBRANCH   5   4
BRANCH  13  14
ATOM     14  C   UNL     1      -5.238  -7.571  13.099  0.00  0.00    +0.338 C 
ATOM     17  O   UNL     1      -5.172  -7.070  14.200  0.00  0.00    -0.245 OA
BRANCH  14  15
ATOM     15  O   UNL     1      -4.634  -6.884  12.105  0.00  0.00    -0.477 OA
ATOM     16  H   UNL     1      -3.884  -7.479  11.674  0.00  0.00    +0.295 HD
ENDBRANCH  14  15
ENDBRANCH  13  14
TORSDOF 3
