REMARK  Name = 6Q4B
REMARK  0 active torsions:
REMARK  status: ('A' for Active; 'I' for Inactive)
REMARK                            x       y       z     vdW  Elec       q    Type
REMARK                         _______ _______ _______ _____ _____    ______ ____
ROOT
ATOM      1  C   UNL     1       0.146  -5.668 -27.936  0.00  0.00    +0.250 A 
ATOM      2  C   UNL     1      -0.066  -4.296 -27.873  0.00  0.00    +0.000 A 
ATOM      3  C   UNL     1       0.759  -3.493 -28.649  0.00  0.00    +0.250 A 
ATOM      4  N   UNL     1       1.663  -4.063 -29.504  0.00  0.00    -0.760 NA
ATOM      5  C   UNL     1       1.746  -5.384 -29.538  0.00  0.00    +0.630 A 
ATOM      6 BR   UNL     1      -1.335  -3.615 -26.662  0.00  0.00    +0.000 Br
ATOM      7  N   UNL     1       1.022  -6.215 -28.799  0.00  0.00    -0.760 NA
ENDROOT
TORSDOF 0
