REMARK  Name = 5GD
REMARK  7 active torsions:
REMARK  status: ('A' for Active; 'I' for Inactive)
REMARK    1  A    between atoms: C1_4  and  O_22
REMARK    2  A    between atoms: C12_6  and  C13_10
REMARK    3  A    between atoms: C12_6  and  O2_28
REMARK    4  A    between atoms: C11_8  and  O2_28
REMARK    5  A    between atoms: C13_10  and  N2_29
REMARK    6  A    between atoms: C21_14  and  O3_20
REMARK    7  A    between atoms: C6_25  and  C7_27
REMARK                            x       y       z     vdW  Elec       q    Type
REMARK                         _______ _______ _______ _____ _____    ______ ____
ROOT
ATOM      4  C   UNL     1      18.483  14.380  -4.962  0.00  0.00    +0.035 A 
ATOM      5  C   UNL     1      18.672  14.209  -3.556  0.00  0.00    +0.002 A 
ATOM      6  C   UNL     1      17.553  14.253  -2.752  0.00  0.00    +0.012 A 
ATOM      7  C   UNL     1      17.863  14.154  -1.241  0.00  0.00    +0.034 C 
ATOM      8  C   UNL     1      16.282  14.424  -3.287  0.00  0.00    +0.131 A 
ATOM     17  C   UNL     1      16.072  14.538  -4.690  0.00  0.00    +0.012 A 
ATOM     18  C   UNL     1      14.719  14.605  -5.311  0.00  0.00    +0.034 C 
ATOM     19  C   UNL     1      17.218  14.472  -5.462  0.00  0.00    +0.002 A 
ENDROOT
BRANCH   4   3
ATOM      1  C   UNL     1      22.043  14.350  -5.977  0.00  0.00    +0.094 A 
ATOM      2  N   UNL     1      20.911  14.476  -5.271  0.00  0.00    -0.226 NA
ATOM      3  C   UNL     1      19.707  14.298  -5.788  0.00  0.00    +0.165 C 
ATOM     20  N   UNL     1      19.600  13.961  -7.128  0.00  0.00    -0.189 NA
ATOM     21  C   UNL     1      20.708  13.866  -7.920  0.00  0.00    +0.285 C 
ATOM     22  O   UNL     1      20.519  13.470  -9.106  0.00  0.00    -0.265 OA
ATOM     23  C   UNL     1      23.279  14.559  -5.402  0.00  0.00    +0.056 A 
ATOM     24  C   UNL     1      24.459  14.483  -6.073  0.00  0.00    +0.143 A 
ATOM     27  C   UNL     1      24.434  14.183  -7.451  0.00  0.00    +0.074 A 
ATOM     28  C   UNL     1      23.197  14.015  -8.057  0.00  0.00    +0.148 A 
ATOM     31  C   UNL     1      22.040  14.038  -7.369  0.00  0.00    +0.110 A 
BRANCH  24  25
ATOM     25  O   UNL     1      25.720  14.613  -5.632  0.00  0.00    -0.471 OA
ATOM     26  C   UNL     1      25.852  14.891  -4.219  0.00  0.00    +0.253 C 
ENDBRANCH  24  25
BRANCH  28  29
ATOM     29  O   UNL     1      23.184  13.794  -9.455  0.00  0.00    -0.471 OA
ATOM     30  C   UNL     1      24.412  14.021 -10.214  0.00  0.00    +0.253 C 
ENDBRANCH  28  29
ENDBRANCH   4   3
BRANCH   8   9
ATOM      9  O   UNL     1      15.162  14.431  -2.492  0.00  0.00    -0.475 OA
BRANCH   9  10
ATOM     10  C   UNL     1      14.668  13.130  -2.152  0.00  0.00    +0.223 C 
BRANCH  10  11
ATOM     11  C   UNL     1      13.810  13.291  -0.876  0.00  0.00    +0.120 C 
BRANCH  11  12
ATOM     12  N   UNL     1      13.030  14.514  -1.023  0.00  0.00    -0.270 NA
ATOM     13  C   UNL     1      12.261  14.794   0.210  0.00  0.00    +0.072 C 
ATOM     14  C   UNL     1      10.905  14.189  -0.129  0.00  0.00    +0.019 C 
ATOM     15  C   UNL     1      10.685  14.515  -1.591  0.00  0.00    +0.019 C 
ATOM     16  C   UNL     1      12.085  14.363  -2.163  0.00  0.00    +0.072 C 
ENDBRANCH  11  12
ENDBRANCH  10  11
ENDBRANCH   9  10
ENDBRANCH   8   9
TORSDOF 7
