REMARK  Name = 5TT7
REMARK  4 active torsions:
REMARK  status: ('A' for Active; 'I' for Inactive)
REMARK    1  A    between atoms: C_3  and  N_13
REMARK    2  A    between atoms: C_10  and  C_11
REMARK    3  A    between atoms: N_15  and  C_16
REMARK    4  A    between atoms: C_19  and  N_20
REMARK                            x       y       z     vdW  Elec       q    Type
REMARK                         _______ _______ _______ _____ _____    ______ ____
ROOT
ATOM      7  N   UNL     1      -1.857   0.455  14.530  0.00  0.00    -0.299 N 
ATOM      8  H   UNL     1      -2.322   1.249  15.076  0.00  0.00    +0.154 HD
ATOM      9  C   UNL     1      -2.705  -0.587  14.185  0.00  0.00    +0.141 A 
ATOM     10  C   UNL     1      -4.043  -0.513  14.626  0.00  0.00    +0.100 A 
ATOM     11  C   UNL     1      -4.734   0.461  15.458  0.00  0.00    +0.250 C 
ATOM     12  O   UNL     1      -4.201   1.458  15.924  0.00  0.00    -0.270 OA
ATOM     13  N   UNL     1      -5.998   0.059  15.673  0.00  0.00    -0.306 N 
ATOM     14  H   UNL     1      -6.717   0.572  16.277  0.00  0.00    +0.149 HD
ATOM     15  C   UNL     1      -6.238  -1.202  14.944  0.00  0.00    +0.161 C 
ATOM     16  C   UNL     1      -4.927  -1.564  14.300  0.00  0.00    +0.077 A 
ATOM     17  N   UNL     1      -4.496  -2.587  13.572  0.00  0.00    -0.217 NA
ATOM     18  C   UNL     1      -3.227  -2.625  13.149  0.00  0.00    +0.217 A 
ATOM     19  N   UNL     1      -2.812  -3.706  12.392  0.00  0.00    -0.309 N 
ATOM     20  H   UNL     1      -3.525  -4.444  12.088  0.00  0.00    +0.149 HD
ATOM     30  N   UNL     1      -2.362  -1.644  13.446  0.00  0.00    -0.199 NA
ENDROOT
BRANCH   7   6
ATOM      1  C   UNL     1       1.650   0.092  13.242  0.00  0.00    +0.002 A 
ATOM      2  C   UNL     1       2.240   1.174  13.894  0.00  0.00    +0.003 A 
ATOM      3  C   UNL     1       1.474   1.985  14.733  0.00  0.00    -0.049 A 
ATOM      4  C   UNL     1       2.098   3.169  15.438  0.00  0.00    +0.044 C 
ATOM      5  C   UNL     1       0.124   1.721  14.917  0.00  0.00    +0.026 A 
ATOM      6  C   UNL     1      -0.484   0.637  14.279  0.00  0.00    +0.033 A 
ATOM     31  C   UNL     1       0.293  -0.174  13.432  0.00  0.00    +0.023 A 
ENDBRANCH   7   6
BRANCH  19  21
ATOM     21  C   UNL     1      -1.398  -3.853  12.000  0.00  0.00    +0.090 C 
ATOM     22  C   UNL     1      -0.585  -4.458  13.170  0.00  0.00    +0.071 C 
ATOM     26  C   UNL     1       0.894  -4.631  12.758  0.00  0.00    +0.020 C 
ATOM     27  C   UNL     1       1.029  -5.405  11.432  0.00  0.00    +0.002 C 
ATOM     28  C   UNL     1       0.218  -4.732  10.311  0.00  0.00    +0.002 C 
ATOM     29  C   UNL     1      -1.273  -4.683  10.709  0.00  0.00    +0.024 C 
BRANCH  22  23
ATOM     23  N   UNL     1      -1.131  -5.763  13.608  0.00  0.00    -0.326 NA
ATOM     24  H   UNL     1      -1.065  -6.466  12.804  0.00  0.00    +0.118 HD
ATOM     25  H   UNL     1      -0.568  -6.123  14.444  0.00  0.00    +0.118 HD
ENDBRANCH  22  23
ENDBRANCH  19  21
TORSDOF 3
