REMARK  Name = E0B
REMARK  5 active torsions:
REMARK  status: ('A' for Active; 'I' for Inactive)
REMARK    1  A    between atoms: CAU_9  and  CAT_10
REMARK    2  A    between atoms: CAT_10  and  NAS_11
REMARK    3  A    between atoms: NAS_11  and  SAP_12
REMARK    4  A    between atoms: SAP_12  and  CAC_15
REMARK    5  A    between atoms: NAK_27  and  CAN_28
REMARK                            x       y       z     vdW  Elec       q    Type
REMARK                         _______ _______ _______ _____ _____    ______ ____
ROOT
ATOM      6  C   UNL     1       5.326  10.415   2.071  0.00  0.00    +0.124 A 
ATOM      7  C   UNL     1       4.071  10.132   2.656  0.00  0.00    +0.020 A 
ATOM      8  C   UNL     1       4.072   9.332   3.742  0.00  0.00    +0.022 A 
ATOM      9  C   UNL     1       2.979   8.942   4.427  0.00  0.00    +0.058 A 
ATOM     10  C   UNL     1       3.443   8.111   5.425  0.00  0.00    +0.261 A 
ATOM     11  O   UNL     1       2.778   7.411   6.221  0.00  0.00    -0.267 OA
ATOM     12  N   UNL     1       4.767   8.039   5.364  0.00  0.00    -0.295 N 
ATOM     15  C   UNL     1       1.762   9.367   3.987  0.00  0.00    +0.005 A 
ATOM     16  C   UNL     1       1.653  10.216   2.873  0.00  0.00    +0.000 A 
ATOM     17  C   UNL     1       5.168   8.802   4.332  0.00  0.00    +0.063 A 
ATOM     18  C   UNL     1       6.382   9.049   3.776  0.00  0.00    +0.019 A 
ATOM     19  C   UNL     1       2.814  10.606   2.178  0.00  0.00    +0.001 A 
ATOM     20  C   UNL     1       6.446   9.857   2.648  0.00  0.00    +0.021 A 
ENDROOT
BRANCH   6   5
ATOM      5  S   UNL     1       5.554  11.418   0.608  0.00  0.00    +0.077 S 
ATOM     21  O   UNL     1       4.876  12.733   0.827  0.00  0.00    -0.152 OA
ATOM     22  O   UNL     1       6.997  11.435   0.252  0.00  0.00    -0.152 OA
BRANCH   5   4
ATOM      4  N   UNL     1       4.726  10.711  -0.601  0.00  0.00    -0.078 NA
BRANCH   4   3
ATOM      3  C   UNL     1       5.084   9.291  -0.907  0.00  0.00    +0.116 C 
BRANCH   3   2
ATOM      1  C   UNL     1       5.732   9.690  -3.353  0.00  0.00    +0.023 C 
ATOM      2  C   UNL     1       4.791   8.953  -2.365  0.00  0.00    +0.023 C 
ATOM     23  C   UNL     1       4.969   7.435  -2.536  0.00  0.00    +0.023 C 
ATOM     24  C   UNL     1       4.683   7.116  -3.977  0.00  0.00    +0.093 C 
ATOM     25  N   UNL     1       5.636   7.851  -4.864  0.00  0.00    -0.280 N 
ATOM     26  C   UNL     1       6.685   7.303  -5.525  0.00  0.00    +0.226 C 
ATOM     27  C   UNL     1       6.879   5.780  -5.529  0.00  0.00    +0.095 C 
ATOM     28  O   UNL     1       7.483   7.956  -6.200  0.00  0.00    -0.275 OA
ATOM     29  C   UNL     1       5.380   9.322  -4.776  0.00  0.00    +0.093 C 
ENDBRANCH   3   2
ENDBRANCH   4   3
ENDBRANCH   5   4
ENDBRANCH   6   5
BRANCH  12  13
ATOM     13  C   UNL     1       5.645   7.248   6.237  0.00  0.00    +0.109 C 
ATOM     14  C   UNL     1       5.853   5.837   5.652  0.00  0.00    +0.027 C 
ENDBRANCH  12  13
TORSDOF 5
