REMARK  Name = 4jq8_ligand
REMARK  12 active torsions:
REMARK  status: ('A' for Active; 'I' for Inactive)
REMARK    1  A    between atoms: C35_1  and  N32_2
REMARK    2  A    between atoms: N32_2  and  C34_3
REMARK    3  A    between atoms: N32_2  and  C31_4
REMARK    4  A    between atoms: C31_4  and  C30_5
REMARK    5  A    between atoms: C30_5  and  C29_6
REMARK    6  A    between atoms: N28_8  and  C26_9
REMARK    7  A    between atoms: C16_14  and  C1_15
REMARK    8  A    between atoms: C2_17  and  C10_18
REMARK    9  A    between atoms: N_30  and  CA_31
REMARK   10  A    between atoms: CA_31  and  C_32
REMARK   11  A    between atoms: CA_31  and  C17_34
REMARK   12  A    between atoms: C_32  and  O_33
REMARK                            x       y       z     vdW  Elec       q    Type
REMARK                         _______ _______ _______ _____ _____    ______ ____
ROOT
ATOM     14  C   UNL     1     146.961 125.393 199.220  0.00  0.00    +0.018 A 
ATOM     15  C   UNL     1     146.394 126.580 199.548  0.00  0.00    +0.143 A 
ATOM     16  O   UNL     1     145.629 126.414 200.627  0.00  0.00    -0.228 OA
ATOM     17  C   UNL     1     145.691 125.124 200.976  0.00  0.00    +0.201 A 
ATOM     18  N   UNL     1     145.071 124.516 201.998  0.00  0.00    -0.262 NA
ATOM     19  C   UNL     1     145.277 123.154 202.202  0.00  0.00    +0.155 A 
ATOM     20  N   UNL     1     146.115 122.472 201.334  0.00  0.00    -0.269 NA
ATOM     21  C   UNL     1     146.709 123.124 200.313  0.00  0.00    +0.128 A 
ATOM     22  N   UNL     1     147.482 122.416 199.448  0.00  0.00    -0.284 N 
ATOM     23  H   UNL     1     147.853 122.900 198.618  0.00  0.00    +0.190 HD
ATOM     40  C   UNL     1     146.509 124.460 200.116  0.00  0.00    +0.075 A 
ENDROOT
BRANCH  14  13
ATOM      9  C   UNL     1     149.949 124.232 197.334  0.00  0.00    +0.062 A 
ATOM     10  C   UNL     1     149.538 124.523 196.021  0.00  0.00    +0.002 A 
ATOM     11  C   UNL     1     148.285 125.094 195.796  0.00  0.00    -0.022 A 
ATOM     12  C   UNL     1     147.419 125.387 196.850  0.00  0.00    -0.030 A 
ATOM     13  C   UNL     1     147.797 125.130 198.174  0.00  0.00    -0.045 A 
ATOM     41  C   UNL     1     149.061 124.551 198.382  0.00  0.00    +0.004 A 
BRANCH   9   7
ATOM      6  C   UNL     1     152.164 123.567 196.771  0.00  0.00    +0.208 C 
ATOM      7  N   UNL     1     151.145 123.663 197.674  0.00  0.00    -0.235 N 
ATOM      8  H   UNL     1     151.275 123.311 198.601  0.00  0.00    +0.225 HD
ATOM     42  O   UNL     1     152.111 124.038 195.644  0.00  0.00    -0.385 OA
BRANCH   6   5
ATOM      5  C   UNL     1     153.499 122.941 197.277  0.00  0.00    +0.195 C 
BRANCH   5   4
ATOM      4  C   UNL     1     154.133 122.135 196.147  0.00  0.00    +0.153 C 
BRANCH   4   2
ATOM      1  C   UNL     1     155.673 120.192 196.261  0.00  0.00    +0.190 C 
ATOM      2  N   UNL     1     154.333 120.733 196.565  0.00  0.00    +0.233 N 
ATOM      3  H   UNL     1     154.252 120.738 197.570  0.00  0.00    +0.203 HD
ATOM     43  C   UNL     1     153.294 119.809 196.069  0.00  0.00    +0.190 C 
ENDBRANCH   4   2
ENDBRANCH   5   4
ENDBRANCH   6   5
ENDBRANCH   9   7
ENDBRANCH  14  13
BRANCH  15  34
ATOM     34  C   UNL     1     146.528 127.805 199.040  0.00  0.00    +0.019 A 
ATOM     35  C   UNL     1     145.656 128.796 199.520  0.00  0.00    +0.011 A 
ATOM     36  C   UNL     1     145.764 130.109 199.080  0.00  0.00    +0.000 A 
ATOM     37  C   UNL     1     146.754 130.447 198.167  0.00  0.00    -0.001 A 
ATOM     38  C   UNL     1     147.644 129.483 197.704  0.00  0.00    +0.000 A 
ATOM     39  C   UNL     1     147.552 128.170 198.152  0.00  0.00    +0.011 A 
ENDBRANCH  15  34
BRANCH  22  24
ATOM     24  CA  UNL     1     147.822 120.976 199.637  0.00  0.00    +0.173 C 
BRANCH  24  25
ATOM     25  C   UNL     1     146.688 120.104 199.613  0.00  0.00    -0.015 A 
ATOM     26  C   UNL     1     146.818 118.791 200.075  0.00  0.00    -0.002 A 
ATOM     27  C   UNL     1     145.742 117.903 200.066  0.00  0.00    -0.009 A 
ATOM     28  C   UNL     1     144.499 118.309 199.609  0.00  0.00    -0.013 A 
ATOM     29  C   UNL     1     144.350 119.611 199.149  0.00  0.00    -0.009 A 
ATOM     30  C   UNL     1     145.433 120.496 199.144  0.00  0.00    -0.002 A 
ENDBRANCH  24  25
BRANCH  24  31
ATOM     31  C   UNL     1     148.777 120.507 198.566  0.00  0.00    +0.198 C 
BRANCH  31  32
ATOM     32  O   UNL     1     150.070 121.046 198.807  0.00  0.00    -0.391 OA
ATOM     33  H   UNL     1     150.667 120.748 198.131  0.00  0.00    +0.210 HD
ENDBRANCH  31  32
ENDBRANCH  24  31
ENDBRANCH  22  24
TORSDOF 10
