REMARK  Name = B0N
REMARK  3 active torsions:
REMARK  status: ('A' for Active; 'I' for Inactive)
REMARK    1  A    between atoms: C4_1  and  C5_3
REMARK    2  A    between atoms: C5_3  and  C6_4
REMARK    3  A    between atoms: C11_5  and  C10_9
REMARK                            x       y       z     vdW  Elec       q    Type
REMARK                         _______ _______ _______ _____ _____    ______ ____
ROOT
ATOM      1  C   UNL     1      22.727  54.527  -1.085  0.00  0.00    -0.016 A 
ATOM      2  C   UNL     1      22.795  53.587  -0.057  0.00  0.00    +0.016 A 
ATOM      3  C   UNL     1      21.607  53.022   0.372  0.00  0.00    +0.099 A 
ATOM      4  N   UNL     1      21.328  52.033   1.265  0.00  0.00    -0.230 N 
ATOM      5  C   UNL     1      22.252  51.308   2.128  0.00  0.00    +0.156 C 
ATOM      6  N   UNL     1      19.994  51.772   1.276  0.00  0.00    -0.064 NA
ATOM      7  N   UNL     1      19.413  52.576   0.427  0.00  0.00    -0.129 NA
ATOM      8  C   UNL     1      20.378  53.367  -0.154  0.00  0.00    +0.122 A 
ATOM      9  C   UNL     1      20.302  54.339  -1.144  0.00  0.00    +0.022 A 
ATOM     10  C   UNL     1      21.484  54.903  -1.601  0.00  0.00    -0.002 A 
ENDROOT
BRANCH   1  11
ATOM     11  C   UNL     1      24.002  55.042  -1.715  0.00  0.00    +0.053 C 
BRANCH  11  12
ATOM     12  C   UNL     1      24.295  54.286  -2.994  0.00  0.00    -0.018 A 
ATOM     13  C   UNL     1      25.180  53.220  -2.998  0.00  0.00    -0.004 A 
ATOM     14  C   UNL     1      25.309  52.416  -4.116  0.00  0.00    -0.001 A 
ATOM     15  C   UNL     1      24.561  52.678  -5.250  0.00  0.00    -0.002 A 
ATOM     16  C   UNL     1      23.681  53.748  -5.281  0.00  0.00    +0.010 A 
ATOM     19  C   UNL     1      23.574  54.555  -4.152  0.00  0.00    -0.006 A 
BRANCH  16  17
ATOM     17  C   UNL     1      22.804  53.990  -6.484  0.00  0.00    +0.209 C 
ATOM     18  O   UNL     1      21.686  53.105  -6.533  0.00  0.00    -0.215 OA
ENDBRANCH  16  17
ENDBRANCH  11  12
ENDBRANCH   1  11
TORSDOF 3
