REMARK  Name = 4ebw_ligand
REMARK  6 active torsions:
REMARK  status: ('A' for Active; 'I' for Inactive)
REMARK    1  A    between atoms: C1_1  and  C2_2
REMARK    2  A    between atoms: C2_2  and  C3_3
REMARK    3  A    between atoms: C6_6  and  C9_9
REMARK    4  A    between atoms: N13_13  and  C14_14
REMARK    5  A    between atoms: N21_21  and  C22_22
REMARK    6  A    between atoms: C22_22  and  C23_23
REMARK                            x       y       z     vdW  Elec       q    Type
REMARK                         _______ _______ _______ _____ _____    ______ ____
ROOT
ATOM      7  C   UNL     1       9.765   4.110  20.863  0.00  0.00    -0.036 A 
ATOM      8  C   UNL     1       9.532   3.907  22.210  0.00  0.00    +0.000 A 
ATOM      9  C   UNL     1       9.036   2.690  22.669  0.00  0.00    +0.033 A 
ATOM     10  C   UNL     1       8.837   2.515  24.127  0.00  0.00    +0.109 A 
ATOM     11  N   UNL     1       8.853   3.393  25.166  0.00  0.00    -0.205 N 
ATOM     14  N   UNL     1       8.643   2.632  26.333  0.00  0.00    -0.221 NA
ATOM     15  C   UNL     1       8.526   1.362  26.031  0.00  0.00    +0.085 A 
ATOM     16  C   UNL     1       8.648   1.258  24.674  0.00  0.00    +0.129 A 
ATOM     17  S   UNL     1       8.597  -0.175  23.651  0.00  0.00    +0.081 S 
ATOM     18  O   UNL     1       9.923  -0.686  23.616  0.00  0.00    -0.149 OA
ATOM     19  O   UNL     1       7.444  -0.919  24.018  0.00  0.00    -0.149 OA
ATOM     20  N   UNL     1       8.290   0.399  22.133  0.00  0.00    -0.175 N 
ATOM     21  C   UNL     1       7.458  -0.427  21.241  0.00  0.00    +0.205 C 
ATOM     22  C   UNL     1       8.794   1.650  21.753  0.00  0.00    +0.083 A 
ATOM     23  C   UNL     1       9.040   1.875  20.395  0.00  0.00    +0.009 A 
ATOM     24  C   UNL     1       9.511   3.082  19.951  0.00  0.00    -0.010 A 
ENDROOT
BRANCH   7   6
ATOM      3  C   UNL     1      11.187   7.888  19.519  0.00  0.00    -0.045 A 
ATOM      4  C   UNL     1      11.702   7.333  20.689  0.00  0.00    -0.006 A 
ATOM      5  C   UNL     1      11.252   6.109  21.139  0.00  0.00    -0.005 A 
ATOM      6  C   UNL     1      10.276   5.425  20.405  0.00  0.00    -0.034 A 
ATOM     25  C   UNL     1       9.762   5.982  19.231  0.00  0.00    -0.005 A 
ATOM     26  C   UNL     1      10.214   7.208  18.796  0.00  0.00    -0.006 A 
BRANCH   3   2
ATOM      1  C   UNL     1      13.075   9.125  18.422  0.00  0.00    +0.020 C 
ATOM      2  C   UNL     1      11.667   9.237  19.012  0.00  0.00    +0.062 C 
ENDBRANCH   3   2
ENDBRANCH   7   6
BRANCH  11  12
ATOM     12  C   UNL     1       9.011   4.862  25.128  0.00  0.00    +0.191 C 
ATOM     13  C   UNL     1      10.466   5.269  25.370  0.00  0.00    +0.041 C 
ENDBRANCH  11  12
TORSDOF 3
