REMARK  Name = 4C59
REMARK  7 active torsions:
REMARK  status: ('A' for Active; 'I' for Inactive)
REMARK    1  A    between atoms: N_20  and  O_21
REMARK    2  A    between atoms: O_21  and  C_22
REMARK    3  A    between atoms: C_22  and  C_23
REMARK    4  A    between atoms: C_23  and  C_24
REMARK    5  A    between atoms: C_24  and  O_25
REMARK    6  A    between atoms: C_24  and  C_26
REMARK    7  A    between atoms: C_26  and  O_27
REMARK                            x       y       z     vdW  Elec       q    Type
REMARK                         _______ _______ _______ _____ _____    ______ ____
ROOT
ATOM      1  O   UNL     1      28.016  24.188 -57.030  0.00  0.00    -0.270 OA
ATOM      2  C   UNL     1      27.169  23.737 -56.251  0.00  0.00    +0.251 C 
ATOM      3  N   UNL     1      26.366  24.462 -55.427  0.00  0.00    -0.281 N 
ATOM      4  H   UNL     1      26.377  25.530 -55.362  0.00  0.00    +0.155 HD
ATOM      5  C   UNL     1      25.525  23.636 -54.676  0.00  0.00    +0.042 A 
ATOM      6  C   UNL     1      24.554  23.976 -53.734  0.00  0.00    +0.024 A 
ATOM      7  C   UNL     1      23.840  22.954 -53.121  0.00  0.00    +0.002 A 
ATOM      8  C   UNL     1      24.092  21.626 -53.439  0.00  0.00    +0.001 A 
ATOM      9  C   UNL     1      25.056  21.293 -54.381  0.00  0.00    +0.010 A 
ATOM     10  C   UNL     1      25.787  22.294 -55.014  0.00  0.00    +0.010 A 
ATOM     11  C   UNL     1      26.825  22.310 -56.025  0.00  0.00    +0.069 C 
ATOM     12  C   UNL     1      27.391  21.226 -56.723  0.00  0.00    +0.074 C 
ATOM     13  N   UNL     1      28.305  21.351 -57.749  0.00  0.00    -0.312 N 
ATOM     14  H   UNL     1      28.686  22.281 -58.117  0.00  0.00    +0.152 HD
ATOM     15  C   UNL     1      28.661  20.098 -58.238  0.00  0.00    +0.041 A 
ATOM     16  C   UNL     1      29.515  19.776 -59.289  0.00  0.00    +0.024 A 
ATOM     17  C   UNL     1      29.681  18.438 -59.617  0.00  0.00    +0.002 A 
ATOM     18  C   UNL     1      29.013  17.442 -58.907  0.00  0.00    +0.001 A 
ATOM     19  C   UNL     1      28.163  17.767 -57.856  0.00  0.00    +0.012 A 
ATOM     20  C   UNL     1      27.972  19.104 -57.509  0.00  0.00    +0.026 A 
ATOM     21  C   UNL     1      27.142  19.802 -56.514  0.00  0.00    +0.133 C 
ATOM     22  N   UNL     1      26.357  19.375 -55.586  0.00  0.00    -0.083 NA
ENDROOT
BRANCH  22  23
ATOM     23  O   UNL     1      26.274  17.964 -55.479  0.00  0.00    -0.393 OA
BRANCH  23  24
ATOM     24  C   UNL     1      25.372  17.640 -54.415  0.00  0.00    +0.265 C 
BRANCH  24  25
ATOM     25  C   UNL     1      25.880  16.383 -53.758  0.00  0.00    +0.077 C 
BRANCH  25  26
ATOM     26  C   UNL     1      26.256  16.635 -52.307  0.00  0.00    +0.143 C 
BRANCH  26  30
ATOM     30  O   UNL     1      25.165  17.282 -51.645  0.00  0.00    -0.389 OA
ATOM     31  H   UNL     1      24.959  18.196 -52.120  0.00  0.00    +0.210 HD
ENDBRANCH  26  30
BRANCH  26  27
ATOM     27  C   UNL     1      26.578  15.325 -51.628  0.00  0.00    +0.187 C 
BRANCH  27  28
ATOM     28  O   UNL     1      25.819  15.181 -50.438  0.00  0.00    -0.393 OA
ATOM     29  H   UNL     1      26.044  15.969 -49.781  0.00  0.00    +0.209 HD
ENDBRANCH  27  28
ENDBRANCH  26  27
ENDBRANCH  25  26
ENDBRANCH  24  25
ENDBRANCH  23  24
ENDBRANCH  22  23
TORSDOF 7
