REMARK  Name = 5FBR
REMARK  13 active torsions:
REMARK  status: ('A' for Active; 'I' for Inactive)
REMARK    1  A    between atoms: C_1  and  O_30
REMARK    2  A    between atoms: C_2  and  C_3
REMARK    3  A    between atoms: N_7  and  C_11
REMARK    4  A    between atoms: C_8  and  C_9
REMARK    5  A    between atoms: C_10  and  O_30
REMARK    6  A    between atoms: C_17  and  N_35
REMARK    7  A    between atoms: C_18  and  S_26
REMARK    8  A    between atoms: C_20  and  N_29
REMARK    9  A    between atoms: C_22  and  C_23
REMARK   10  A    between atoms: C_22  and  N_36
REMARK   11  A    between atoms: C_23  and  N_35
REMARK   12  A    between atoms: C_24  and  C_25
REMARK   13  A    between atoms: S_26  and  N_29
REMARK                            x       y       z     vdW  Elec       q    Type
REMARK                         _______ _______ _______ _____ _____    ______ ____
ROOT
ATOM      3  C   UNL     1       6.875 -12.435  35.924  0.00  0.00    +0.146 A 
ATOM      4  C   UNL     1       6.167 -11.788  36.924  0.00  0.00    +0.147 A 
ATOM     19  C   UNL     1       4.827 -12.104  37.135  0.00  0.00    +0.042 A 
ATOM     20  C   UNL     1       4.190 -13.071  36.360  0.00  0.00    +0.004 A 
ATOM     21  C   UNL     1       4.908 -13.713  35.357  0.00  0.00    +0.014 A 
ATOM     42  C   UNL     1       6.245 -13.396  35.141  0.00  0.00    +0.048 A 
ENDROOT
BRANCH  20  22
ATOM     22  C   UNL     1       2.750 -13.422  36.576  0.00  0.00    +0.096 A 
ATOM     23  N   UNL     1       2.318 -13.601  37.824  0.00  0.00    -0.209 N 
ATOM     24  N   UNL     1       3.053 -13.490  39.016  0.00  0.00    -0.153 NA
ATOM     25  C   UNL     1       2.448 -13.700  40.213  0.00  0.00    +0.152 A 
ATOM     26 CL   UNL     1       3.384 -13.559  41.745  0.00  0.00    -0.060 Cl
ATOM     27  C   UNL     1       1.095 -14.030  40.273  0.00  0.00    +0.068 A 
ATOM     28  C   UNL     1       0.345 -14.144  39.108  0.00  0.00    +0.075 A 
ATOM     38  C   UNL     1       1.016 -13.912  37.799  0.00  0.00    +0.176 A 
ATOM     39  N   UNL     1       0.566 -13.950  36.516  0.00  0.00    -0.229 NA
ATOM     40  C   UNL     1       1.590 -13.657  35.684  0.00  0.00    +0.067 A 
ATOM     41  C   UNL     1       1.543 -13.585  34.180  0.00  0.00    +0.068 C 
BRANCH  28  29
ATOM     29  N   UNL     1      -0.965 -14.464  39.174  0.00  0.00    -0.339 N 
ATOM     30  H   UNL     1      -1.421 -15.027  38.386  0.00  0.00    +0.146 HD
BRANCH  29  31
ATOM     31  C   UNL     1      -1.751 -14.042  40.315  0.00  0.00    +0.120 C 
BRANCH  31  32
ATOM     32  C   UNL     1      -2.586 -12.804  40.014  0.00  0.00    +0.123 C 
BRANCH  32  33
ATOM     33  N   UNL     1      -3.697 -12.685  40.937  0.00  0.00    -0.314 N 
ATOM     34  H   UNL     1      -3.559 -12.956  41.963  0.00  0.00    +0.149 HD
ATOM     35  C   UNL     1      -4.884 -12.246  40.533  0.00  0.00    +0.210 C 
ATOM     36  O   UNL     1      -5.011 -11.555  39.533  0.00  0.00    -0.276 OA
ATOM     37  C   UNL     1      -6.051 -12.665  41.382  0.00  0.00    +0.109 C 
ENDBRANCH  32  33
ENDBRANCH  31  32
ENDBRANCH  29  31
ENDBRANCH  28  29
ENDBRANCH  20  22
BRANCH   4   5
ATOM      5  S   UNL     1       6.883 -10.684  37.836  0.00  0.00    +0.062 S 
ATOM     17  O   UNL     1       7.332  -9.597  37.010  0.00  0.00    -0.153 OA
ATOM     18  O   UNL     1       5.954 -10.179  38.806  0.00  0.00    -0.153 OA
BRANCH   5   6
ATOM      6  N   UNL     1       8.146 -11.340  38.602  0.00  0.00    -0.187 NA
ATOM      7  H   UNL     1       8.844 -11.712  37.881  0.00  0.00    +0.148 HD
BRANCH   6   8
ATOM      8  C   UNL     1       7.689 -12.453  39.462  0.00  0.00    +0.077 C 
ATOM      9  C   UNL     1       8.798 -13.488  39.620  0.00  0.00    +0.022 C 
ATOM     10  C   UNL     1       8.349 -14.631  40.525  0.00  0.00    +0.020 C 
ATOM     11  C   UNL     1       7.933 -14.122  41.902  0.00  0.00    +0.051 C 
ATOM     12  C   UNL     1       6.844 -13.068  41.746  0.00  0.00    +0.020 C 
ATOM     16  C   UNL     1       7.302 -11.929  40.841  0.00  0.00    +0.022 C 
BRANCH  11  13
ATOM     13  N   UNL     1       7.426 -15.246  42.736  0.00  0.00    -0.327 NA
ATOM     14  H   UNL     1       7.148 -14.877  43.701  0.00  0.00    +0.118 HD
ATOM     15  H   UNL     1       6.572 -15.685  42.263  0.00  0.00    +0.118 HD
ENDBRANCH  11  13
ENDBRANCH   6   8
ENDBRANCH   5   6
ENDBRANCH   4   5
BRANCH   3   2
ATOM      1  C   UNL     1       9.018 -13.012  34.950  0.00  0.00    +0.277 C 
ATOM      2  O   UNL     1       8.194 -12.128  35.706  0.00  0.00    -0.493 OA
ENDBRANCH   3   2
TORSDOF 10
