REMARK  Name = 4WUN
REMARK  12 active torsions:
REMARK  status: ('A' for Active; 'I' for Inactive)
REMARK    1  A    between atoms: C_1  and  C_4
REMARK    2  A    between atoms: N_2  and  C_15
REMARK    3  A    between atoms: O_6  and  C_31
REMARK    4  A    between atoms: O_6  and  C_33
REMARK    5  A    between atoms: N_8  and  C_21
REMARK    6  A    between atoms: O_9  and  C_29
REMARK    7  A    between atoms: O_9  and  C_34
REMARK    8  A    between atoms: C_12  and  C_14
REMARK    9  A    between atoms: C_18  and  C_21
REMARK   10  A    between atoms: C_24  and  C_25
REMARK   11  A    between atoms: C_25  and  C_26
REMARK   12  A    between atoms: C_26  and  C_27
REMARK                            x       y       z     vdW  Elec       q    Type
REMARK                         _______ _______ _______ _____ _____    ______ ____
ROOT
ATOM     10  N   UNL     1     -19.302  14.585 -14.437  0.00  0.00    +0.038 NA
ATOM     11  C   UNL     1     -18.567  14.662 -13.294  0.00  0.00    +0.389 C 
ATOM     12  C   UNL     1     -17.631  13.857 -12.812  0.00  0.00    +0.133 C 
ATOM     13  C   UNL     1     -17.206  14.442 -11.682  0.00  0.00    +0.097 C 
ATOM     26  N   UNL     1     -17.867  15.616 -11.497  0.00  0.00    -0.040 NA
ATOM     27  N   UNL     1     -18.668  15.726 -12.503  0.00  0.00    +0.084 NA
ENDROOT
BRANCH  10   9
ATOM      9  C   UNL     1     -19.250  13.577 -15.345  0.00  0.00    +0.374 C 
ATOM     28  O   UNL     1     -18.493  12.633 -15.236  0.00  0.00    -0.238 OA
BRANCH   9   8
ATOM      5  C   UNL     1     -21.519  14.018 -18.964  0.00  0.00    +0.030 A 
ATOM      6  C   UNL     1     -20.382  13.238 -18.916  0.00  0.00    +0.024 A 
ATOM      7  C   UNL     1     -19.676  13.119 -17.731  0.00  0.00    +0.017 A 
ATOM      8  C   UNL     1     -20.077  13.766 -16.573  0.00  0.00    +0.066 A 
ATOM     29  C   UNL     1     -21.224  14.555 -16.616  0.00  0.00    +0.017 A 
ATOM     30  C   UNL     1     -21.949  14.686 -17.802  0.00  0.00    +0.024 A 
BRANCH   5   4
ATOM      1  C   UNL     1     -22.962  12.302 -23.346  0.00  0.00    +0.025 C 
ATOM      2  C   UNL     1     -22.680  13.455 -22.372  0.00  0.00    +0.068 C 
ATOM      3  C   UNL     1     -22.717  12.988 -20.903  0.00  0.00    +0.123 C 
ATOM      4  N   UNL     1     -22.197  14.122 -20.137  0.00  0.00    -0.327 N 
ATOM     31  C   UNL     1     -22.995  15.404 -20.316  0.00  0.00    +0.123 C 
ATOM     32  C   UNL     1     -23.292  15.749 -21.792  0.00  0.00    +0.068 C 
ATOM     33  C   UNL     1     -24.391  16.829 -21.887  0.00  0.00    +0.025 C 
ATOM     34  N   UNL     1     -23.649  14.547 -22.557  0.00  0.00    -0.308 NA
ATOM     35  H   UNL     1     -24.612  14.209 -22.236  0.00  0.00    +0.123 HD
ENDBRANCH   5   4
ENDBRANCH   9   8
ENDBRANCH  10   9
BRANCH  13  14
ATOM     14  C   UNL     1     -16.177  14.011 -10.681  0.00  0.00    +0.064 C 
BRANCH  14  15
ATOM     15  C   UNL     1     -15.149  13.063 -11.255  0.00  0.00    +0.041 C 
BRANCH  15  16
ATOM     16  C   UNL     1     -13.984  13.026 -10.294  0.00  0.00    -0.040 A 
ATOM     17  C   UNL     1     -12.841  13.773 -10.531  0.00  0.00    +0.049 A 
ATOM     18  C   UNL     1     -11.799  13.769  -9.611  0.00  0.00    +0.124 A 
ATOM     19  C   UNL     1     -11.890  13.038  -8.442  0.00  0.00    +0.091 A 
ATOM     20  C   UNL     1     -13.053  12.303  -8.186  0.00  0.00    +0.124 A 
ATOM     25  C   UNL     1     -14.084  12.291  -9.117  0.00  0.00    +0.049 A 
BRANCH  20  21
ATOM     21  O   UNL     1     -13.218  11.556  -7.077  0.00  0.00    -0.495 OA
ATOM     22  C   UNL     1     -12.280  11.704  -5.999  0.00  0.00    +0.277 C 
ENDBRANCH  20  21
BRANCH  18  23
ATOM     23  O   UNL     1     -10.696  14.491  -9.922  0.00  0.00    -0.495 OA
ATOM     24  C   UNL     1      -9.746  14.700  -8.867  0.00  0.00    +0.277 C 
ENDBRANCH  18  23
ENDBRANCH  15  16
ENDBRANCH  14  15
ENDBRANCH  13  14
TORSDOF 8
