REMARK  Name = 8NS
REMARK  4 active torsions:
REMARK  status: ('A' for Active; 'I' for Inactive)
REMARK    1  A    between atoms: C6_4  and  C7_5
REMARK    2  A    between atoms: C6_4  and  N_23
REMARK    3  A    between atoms: C2_17  and  S_28
REMARK    4  A    between atoms: C1_22  and  S_28
REMARK                            x       y       z     vdW  Elec       q    Type
REMARK                         _______ _______ _______ _____ _____    ______ ____
ROOT
ATOM      1  N   UNL     1      13.717   4.406  -8.721  0.00  0.00    -0.239 NA
ATOM      2  C   UNL     1      13.019   4.629  -7.556  0.00  0.00    +0.137 A 
ATOM      3  C   UNL     1      13.639   5.711  -6.918  0.00  0.00    +0.023 A 
ATOM      4  C   UNL     1      13.097   6.171  -5.662  0.00  0.00    +0.020 C 
ATOM      5  C   UNL     1      13.588   7.409  -5.005  0.00  0.00    +0.016 A 
ATOM      6  C   UNL     1      12.680   8.271  -4.384  0.00  0.00    +0.020 A 
ATOM      7  C   UNL     1      13.114   9.465  -3.829  0.00  0.00    +0.106 A 
ATOM     13  C   UNL     1      14.458   9.807  -3.845  0.00  0.00    +0.020 A 
ATOM     14  C   UNL     1      15.370   8.962  -4.456  0.00  0.00    +0.016 A 
ATOM     15  C   UNL     1      14.944   7.775  -5.048  0.00  0.00    +0.048 A 
ATOM     16  N   UNL     1      15.890   7.002  -5.783  0.00  0.00    -0.303 N 
ATOM     21  C   UNL     1      15.790   7.086  -7.241  0.00  0.00    +0.119 C 
ATOM     22  C   UNL     1      12.111   5.437  -5.089  0.00  0.00    +0.079 C 
ATOM     23  N   UNL     1      11.589   4.312  -5.662  0.00  0.00    -0.291 N 
ATOM     24  C   UNL     1      10.575   3.536  -4.952  0.00  0.00    +0.134 C 
ATOM     25  C   UNL     1      14.764   6.085  -7.700  0.00  0.00    +0.018 A 
ATOM     26  C   UNL     1      11.909   3.910  -6.968  0.00  0.00    +0.279 C 
ATOM     27  O   UNL     1      11.265   3.010  -7.502  0.00  0.00    -0.265 OA
ATOM     28  C   UNL     1      14.763   5.271  -8.809  0.00  0.00    +0.096 A 
ENDROOT
BRANCH   7   8
ATOM      8  S   UNL     1      11.935  10.607  -3.184  0.00  0.00    +0.009 S 
ATOM     11  O   UNL     1      12.570  11.891  -3.056  0.00  0.00    -0.169 OA
ATOM     12  O   UNL     1      10.740  10.517  -3.976  0.00  0.00    -0.169 OA
BRANCH   8   9
ATOM      9  C   UNL     1      11.563  10.012  -1.556  0.00  0.00    +0.156 C 
ATOM     10  C   UNL     1      11.083  11.131  -0.664  0.00  0.00    +0.028 C 
ENDBRANCH   8   9
ENDBRANCH   7   8
BRANCH  16  17
ATOM     17  C   UNL     1      16.780   6.106  -5.046  0.00  0.00    +0.091 C 
BRANCH  17  18
ATOM     18  C   UNL     1      18.166   6.619  -4.781  0.00  0.00    +0.020 C 
ATOM     19  C   UNL     1      19.167   5.733  -4.133  0.00  0.00    +0.002 C 
ATOM     20  C   UNL     1      19.290   6.072  -5.571  0.00  0.00    +0.002 C 
ENDBRANCH  17  18
ENDBRANCH  16  17
TORSDOF 4
