REMARK  Name = 62V
REMARK  1 active torsions:
REMARK  status: ('A' for Active; 'I' for Inactive)
REMARK    1  A    between atoms: CAP_7  and  CAG_8
REMARK                            x       y       z     vdW  Elec       q    Type
REMARK                         _______ _______ _______ _____ _____    ______ ____
ROOT
ATOM      3  C   UNL     1     -10.530   6.991  -2.434  0.00  0.00    +0.076 C 
ATOM      4  C   UNL     1      -9.869   6.959  -1.173  0.00  0.00    +0.017 A 
ATOM      5  C   UNL     1     -10.379   6.336  -0.008  0.00  0.00    +0.005 A 
ATOM      6  C   UNL     1      -9.594   6.332   1.163  0.00  0.00    +0.000 A 
ATOM      7  C   UNL     1      -8.272   6.835   1.169  0.00  0.00    +0.000 A 
ATOM      8  C   UNL     1      -7.808   7.488   0.036  0.00  0.00    +0.000 A 
ATOM      9  C   UNL     1     -11.643   5.798   0.061  0.00  0.00    +0.052 A 
ATOM     10  C   UNL     1     -12.115   4.749   0.814  0.00  0.00    +0.101 A 
ATOM     11  C   UNL     1     -11.369   3.748   1.692  0.00  0.00    +0.056 C 
ATOM     12  N   UNL     1     -13.438   4.570   0.611  0.00  0.00    -0.082 NA
ATOM     13  O   UNL     1     -13.802   5.579  -0.225  0.00  0.00    -0.356 OA
ATOM     14  C   UNL     1     -12.693   6.330  -0.534  0.00  0.00    +0.178 A 
ATOM     15  C   UNL     1     -12.800   7.408  -1.453  0.00  0.00    +0.192 C 
ATOM     16  C   UNL     1      -8.570   7.497  -1.142  0.00  0.00    +0.001 A 
ATOM     17  N   UNL     1     -11.869   7.135  -2.558  0.00  0.00    -0.262 NA
ENDROOT
BRANCH   3   2
ATOM      1  C   UNL     1     -10.338   6.922  -4.871  0.00  0.00    +0.001 A 
ATOM      2  C   UNL     1      -9.860   6.560  -3.603  0.00  0.00    +0.017 A 
ATOM     18  C   UNL     1      -8.707   5.801  -3.485  0.00  0.00    +0.001 A 
ATOM     19  C   UNL     1      -8.088   5.297  -4.613  0.00  0.00    +0.000 A 
ATOM     20  C   UNL     1      -8.578   5.628  -5.846  0.00  0.00    +0.000 A 
ATOM     21  C   UNL     1      -9.679   6.458  -6.032  0.00  0.00    +0.000 A 
ENDBRANCH   3   2
TORSDOF 1
