REMARK  Name = 3hdm_ligand
REMARK  3 active torsions:
REMARK  status: ('A' for Active; 'I' for Inactive)
REMARK    1  A    between atoms: C13_7  and  C16_18
REMARK    2  A    between atoms: C15_8  and  C20_10
REMARK    3  A    between atoms: C14_17  and  C18_19
REMARK                            x       y       z     vdW  Elec       q    Type
REMARK                         _______ _______ _______ _____ _____    ______ ____
ROOT
ATOM      7  C   UNL     1      37.906  31.402  68.200  0.00  0.00    -0.006 A 
ATOM      8  C   UNL     1      38.979  31.445  69.067  0.00  0.00    +0.080 A 
ATOM      9  N   UNL     1      39.121  32.249  70.129  0.00  0.00    -0.283 NA
ATOM     10  C   UNL     1      38.066  33.050  70.273  0.00  0.00    +0.141 A 
ATOM     11  N   UNL     1      37.941  33.967  71.271  0.00  0.00    -0.258 N 
ATOM     12  H   UNL     1      38.639  34.133  72.010  0.00  0.00    +0.235 HD
ATOM     13  C   UNL     1      36.756  34.636  71.152  0.00  0.00    +0.150 A 
ATOM     14  C   UNL     1      36.099  34.136  70.048  0.00  0.00    -0.002 A 
ATOM     24  C   UNL     1      36.931  33.124  69.487  0.00  0.00    +0.014 A 
ATOM     25  C   UNL     1      36.846  32.262  68.408  0.00  0.00    +0.023 A 
ENDROOT
BRANCH   7   6
ATOM      1  C   UNL     1      39.020  29.899  66.585  0.00  0.00    +0.007 A 
ATOM      2  C   UNL     1      38.978  28.993  65.550  0.00  0.00    -0.000 A 
ATOM      3  C   UNL     1      37.768  28.627  65.012  0.00  0.00    -0.001 A 
ATOM      4  C   UNL     1      36.606  29.170  65.513  0.00  0.00    -0.000 A 
ATOM      5  C   UNL     1      36.662  30.073  66.551  0.00  0.00    +0.007 A 
ATOM      6  C   UNL     1      37.868  30.454  67.103  0.00  0.00    -0.019 A 
ENDBRANCH   7   6
BRANCH  14  15
ATOM     15  C   UNL     1      34.806  34.656  69.654  0.00  0.00    -0.036 A 
ATOM     16  C   UNL     1      34.084  34.098  68.618  0.00  0.00    -0.003 A 
ATOM     17  C   UNL     1      32.849  34.605  68.270  0.00  0.00    +0.009 A 
ATOM     18  C   UNL     1      32.341  35.675  68.971  0.00  0.00    +0.004 A 
ATOM     22  C   UNL     1      33.044  36.245  70.006  0.00  0.00    +0.009 A 
ATOM     23  C   UNL     1      34.276  35.729  70.339  0.00  0.00    -0.003 A 
BRANCH  18  19
ATOM     19  C   UNL     1      31.033  36.238  68.624  0.00  0.00    +0.059 C 
ATOM     20  O   UNL     1      30.378  36.966  69.357  0.00  0.00    -0.562 OA
ATOM     21  O   UNL     1      30.707  35.822  67.376  0.00  0.00    -0.562 OA
ENDBRANCH  18  19
ENDBRANCH  14  15
TORSDOF 3
