REMARK  Name = 5MQV
REMARK  12 active torsions:
REMARK  status: ('A' for Active; 'I' for Inactive)
REMARK    1  A    between atoms: C_1  and  O_2
REMARK    2  A    between atoms: O_2  and  C_3
REMARK    3  A    between atoms: C_6  and  O_7
REMARK    4  A    between atoms: O_7  and  C_8
REMARK    5  A    between atoms: C_9  and  C_11
REMARK    6  A    between atoms: N_13  and  C_14
REMARK    7  A    between atoms: C_15  and  C_17
REMARK    8  A    between atoms: N_19  and  C_20
REMARK    9  A    between atoms: C_22  and  C_26
REMARK   10  A    between atoms: C_27  and  C_33
REMARK   11  A    between atoms: C_29  and  S_31
REMARK   12  A    between atoms: S_31  and  C_32
REMARK                            x       y       z     vdW  Elec       q    Type
REMARK                         _______ _______ _______ _____ _____    ______ ____
ROOT
ATOM     12  C   UNL     1      40.143  10.679  36.587  0.00  0.00    +0.126 A 
ATOM     13  N   UNL     1      41.185   9.925  36.865  0.00  0.00    -0.240 NA
ATOM     14  C   UNL     1      42.175  10.345  37.643  0.00  0.00    +0.113 A 
ATOM     15  C   UNL     1      42.123  11.617  38.204  0.00  0.00    +0.030 A 
ATOM     16  C   UNL     1      41.043  12.450  37.940  0.00  0.00    +0.005 A 
ATOM     32  C   UNL     1      40.024  11.957  37.125  0.00  0.00    +0.053 A 
ENDROOT
BRANCH  16  17
ATOM     17  C   UNL     1      40.909  13.857  38.539  0.00  0.00    +0.075 A 
ATOM     18  N   UNL     1      39.741  14.392  38.816  0.00  0.00    -0.332 N 
ATOM     19  H   UNL     1      38.975  14.020  38.692  0.00  0.00    +0.168 HD
ATOM     20  C   UNL     1      39.948  15.611  39.333  0.00  0.00    +0.167 A 
ATOM     23  N   UNL     1      41.268  15.828  39.372  0.00  0.00    -0.221 NA
ATOM     24  C   UNL     1      41.875  14.764  38.893  0.00  0.00    +0.098 A 
BRANCH  24  25
ATOM     25  C   UNL     1      43.394  14.662  38.782  0.00  0.00    +0.003 A 
ATOM     26  C   UNL     1      43.999  14.292  37.592  0.00  0.00    +0.013 A 
ATOM     27  C   UNL     1      45.385  14.222  37.514  0.00  0.00    +0.039 A 
ATOM     28  C   UNL     1      46.158  14.529  38.620  0.00  0.00    +0.123 A 
ATOM     29  F   UNL     1      47.520  14.459  38.546  0.00  0.00    -0.205 F 
ATOM     30  C   UNL     1      45.551  14.908  39.806  0.00  0.00    +0.039 A 
ATOM     31  C   UNL     1      44.168  14.978  39.885  0.00  0.00    +0.013 A 
ENDBRANCH  24  25
BRANCH  20  21
ATOM     21  S   UNL     1      38.651  16.762  39.876  0.00  0.00    -0.091 S 
ATOM     22  C   UNL     1      37.357  16.808  38.602  0.00  0.00    +0.093 C 
ENDBRANCH  20  21
ENDBRANCH  16  17
BRANCH  12  10
ATOM      9  C   UNL     1      38.234  10.977  34.885  0.00  0.00    +0.266 C 
ATOM     10  N   UNL     1      39.081  10.138  35.734  0.00  0.00    -0.265 N 
ATOM     11  H   UNL     1      38.940   9.290  35.743  0.00  0.00    +0.157 HD
ATOM     33  O   UNL     1      38.361  12.152  34.835  0.00  0.00    -0.268 OA
BRANCH   9   8
ATOM      6  C   UNL     1      35.615   8.774  33.518  0.00  0.00    +0.004 A 
ATOM      7  C   UNL     1      36.535   9.111  34.466  0.00  0.00    +0.041 A 
ATOM      8  C   UNL     1      37.143  10.274  34.063  0.00  0.00    +0.105 A 
ATOM     34  N   UNL     1      36.592  10.635  32.889  0.00  0.00    -0.345 N 
ATOM     35  C   UNL     1      36.947  11.810  32.115  0.00  0.00    +0.149 C 
ATOM     36  C   UNL     1      35.661   9.733  32.526  0.00  0.00    +0.094 A 
BRANCH   6   5
ATOM      3  C   UNL     1      34.630   5.131  33.706  0.00  0.00    +0.121 A 
ATOM      4  C   UNL     1      35.372   6.296  33.624  0.00  0.00    +0.057 A 
ATOM      5  C   UNL     1      34.737   7.524  33.598  0.00  0.00    +0.029 A 
ATOM     37  C   UNL     1      33.356   7.614  33.685  0.00  0.00    +0.128 A 
ATOM     40  C   UNL     1      32.617   6.446  33.768  0.00  0.00    +0.050 A 
ATOM     41  C   UNL     1      33.249   5.207  33.780  0.00  0.00    +0.049 A 
BRANCH   3   2
ATOM      1  C   UNL     1      36.022   3.589  32.568  0.00  0.00    +0.277 C 
ATOM      2  O   UNL     1      35.282   3.891  33.721  0.00  0.00    -0.495 OA
ENDBRANCH   3   2
BRANCH  37  38
ATOM     38  O   UNL     1      32.751   8.883  33.656  0.00  0.00    -0.495 OA
ATOM     39  C   UNL     1      31.455   9.061  34.161  0.00  0.00    +0.277 C 
ENDBRANCH  37  38
ENDBRANCH   6   5
ENDBRANCH   9   8
ENDBRANCH  12  10
TORSDOF 8
