REMARK  Name = 3eqb_ligand
REMARK  6 active torsions:
REMARK  status: ('A' for Active; 'I' for Inactive)
REMARK    1  A    between atoms: C8_7  and  C13_8
REMARK    2  A    between atoms: N4_12  and  C15_13
REMARK    3  A    between atoms: C15_13  and  C16_14
REMARK    4  A    between atoms: C16_14  and  N5_15
REMARK    5  A    between atoms: C7_17  and  N1_18
REMARK    6  A    between atoms: N1_18  and  C3_19
REMARK                            x       y       z     vdW  Elec       q    Type
REMARK                         _______ _______ _______ _____ _____    ______ ____
ROOT
ATOM      1  F   UNL     1      35.904 -15.718   3.695  0.00  0.00    -0.185 F 
ATOM      2  C   UNL     1      37.002 -14.995   4.015  0.00  0.00    +0.159 A 
ATOM      3  C   UNL     1      37.228 -13.938   3.153  0.00  0.00    +0.012 A 
ATOM      4  C   UNL     1      38.320 -13.137   3.406  0.00  0.00    -0.004 A 
ATOM      5  C   UNL     1      39.164 -13.424   4.468  0.00  0.00    +0.057 A 
ATOM      6  C   UNL     1      38.982 -14.464   5.344  0.00  0.00    +0.109 A 
ATOM     30  C   UNL     1      37.870 -15.255   5.116  0.00  0.00    +0.190 A 
ATOM     31  F   UNL     1      37.701 -16.270   5.980  0.00  0.00    -0.192 F 
ENDROOT
BRANCH   5  17
ATOM     17  C   UNL     1      40.275 -12.509   4.705  0.00  0.00    +0.203 A 
ATOM     18  O   UNL     1      40.736 -11.599   3.801  0.00  0.00    -0.176 OA
ATOM     19  C   UNL     1      41.708 -10.952   4.494  0.00  0.00    +0.287 A 
ATOM     20  N   UNL     1      42.509  -9.856   3.933  0.00  0.00    -0.262 N 
ATOM     21  H   UNL     1      43.122  -9.933   3.109  0.00  0.00    +0.189 HD
ATOM     28  N   UNL     1      41.862 -11.392   5.759  0.00  0.00    -0.252 NA
ATOM     29  N   UNL     1      40.908 -12.396   5.892  0.00  0.00    -0.268 NA
BRANCH  20  22
ATOM     22  C   UNL     1      42.305  -8.626   4.726  0.00  0.00    +0.189 C 
BRANCH  22  23
ATOM     23  C   UNL     1      41.773  -7.555   3.797  0.00  0.00    +0.152 C 
BRANCH  23  24
ATOM     24  N   UNL     1      42.373  -6.250   4.205  0.00  0.00    +0.220 N 
ATOM     25  H   UNL     1      42.114  -6.044   5.157  0.00  0.00    +0.200 HD
ATOM     26  H   UNL     1      43.377  -6.305   4.134  0.00  0.00    +0.200 HD
ATOM     27  H   UNL     1      42.033  -5.520   3.599  0.00  0.00    +0.200 HD
ENDBRANCH  23  24
ENDBRANCH  22  23
ENDBRANCH  20  22
ENDBRANCH   5  17
BRANCH   6   7
ATOM      7  N   UNL     1      39.918 -14.599   6.429  0.00  0.00    -0.271 N 
ATOM      8  H   UNL     1      40.082 -13.785   7.038  0.00  0.00    +0.209 HD
BRANCH   7   9
ATOM      9  C   UNL     1      40.629 -15.804   6.703  0.00  0.00    +0.096 A 
ATOM     10  C   UNL     1      41.623 -15.812   7.699  0.00  0.00    +0.156 A 
ATOM     11  F   UNL     1      41.921 -14.685   8.386  0.00  0.00    -0.191 F 
ATOM     12  C   UNL     1      42.343 -16.968   8.019  0.00  0.00    +0.032 A 
ATOM     13  C   UNL     1      42.076 -18.154   7.356  0.00  0.00    -0.005 A 
ATOM     14  I   UNL     1      43.154 -19.914   7.832  0.00  0.00    -0.061 I 
ATOM     15  C   UNL     1      41.084 -18.149   6.364  0.00  0.00    -0.007 A 
ATOM     16  C   UNL     1      40.364 -16.996   6.042  0.00  0.00    +0.014 A 
ENDBRANCH   7   9
ENDBRANCH   6   7
TORSDOF 6
