REMARK  Name = 4ehe_ligand
REMARK  8 active torsions:
REMARK  status: ('A' for Active; 'I' for Inactive)
REMARK    1  A    between atoms: C3_3  and  N10_10
REMARK    2  A    between atoms: C9_9  and  C11_11
REMARK    3  A    between atoms: N13_13  and  C14_14
REMARK    4  A    between atoms: C16_16  and  N20_20
REMARK    5  A    between atoms: N20_20  and  S23_23
REMARK    6  A    between atoms: S23_23  and  C26_26
REMARK    7  A    between atoms: C26_26  and  C27_27
REMARK    8  A    between atoms: C27_27  and  C28_28
REMARK                            x       y       z     vdW  Elec       q    Type
REMARK                         _______ _______ _______ _____ _____    ______ ____
ROOT
ATOM      5  C   UNL     1      13.608 -25.550  -2.264  0.00  0.00    +0.218 C 
ATOM      6  N   UNL     1      13.994 -26.826  -2.270  0.00  0.00    -0.239 N 
ATOM      7  H   UNL     1      14.938 -26.994  -1.984  0.00  0.00    +0.222 HD
ATOM     24  O   UNL     1      12.489 -25.126  -2.563  0.00  0.00    -0.385 OA
ENDROOT
BRANCH   5   4
ATOM      1  C   UNL     1      17.802 -26.609  -1.432  0.00  0.00    +0.155 A 
ATOM      2  N   UNL     1      16.492 -26.501  -1.744  0.00  0.00    -0.298 NA
ATOM      3  C   UNL     1      15.983 -25.264  -1.599  0.00  0.00    +0.061 A 
ATOM      4  C   UNL     1      14.654 -24.707  -1.817  0.00  0.00    +0.080 A 
ATOM     25  C   UNL     1      14.519 -23.318  -1.539  0.00  0.00    +0.139 A 
ATOM     26  S   UNL     1      16.034 -22.651  -1.006  0.00  0.00    -0.009 S 
ATOM     27  C   UNL     1      16.808 -24.209  -1.154  0.00  0.00    +0.110 A 
ATOM     28  C   UNL     1      18.180 -24.427  -0.851  0.00  0.00    +0.139 A 
ATOM     32  N   UNL     1      18.671 -25.671  -0.997  0.00  0.00    -0.266 NA
BRANCH  28  29
ATOM     29  N   UNL     1      19.008 -23.442  -0.418  0.00  0.00    -0.316 N 
ATOM     30  H   UNL     1      19.994 -23.653  -0.207  0.00  0.00    +0.180 HD
ATOM     31  H   UNL     1      18.650 -22.483  -0.300  0.00  0.00    +0.180 HD
ENDBRANCH  28  29
ENDBRANCH   5   4
BRANCH   6   8
ATOM      8  C   UNL     1      13.257 -27.962  -2.622  0.00  0.00    +0.117 A 
ATOM      9  C   UNL     1      12.772 -28.838  -1.635  0.00  0.00    +0.132 A 
ATOM     10  F   UNL     1      13.034 -28.541  -0.356  0.00  0.00    -0.208 F 
ATOM     11  C   UNL     1      12.037 -29.991  -1.974  0.00  0.00    -0.011 A 
ATOM     12  C   UNL     1      11.798 -30.248  -3.339  0.00  0.00    -0.029 A 
ATOM     13  C   UNL     1      12.277 -29.371  -4.343  0.00  0.00    +0.079 A 
ATOM     22  C   UNL     1      13.009 -28.222  -3.973  0.00  0.00    +0.163 A 
ATOM     23  F   UNL     1      13.502 -27.346  -4.869  0.00  0.00    -0.209 F 
BRANCH  13  14
ATOM     14  N   UNL     1      12.041 -29.635  -5.627  0.00  0.00    -0.197 N 
ATOM     15  H   UNL     1      12.389 -28.990  -6.307  0.00  0.00    +0.212 HD
BRANCH  14  16
ATOM     16  S   UNL     1      11.180 -31.008  -6.193  0.00  0.00    +0.059 S 
ATOM     20  O   UNL     1      11.028 -30.954  -7.655  0.00  0.00    -0.150 OA
ATOM     21  O   UNL     1      10.011 -31.092  -5.310  0.00  0.00    -0.150 OA
BRANCH  16  17
ATOM     17  C   UNL     1      12.343 -32.390  -5.836  0.00  0.00    +0.194 C 
BRANCH  17  18
ATOM     18  C   UNL     1      13.774 -32.075  -6.282  0.00  0.00    +0.022 C 
ATOM     19  C   UNL     1      14.642 -33.330  -6.378  0.00  0.00    +0.005 C 
ENDBRANCH  17  18
ENDBRANCH  16  17
ENDBRANCH  14  16
ENDBRANCH  13  14
ENDBRANCH   6   8
TORSDOF 7
