REMARK  Name = 5M4P
REMARK  8 active torsions:
REMARK  status: ('A' for Active; 'I' for Inactive)
REMARK    1  A    between atoms: N_3  and  C_16
REMARK    2  A    between atoms: N_3  and  C_18
REMARK    3  A    between atoms: C_11  and  C_15
REMARK    4  A    between atoms: N_12  and  C_24
REMARK    5  A    between atoms: C_16  and  C_17
REMARK    6  A    between atoms: C_21  and  C_24
REMARK    7  A    between atoms: C_27  and  C_30
REMARK    8  A    between atoms: C_33  and  C_34
REMARK                            x       y       z     vdW  Elec       q    Type
REMARK                         _______ _______ _______ _____ _____    ______ ____
ROOT
ATOM     13  N   UNL     1      32.344 -34.056  10.064  0.00  0.00    -0.263 N 
ATOM     27  C   UNL     1      32.047 -35.227  10.567  0.00  0.00    +0.254 C 
ATOM     36  O   UNL     1      30.963 -35.505  10.998  0.00  0.00    -0.270 OA
ENDROOT
BRANCH  27  28
ATOM     28  C   UNL     1      33.086 -36.289  10.477  0.00  0.00    +0.076 C 
ATOM     29  C   UNL     1      33.548 -36.607   9.224  0.00  0.00    -0.003 C 
ATOM     30  C   UNL     1      34.501 -37.566   9.047  0.00  0.00    +0.102 C 
ATOM     31  C   UNL     1      34.961 -38.233  10.132  0.00  0.00    +0.144 C 
ATOM     32  C   UNL     1      34.495 -37.947  11.385  0.00  0.00    +0.154 C 
ATOM     33  O   UNL     1      35.866 -39.152   9.958  0.00  0.00    -0.297 OA
ATOM     34  C   UNL     1      33.550 -36.977  11.557  0.00  0.00    +0.175 C 
ATOM     35  O   UNL     1      33.099 -36.703  12.755  0.00  0.00    -0.291 OA
ENDBRANCH  27  28
BRANCH  13  11
ATOM      8  C   UNL     1      36.072 -33.022   8.817  0.00  0.00    +0.001 A 
ATOM      9  C   UNL     1      35.839 -33.502  10.085  0.00  0.00    +0.012 A 
ATOM     10  C   UNL     1      34.584 -33.832  10.502  0.00  0.00    +0.024 A 
ATOM     11  C   UNL     1      33.530 -33.738   9.637  0.00  0.00    +0.037 A 
ATOM     12  C   UNL     1      33.753 -33.263   8.371  0.00  0.00    +0.024 A 
ATOM     37  C   UNL     1      35.017 -32.911   7.952  0.00  0.00    +0.012 A 
BRANCH   8   7
ATOM      1 CL   UNL     1      40.421 -31.024  10.310  0.00  0.00    -0.041 Cl
ATOM      2  C   UNL     1      39.445 -31.810   9.133  0.00  0.00    +0.223 A 
ATOM      3  N   UNL     1      39.972 -32.161   7.963  0.00  0.00    -0.226 NA
ATOM      4  C   UNL     1      39.286 -32.780   7.040  0.00  0.00    +0.119 A 
ATOM      5  C   UNL     1      37.964 -33.077   7.278  0.00  0.00    -0.006 A 
ATOM      6  C   UNL     1      37.194 -33.781   6.210  0.00  0.00    +0.048 C 
ATOM      7  C   UNL     1      37.386 -32.717   8.484  0.00  0.00    +0.079 A 
ATOM     38  N   UNL     1      38.159 -32.105   9.383  0.00  0.00    -0.217 NA
ENDBRANCH   8   7
ENDBRANCH  13  11
BRANCH  13  14
ATOM     14  C   UNL     1      31.350 -33.033  10.005  0.00  0.00    +0.149 C 
BRANCH  14  15
ATOM     15  C   UNL     1      31.591 -31.970  11.000  0.00  0.00    -0.030 A 
ATOM     16  C   UNL     1      31.127 -32.169  12.268  0.00  0.00    +0.005 A 
ATOM     17  C   UNL     1      31.311 -31.219  13.222  0.00  0.00    +0.005 A 
ATOM     18  C   UNL     1      31.959 -30.075  12.886  0.00  0.00    -0.033 A 
ATOM     25  C   UNL     1      32.425 -29.869  11.607  0.00  0.00    +0.005 A 
ATOM     26  C   UNL     1      32.240 -30.825  10.645  0.00  0.00    +0.005 A 
BRANCH  18  19
ATOM     19  C   UNL     1      32.133 -29.033  13.947  0.00  0.00    +0.119 C 
BRANCH  19  20
ATOM     20  N   UNL     1      31.009 -28.137  13.808  0.00  0.00    -0.298 NA
ATOM     21  C   UNL     1      31.065 -27.072  14.773  0.00  0.00    +0.085 C 
ATOM     22  C   UNL     1      30.212 -26.005  14.130  0.00  0.00    +0.017 C 
ATOM     23  C   UNL     1      30.296 -26.278  12.649  0.00  0.00    +0.017 C 
ATOM     24  C   UNL     1      31.264 -27.425  12.576  0.00  0.00    +0.085 C 
ENDBRANCH  19  20
ENDBRANCH  18  19
ENDBRANCH  14  15
ENDBRANCH  13  14
TORSDOF 7
