REMARK  Name = 14Z
REMARK  3 active torsions:
REMARK  status: ('A' for Active; 'I' for Inactive)
REMARK    1  A    between atoms: CAN_2  and  NAM_3
REMARK    2  A    between atoms: NAM_3  and  SAP_4
REMARK    3  A    between atoms: SAP_4  and  CAA_7
REMARK                            x       y       z     vdW  Elec       q    Type
REMARK                         _______ _______ _______ _____ _____    ______ ____
ROOT
ATOM      6  C   UNL     1      28.873  15.195  -2.272  0.00  0.00    +0.123 A 
ATOM      7  C   UNL     1      28.868  15.912  -1.047  0.00  0.00    +0.019 A 
ATOM      8  C   UNL     1      30.092  16.385  -0.553  0.00  0.00    +0.015 A 
ATOM      9  C   UNL     1      30.032  17.205   0.752  0.00  0.00    +0.123 C 
ATOM     10  N   UNL     1      31.251  18.071   0.845  0.00  0.00    -0.257 N 
ATOM     11  C   UNL     1      31.154  19.145   1.910  0.00  0.00    +0.117 C 
ATOM     12  C   UNL     1      32.447  17.769   0.180  0.00  0.00    +0.328 C 
ATOM     13  O   UNL     1      33.440  18.476   0.333  0.00  0.00    -0.250 OA
ATOM     14  N   UNL     1      32.494  16.742  -0.773  0.00  0.00    -0.163 NA
ATOM     15  C   UNL     1      31.295  16.152  -1.202  0.00  0.00    +0.073 A 
ATOM     16  C   UNL     1      31.273  15.522  -2.441  0.00  0.00    +0.018 A 
ATOM     17  C   UNL     1      30.080  15.013  -2.936  0.00  0.00    +0.021 A 
ENDROOT
BRANCH   6   4
ATOM      4  S   UNL     1      27.317  14.602  -2.921  0.00  0.00    +0.077 S 
ATOM      5  O   UNL     1      26.464  14.855  -1.789  0.00  0.00    -0.152 OA
ATOM     18  O   UNL     1      27.727  13.209  -3.299  0.00  0.00    -0.152 OA
BRANCH   4   3
ATOM      3  N   UNL     1      27.224  15.587  -4.150  0.00  0.00    -0.078 NA
BRANCH   3   2
ATOM      1  C   UNL     1      26.935  17.817  -5.124  0.00  0.00    +0.022 C 
ATOM      2  C   UNL     1      26.990  17.003  -3.826  0.00  0.00    +0.116 C 
ENDBRANCH   3   2
ENDBRANCH   4   3
ENDBRANCH   6   4
TORSDOF 3
