REMARK  Name = 2xkd_ligand
REMARK  9 active torsions:
REMARK  status: ('A' for Active; 'I' for Inactive)
REMARK    1  A    between atoms: C24_2  and  C23_4
REMARK    2  A    between atoms: C20_9  and  C19_10
REMARK    3  A    between atoms: C13_16  and  C12_17
REMARK    4  A    between atoms: C8_20  and  O9_21
REMARK    5  A    between atoms: O9_21  and  C10_22
REMARK    6  A    between atoms: C5_23  and  O6_24
REMARK    7  A    between atoms: O6_24  and  C7_25
REMARK    8  A    between atoms: C3_26  and  O2_27
REMARK    9  A    between atoms: O2_27  and  C1_28
REMARK                            x       y       z     vdW  Elec       q    Type
REMARK                         _______ _______ _______ _____ _____    ______ ____
ROOT
ATOM      7  C   UNL     1      24.853  -7.013  18.267  0.00  0.00    +0.100 A 
ATOM      8  C   UNL     1      24.749  -5.736  18.919  0.00  0.00    +0.148 A 
ATOM      9  N   UNL     1      25.240  -5.559  20.168  0.00  0.00    -0.261 NA
ATOM     10  C   UNL     1      25.826  -6.557  20.774  0.00  0.00    +0.117 A 
ATOM     11  C   UNL     1      25.992  -7.848  20.074  0.00  0.00    +0.054 A 
ATOM     24  N   UNL     1      24.081  -4.627  18.290  0.00  0.00    -0.314 N 
ATOM     25  H   UNL     1      23.666  -4.739  17.354  0.00  0.00    +0.181 HD
ATOM     26  H   UNL     1      24.018  -3.721  18.776  0.00  0.00    +0.181 HD
ATOM     27  N   UNL     1      25.478  -8.032  18.888  0.00  0.00    -0.279 NA
ENDROOT
BRANCH   7   6
ATOM      3  C   UNL     1      23.305  -7.416  14.249  0.00  0.00    +0.011 A 
ATOM      4  C   UNL     1      22.425  -7.040  15.288  0.00  0.00    +0.019 A 
ATOM      5  C   UNL     1      22.883  -6.915  16.564  0.00  0.00    +0.015 A 
ATOM      6  C   UNL     1      24.311  -7.195  16.856  0.00  0.00    +0.004 A 
ATOM     28  C   UNL     1      25.166  -7.536  15.849  0.00  0.00    +0.015 A 
ATOM     29  C   UNL     1      24.688  -7.658  14.531  0.00  0.00    +0.019 A 
BRANCH   3   2
ATOM      1  O   UNL     1      23.506  -8.192  11.836  0.00  0.00    -0.561 OA
ATOM      2  C   UNL     1      22.801  -7.472  12.808  0.00  0.00    +0.063 C 
ATOM     30  O   UNL     1      21.821  -6.868  12.511  0.00  0.00    -0.561 OA
ENDBRANCH   3   2
ENDBRANCH   7   6
BRANCH  11  12
ATOM     12  C   UNL     1      26.624  -9.020  20.801  0.00  0.00    -0.029 A 
ATOM     13  C   UNL     1      26.568 -10.264  20.224  0.00  0.00    +0.002 A 
ATOM     14  C   UNL     1      27.137 -11.428  20.928  0.00  0.00    +0.114 A 
ATOM     15  C   UNL     1      27.721 -11.252  22.144  0.00  0.00    +0.150 A 
ATOM     16  C   UNL     1      27.776  -9.980  22.743  0.00  0.00    +0.114 A 
ATOM     23  C   UNL     1      27.223  -8.839  22.072  0.00  0.00    +0.002 A 
BRANCH  16  17
ATOM     17  O   UNL     1      28.321  -9.848  24.023  0.00  0.00    -0.328 OA
ATOM     18  C   UNL     1      28.613  -8.572  24.513  0.00  0.00    +0.228 C 
ENDBRANCH  16  17
BRANCH  15  19
ATOM     19  O   UNL     1      28.269 -12.353  22.799  0.00  0.00    -0.327 OA
ATOM     20  C   UNL     1      27.404 -13.221  23.482  0.00  0.00    +0.226 C 
ENDBRANCH  15  19
BRANCH  14  21
ATOM     21  O   UNL     1      27.089 -12.713  20.367  0.00  0.00    -0.328 OA
ATOM     22  C   UNL     1      26.614 -12.885  19.059  0.00  0.00    +0.228 C 
ENDBRANCH  14  21
ENDBRANCH  11  12
TORSDOF 6
