REMARK  Name = 5CU2
REMARK  11 active torsions:
REMARK  status: ('A' for Active; 'I' for Inactive)
REMARK    1  A    between atoms: C_1  and  C_23
REMARK    2  A    between atoms: C_1  and  O_25
REMARK    3  A    between atoms: C_3  and  C_23
REMARK    4  A    between atoms: C_4  and  C_5
REMARK    5  A    between atoms: C_4  and  C_21
REMARK    6  A    between atoms: C_5  and  N_20
REMARK    7  A    between atoms: C_6  and  C_7
REMARK    8  A    between atoms: C_6  and  N_20
REMARK    9  A    between atoms: C_10  and  C_12
REMARK   10  A    between atoms: C_21  and  N_22
REMARK   11  A    between atoms: O_25  and  C_26
REMARK                            x       y       z     vdW  Elec       q    Type
REMARK                         _______ _______ _______ _____ _____    ______ ____
ROOT
ATOM     12  N   UNL     1       5.451 136.895 354.409  0.00  0.00    -0.312 NA
ATOM     13  H   UNL     1       6.278 137.558 354.557  0.00  0.00    +0.122 HD
ENDROOT
BRANCH  12  11
ATOM     11  C   UNL     1       5.956 135.526 354.313  0.00  0.00    +0.083 C 
BRANCH  11  10
ATOM     10  C   UNL     1       6.338 134.954 355.657  0.00  0.00    +0.034 C 
BRANCH  10   9
ATOM      9  C   UNL     1       6.909 133.557 355.568  0.00  0.00    +0.105 C 
BRANCH   9   7
ATOM      6  C   UNL     1       7.626 132.312 357.546  0.00  0.00    +0.224 C 
ATOM      7  N   UNL     1       7.833 133.276 356.656  0.00  0.00    -0.315 N 
ATOM      8  H   UNL     1       8.718 133.872 356.743  0.00  0.00    +0.149 HD
ATOM     28  O   UNL     1       6.573 131.686 357.613  0.00  0.00    -0.275 OA
BRANCH   6   5
ATOM      5  C   UNL     1       8.772 132.023 358.489  0.00  0.00    +0.216 C 
BRANCH   5   1
ATOM      1  C   UNL     1       8.788 130.540 358.748  0.00  0.00    +0.316 C 
ATOM      4  O   UNL     1       7.944 129.935 359.347  0.00  0.00    -0.250 OA
BRANCH   1   2
ATOM      2  O   UNL     1       9.867 129.976 358.225  0.00  0.00    -0.468 OA
ATOM      3  C   UNL     1       9.705 128.626 357.732  0.00  0.00    +0.280 C 
ENDBRANCH   1   2
ENDBRANCH   5   1
ENDBRANCH   6   5
ENDBRANCH   9   7
ENDBRANCH  10   9
ENDBRANCH  11  10
ENDBRANCH  12  11
BRANCH  12  14
ATOM     14  C   UNL     1       4.730 137.304 353.204  0.00  0.00    +0.116 C 
BRANCH  14  15
ATOM     15  C   UNL     1       4.470 138.789 353.145  0.00  0.00    -0.032 A 
ATOM     16  C   UNL     1       5.513 139.695 353.264  0.00  0.00    +0.025 A 
ATOM     17  C   UNL     1       5.276 141.051 353.167  0.00  0.00    +0.049 A 
ATOM     18 CL   UNL     1       6.637 142.122 353.240  0.00  0.00    -0.083 Cl
ATOM     19  C   UNL     1       3.993 141.556 352.971  0.00  0.00    +0.001 A 
ATOM     26  C   UNL     1       2.951 140.638 352.860  0.00  0.00    +0.010 A 
ATOM     27  C   UNL     1       3.192 139.279 352.944  0.00  0.00    +0.005 A 
BRANCH  19  20
ATOM     20  C   UNL     1       3.671 143.008 352.878  0.00  0.00    -0.017 A 
ATOM     21  C   UNL     1       4.424 143.957 353.564  0.00  0.00    +0.008 A 
ATOM     22  C   UNL     1       4.116 145.303 353.479  0.00  0.00    +0.001 A 
ATOM     23  C   UNL     1       3.055 145.725 352.712  0.00  0.00    +0.000 A 
ATOM     24  C   UNL     1       2.297 144.801 352.028  0.00  0.00    +0.001 A 
ATOM     25  C   UNL     1       2.600 143.454 352.108  0.00  0.00    +0.008 A 
ENDBRANCH  19  20
ENDBRANCH  14  15
ENDBRANCH  12  14
TORSDOF 10
