REMARK  Name = VSE
REMARK  5 active torsions:
REMARK  status: ('A' for Active; 'I' for Inactive)
REMARK    1  A    between atoms: CAI_4  and  CAJ_5
REMARK    2  A    between atoms: CAN_8  and  OBD_9
REMARK    3  A    between atoms: OBD_9  and  CBE_10
REMARK    4  A    between atoms: NAG_19  and  CAQ_24
REMARK    5  A    between atoms: CAT_27  and  NAW_30
REMARK                            x       y       z     vdW  Elec       q    Type
REMARK                         _______ _______ _______ _____ _____    ______ ____
ROOT
ATOM      1  N   UNL     1      55.631  39.248  99.355  0.00  0.00    -0.107 NA
ATOM      2  C   UNL     1      56.675  39.844  98.482  0.00  0.00    +0.174 A 
ATOM      3  N   UNL     1      57.855  40.213  99.036  0.00  0.00    -0.206 NA
ATOM      4  C   UNL     1      58.826  40.752  98.294  0.00  0.00    +0.202 A 
ATOM      5  N   UNL     1      58.655  40.942  96.983  0.00  0.00    -0.206 NA
ATOM      6  C   UNL     1      57.497  40.591  96.377  0.00  0.00    +0.148 A 
ATOM      7  N   UNL     1      57.117  40.693  95.099  0.00  0.00    -0.313 N 
ATOM      8  C   UNL     1      55.867  40.212  94.980  0.00  0.00    +0.077 A 
ATOM      9  C   UNL     1      55.412  39.782  96.223  0.00  0.00    +0.023 A 
ATOM     36  C   UNL     1      56.464  40.037  97.117  0.00  0.00    +0.070 A 
ENDROOT
BRANCH   9  10
ATOM     10  C   UNL     1      54.079  39.431  96.475  0.00  0.00    +0.002 A 
ATOM     11  C   UNL     1      53.311  40.091  97.430  0.00  0.00    +0.003 A 
ATOM     12  C   UNL     1      51.980  39.728  97.649  0.00  0.00    +0.037 A 
ATOM     13  C   UNL     1      51.398  38.705  96.908  0.00  0.00    +0.145 A 
ATOM     21  C   UNL     1      52.161  38.055  95.943  0.00  0.00    +0.037 A 
ATOM     22  C   UNL     1      53.486  38.417  95.726  0.00  0.00    +0.003 A 
BRANCH  13  14
ATOM     14  O   UNL     1      50.075  38.379  97.129  0.00  0.00    -0.454 OA
BRANCH  14  15
ATOM     15  C   UNL     1      49.618  37.108  97.365  0.00  0.00    +0.145 A 
ATOM     16  C   UNL     1      50.402  36.181  98.044  0.00  0.00    +0.037 A 
ATOM     17  C   UNL     1      49.911  34.899  98.280  0.00  0.00    +0.003 A 
ATOM     18  C   UNL     1      48.636  34.549  97.849  0.00  0.00    +0.000 A 
ATOM     19  C   UNL     1      47.849  35.479  97.178  0.00  0.00    +0.003 A 
ATOM     20  C   UNL     1      48.337  36.758  96.945  0.00  0.00    +0.037 A 
ENDBRANCH  14  15
ENDBRANCH  13  14
ENDBRANCH   9  10
BRANCH   7  23
ATOM     23  C   UNL     1      57.963  41.243  94.002  0.00  0.00    +0.087 C 
ATOM     24  C   UNL     1      57.167  42.268  93.204  0.00  0.00    +0.024 C 
ATOM     25  C   UNL     1      57.989  42.811  92.043  0.00  0.00    +0.018 C 
ATOM     26  C   UNL     1      58.384  41.680  91.104  0.00  0.00    +0.058 C 
ATOM     27  C   UNL     1      59.240  40.691  91.893  0.00  0.00    +0.018 C 
ATOM     35  C   UNL     1      58.439  40.128  93.069  0.00  0.00    +0.024 C 
BRANCH  26  28
ATOM     28  N   UNL     1      59.084  42.226  89.915  0.00  0.00    -0.272 NA
ATOM     29  C   UNL     1      60.339  42.905  90.295  0.00  0.00    +0.090 C 
ATOM     30  C   UNL     1      60.990  43.492  89.045  0.00  0.00    +0.090 C 
ATOM     31  N   UNL     1      61.275  42.404  88.092  0.00  0.00    -0.269 NA
ATOM     32  C   UNL     1      60.011  41.748  87.703  0.00  0.00    +0.090 C 
ATOM     33  C   UNL     1      61.958  42.948  86.903  0.00  0.00    +0.090 C 
ATOM     34  C   UNL     1      59.367  41.149  88.949  0.00  0.00    +0.090 C 
ENDBRANCH  26  28
ENDBRANCH   7  23
TORSDOF 5
