REMARK  Name = Y80
REMARK  4 active torsions:
REMARK  status: ('A' for Active; 'I' for Inactive)
REMARK    1  A    between atoms: C9_12  and  C10_14
REMARK    2  A    between atoms: C10_14  and  C19_15
REMARK    3  A    between atoms: C11_21  and  C12_22
REMARK    4  A    between atoms: C15_25  and  O2_26
REMARK                            x       y       z     vdW  Elec       q    Type
REMARK                         _______ _______ _______ _____ _____    ______ ____
ROOT
ATOM      7  C   UNL     1     -10.429   6.590  -0.944  0.00  0.00    +0.054 C 
ATOM     14  C   UNL     1     -10.718   6.121  -2.180  0.00  0.00    +0.004 C 
ENDROOT
BRANCH   7   5
ATOM      1  O   UNL     1     -15.627   4.853  -0.289  0.00  0.00    -0.271 OA
ATOM      2  C   UNL     1     -14.957   5.894  -0.613  0.00  0.00    +0.266 C 
ATOM      3  C   UNL     1     -14.054   6.549   0.366  0.00  0.00    +0.186 C 
ATOM      4  N   UNL     1     -12.911   6.913  -0.425  0.00  0.00    -0.245 N 
ATOM      5  C   UNL     1     -11.638   6.427  -0.078  0.00  0.00    +0.253 C 
ATOM      6  O   UNL     1     -11.509   5.835   0.971  0.00  0.00    -0.270 OA
ATOM     23  C   UNL     1     -13.155   7.689  -1.611  0.00  0.00    +0.070 A 
ATOM     24  C   UNL     1     -12.376   8.763  -2.003  0.00  0.00    +0.016 A 
ATOM     25  C   UNL     1     -12.687   9.495  -3.148  0.00  0.00    +0.001 A 
ATOM     26  C   UNL     1     -13.779   9.174  -3.917  0.00  0.00    +0.001 A 
ATOM     27  C   UNL     1     -14.620   8.120  -3.538  0.00  0.00    +0.018 A 
ATOM     28  C   UNL     1     -14.336   7.372  -2.401  0.00  0.00    +0.087 A 
ATOM     29  N   UNL     1     -15.039   6.325  -1.921  0.00  0.00    -0.176 NA
ENDBRANCH   7   5
BRANCH   7   8
ATOM      8  C   UNL     1      -9.122   7.166  -0.474  0.00  0.00    +0.004 A 
ATOM      9  C   UNL     1      -8.521   6.725   0.679  0.00  0.00    +0.000 A 
ATOM     10  C   UNL     1      -7.334   7.331   1.128  0.00  0.00    +0.000 A 
ATOM     11  C   UNL     1      -6.834   8.373   0.415  0.00  0.00    +0.000 A 
ATOM     12  C   UNL     1      -7.430   8.829  -0.734  0.00  0.00    +0.000 A 
ATOM     13  C   UNL     1      -8.562   8.189  -1.186  0.00  0.00    +0.000 A 
ENDBRANCH   7   8
BRANCH  14  15
ATOM     15  C   UNL     1      -9.988   5.894  -3.420  0.00  0.00    +0.000 A 
ATOM     16  C   UNL     1      -8.690   5.410  -3.366  0.00  0.00    +0.003 A 
ATOM     17  C   UNL     1      -8.080   5.079  -4.543  0.00  0.00    +0.037 A 
ATOM     18  C   UNL     1      -8.718   5.159  -5.739  0.00  0.00    +0.139 A 
ATOM     19  C   UNL     1     -10.039   5.595  -5.814  0.00  0.00    +0.037 A 
ATOM     22  C   UNL     1     -10.683   5.893  -4.619  0.00  0.00    +0.003 A 
BRANCH  18  20
ATOM     20  O   UNL     1      -8.103   4.859  -6.919  0.00  0.00    -0.471 OA
ATOM     21  C   UNL     1      -6.780   4.342  -7.093  0.00  0.00    +0.253 C 
ENDBRANCH  18  20
ENDBRANCH  14  15
TORSDOF 4
