REMARK  Name = 14X
REMARK  2 active torsions:
REMARK  status: ('A' for Active; 'I' for Inactive)
REMARK    1  A    between atoms: C4_1  and  S_14
REMARK    2  A    between atoms: N2_11  and  S_14
REMARK                            x       y       z     vdW  Elec       q    Type
REMARK                         _______ _______ _______ _____ _____    ______ ____
ROOT
ATOM      1  C   UNL     1      50.332   2.294  21.586  0.00  0.00    +0.122 A 
ATOM      2  C   UNL     1      50.130   3.458  22.357  0.00  0.00    +0.021 A 
ATOM      3  C   UNL     1      50.580   4.697  21.960  0.00  0.00    +0.018 A 
ATOM      4  C   UNL     1      51.302   4.755  20.769  0.00  0.00    +0.073 A 
ATOM      5  N   UNL     1      51.975   5.996  20.434  0.00  0.00    -0.163 NA
ATOM      6  C   UNL     1      52.887   6.133  19.374  0.00  0.00    +0.328 C 
ATOM      7  O   UNL     1      53.565   7.141  19.403  0.00  0.00    -0.250 OA
ATOM      8  N   UNL     1      53.059   5.050  18.602  0.00  0.00    -0.257 N 
ATOM      9  C   UNL     1      52.074   3.902  18.596  0.00  0.00    +0.123 C 
ATOM     10  C   UNL     1      54.192   5.051  17.601  0.00  0.00    +0.117 C 
ATOM     11  C   UNL     1      51.456   3.635  19.953  0.00  0.00    +0.015 A 
ATOM     20  C   UNL     1      50.990   2.390  20.356  0.00  0.00    +0.019 A 
ENDROOT
BRANCH   1  12
ATOM     12  S   UNL     1      49.816   0.752  22.162  0.00  0.00    +0.063 S 
ATOM     13  O   UNL     1      48.820   1.077  23.152  0.00  0.00    -0.153 OA
ATOM     19  O   UNL     1      49.812  -0.101  21.090  0.00  0.00    -0.153 OA
BRANCH  12  14
ATOM     14  N   UNL     1      51.157   0.297  22.953  0.00  0.00    -0.156 NA
ATOM     15  C   UNL     1      51.526   0.550  24.380  0.00  0.00    +0.096 C 
ATOM     16  C   UNL     1      53.015   0.469  24.379  0.00  0.00    +0.021 C 
ATOM     17  C   UNL     1      53.271  -0.642  23.361  0.00  0.00    +0.021 C 
ATOM     18  C   UNL     1      52.345  -0.286  22.236  0.00  0.00    +0.096 C 
ENDBRANCH  12  14
ENDBRANCH   1  12
TORSDOF 2
