REMARK  Name = 3rk7_ligand
REMARK  6 active torsions:
REMARK  status: ('A' for Active; 'I' for Inactive)
REMARK    1  A    between atoms: C1_1  and  N2_2
REMARK    2  A    between atoms: C5_5  and  N8_8
REMARK    3  A    between atoms: C6_6  and  C9_9
REMARK    4  A    between atoms: C9_9  and  C10_10
REMARK    5  A    between atoms: C9_9  and  O16_16
REMARK    6  A    between atoms: C19_19  and  C22_22
REMARK                            x       y       z     vdW  Elec       q    Type
REMARK                         _______ _______ _______ _____ _____    ______ ____
ROOT
ATOM     12  N   UNL     1      90.827 118.507 -48.855  0.00  0.00    -0.239 N 
ATOM     13  H   UNL     1      90.357 119.141 -49.517  0.00  0.00    +0.221 HD
ATOM     14  C   UNL     1      91.927 117.844 -49.348  0.00  0.00    +0.189 A 
ATOM     15  S   UNL     1      92.955 116.723 -48.498  0.00  0.00    +0.003 S 
ATOM     16  C   UNL     1      93.836 116.524 -49.936  0.00  0.00    +0.060 A 
ATOM     26  C   UNL     1      93.348 117.312 -50.962  0.00  0.00    +0.055 A 
ATOM     30  N   UNL     1      92.276 118.047 -50.628  0.00  0.00    -0.301 NA
ENDROOT
BRANCH  12   1
ATOM      1  C   UNL     1      90.269 118.439 -47.600  0.00  0.00    +0.071 A 
ATOM      2  C   UNL     1      90.341 117.269 -46.758  0.00  0.00    +0.023 A 
ATOM      3  C   UNL     1      89.727 117.250 -45.478  0.00  0.00    +0.012 A 
ATOM      4  C   UNL     1      89.019 118.395 -44.993  0.00  0.00    +0.037 A 
ATOM     10  C   UNL     1      88.939 119.570 -45.823  0.00  0.00    +0.012 A 
ATOM     11  C   UNL     1      89.551 119.592 -47.106  0.00  0.00    +0.023 A 
BRANCH   4   5
ATOM      5  C   UNL     1      88.362 118.387 -43.649  0.00  0.00    +0.194 C 
ATOM      6  N   UNL     1      88.401 117.348 -42.865  0.00  0.00    -0.302 N 
ATOM      7  H   UNL     1      88.881 116.520 -43.155  0.00  0.00    +0.180 HD
ATOM      8  H   UNL     1      87.951 117.378 -41.973  0.00  0.00    +0.180 HD
ATOM      9  O   UNL     1      87.705 119.495 -43.239  0.00  0.00    -0.391 OA
ENDBRANCH   4   5
ENDBRANCH  12   1
BRANCH  26  27
ATOM     27  N   UNL     1      93.839 117.338 -52.135  0.00  0.00    -0.352 N 
ATOM     28  H   UNL     1      93.413 117.935 -52.858  0.00  0.00    +0.162 HD
ATOM     29  H   UNL     1      94.663 116.763 -52.361  0.00  0.00    +0.162 HD
ENDBRANCH  26  27
BRANCH  16  17
ATOM     17  C   UNL     1      94.996 115.597 -50.058  0.00  0.00    +0.208 C 
BRANCH  17  20
ATOM     20  C   UNL     1      95.448 114.702 -48.953  0.00  0.00    +0.019 A 
ATOM     21  C   UNL     1      96.822 114.536 -48.639  0.00  0.00    +0.092 A 
ATOM     22  N   UNL     1      97.179 113.668 -47.611  0.00  0.00    -0.305 NA
ATOM     23  C   UNL     1      96.255 112.945 -46.872  0.00  0.00    +0.080 A 
ATOM     24  C   UNL     1      94.873 113.072 -47.152  0.00  0.00    +0.029 A 
ATOM     25  C   UNL     1      94.471 113.944 -48.190  0.00  0.00    +0.031 A 
ENDBRANCH  17  20
BRANCH  17  18
ATOM     18  O   UNL     1      95.643 115.551 -51.224  0.00  0.00    -0.371 OA
ATOM     19  H   UNL     1      95.249 116.170 -51.828  0.00  0.00    +0.215 HD
ENDBRANCH  17  18
ENDBRANCH  16  17
TORSDOF 6
