REMARK  Name = 4d1s_ligand
REMARK  8 active torsions:
REMARK  status: ('A' for Active; 'I' for Inactive)
REMARK    1  A    between atoms: N10_3  and  C35_4
REMARK    2  A    between atoms: N7_7  and  C16_8
REMARK    3  A    between atoms: C13_13  and  N34_14
REMARK    4  A    between atoms: C19_20  and  C29_21
REMARK    5  A    between atoms: N25_22  and  C33_23
REMARK    6  A    between atoms: C27_25  and  C30_26
REMARK    7  A    between atoms: C26_29  and  C1_30
REMARK    8  A    between atoms: C6_36  and  C36_37
REMARK                            x       y       z     vdW  Elec       q    Type
REMARK                         _______ _______ _______ _____ _____    ______ ____
ROOT
ATOM      7  N   UNL     1       6.173  -6.440   5.484  0.00  0.00    -0.250 N 
ATOM      8  H   UNL     1       5.585  -7.219   5.814  0.00  0.00    +0.214 HD
ATOM      9  C   UNL     1       7.533  -6.719   5.383  0.00  0.00    +0.199 A 
ATOM     10  N   UNL     1       7.896  -7.976   5.742  0.00  0.00    -0.261 NA
ATOM     11  C   UNL     1       9.228  -8.388   5.739  0.00  0.00    +0.093 A 
ATOM     12  C   UNL     1      10.156  -7.434   5.285  0.00  0.00    +0.040 A 
ATOM     13  C   UNL     1       9.785  -6.118   4.933  0.00  0.00    +0.066 A 
ATOM     33  N   UNL     1       8.447  -5.800   4.995  0.00  0.00    -0.257 NA
ENDROOT
BRANCH   7   6
ATOM      3  C   UNL     1       3.923  -3.067   4.697  0.00  0.00    +0.030 A 
ATOM      4  C   UNL     1       3.308  -4.248   5.145  0.00  0.00    -0.004 A 
ATOM      5  C   UNL     1       4.125  -5.372   5.353  0.00  0.00    +0.002 A 
ATOM      6  C   UNL     1       5.507  -5.280   5.207  0.00  0.00    +0.053 A 
ATOM     34  C   UNL     1       6.072  -4.092   4.739  0.00  0.00    +0.002 A 
ATOM     35  C   UNL     1       5.287  -2.967   4.487  0.00  0.00    -0.004 A 
BRANCH   3   2
ATOM      1  C   UNL     1       1.986  -1.659   5.411  0.00  0.00    +0.177 C 
ATOM      2  N   UNL     1       3.130  -1.935   4.470  0.00  0.00    -0.304 N 
ATOM     36  C   UNL     1       3.455  -1.163   3.290  0.00  0.00    +0.177 C 
ATOM     37  C   UNL     1       2.927   0.258   3.366  0.00  0.00    +0.155 C 
ATOM     38  N   UNL     1       1.526   0.257   3.791  0.00  0.00    +0.236 N 
ATOM     39  H   UNL     1       0.925  -0.266   3.174  0.00  0.00    +0.203 HD
ATOM     40  C   UNL     1       1.247   1.746   3.828  0.00  0.00    +0.190 C 
ATOM     41  C   UNL     1       1.403  -0.180   5.202  0.00  0.00    +0.155 C 
ENDBRANCH   3   2
ENDBRANCH   7   6
BRANCH  13  14
ATOM     14  C   UNL     1      10.697  -5.099   4.601  0.00  0.00    +0.088 A 
ATOM     15  C   UNL     1      12.024  -5.064   4.889  0.00  0.00    +0.006 A 
ATOM     16  C   UNL     1      12.501  -3.794   4.535  0.00  0.00    +0.051 A 
ATOM     17  C   UNL     1      11.508  -3.055   4.056  0.00  0.00    +0.091 A 
ATOM     31  N   UNL     1      10.394  -3.843   4.122  0.00  0.00    -0.257 N 
ATOM     32  C   UNL     1       9.100  -3.475   3.614  0.00  0.00    +0.218 C 
BRANCH  17  18
ATOM     18  C   UNL     1      11.486  -1.743   3.530  0.00  0.00    +0.015 A 
ATOM     19  C   UNL     1      10.660  -0.685   4.097  0.00  0.00    -0.033 A 
ATOM     20  C   UNL     1       9.899  -0.907   5.305  0.00  0.00    +0.092 C 
ATOM     21  C   UNL     1      10.580   0.631   3.552  0.00  0.00    -0.002 A 
ATOM     22  C   UNL     1      11.272   0.962   2.365  0.00  0.00    +0.007 A 
ATOM     23  C   UNL     1      12.056  -0.084   1.803  0.00  0.00    +0.034 A 
ATOM     24 CL   UNL     1      12.995   0.161   0.397  0.00  0.00    -0.077 Cl
ATOM     25  C   UNL     1      12.173  -1.400   2.349  0.00  0.00    +0.019 A 
ENDBRANCH  17  18
BRANCH  16  26
ATOM     26  C   UNL     1      13.814  -3.393   4.636  0.00  0.00    +0.182 C 
ATOM     27  N   UNL     1      14.026  -2.055   4.940  0.00  0.00    -0.304 N 
ATOM     28  H   UNL     1      13.246  -1.443   5.072  0.00  0.00    +0.180 HD
ATOM     29  H   UNL     1      14.958  -1.704   5.027  0.00  0.00    +0.180 HD
ATOM     30  O   UNL     1      14.752  -4.186   4.461  0.00  0.00    -0.398 OA
ENDBRANCH  16  26
ENDBRANCH  13  14
TORSDOF 5
