REMARK  Name = 2xp3_ligand
REMARK  4 active torsions:
REMARK  status: ('A' for Active; 'I' for Inactive)
REMARK    1  A    between atoms: CAL_1  and  OAP_2
REMARK    2  A    between atoms: OAP_2  and  CAH_3
REMARK    3  A    between atoms: CAF_8  and  CAB_9
REMARK    4  A    between atoms: CAA_13  and  CAE_14
REMARK                            x       y       z     vdW  Elec       q    Type
REMARK                         _______ _______ _______ _____ _____    ______ ____
ROOT
ATOM      3  C   UNL     1      39.203 -18.626  12.439  0.00  0.00    +0.103 A 
ATOM      4  C   UNL     1      39.391 -17.473  13.193  0.00  0.00    +0.043 A 
ATOM     13  C   UNL     1      39.769 -17.586  14.563  0.00  0.00    -0.003 A 
ATOM     14  C   UNL     1      39.956 -18.820  15.192  0.00  0.00    -0.022 A 
ATOM     15  C   UNL     1      39.763 -19.966  14.428  0.00  0.00    -0.014 A 
ATOM     16  C   UNL     1      39.381 -19.872  13.072  0.00  0.00    +0.021 A 
ENDROOT
BRANCH   4   5
ATOM      5  C   UNL     1      39.223 -16.208  12.603  0.00  0.00    +0.121 A 
ATOM      6  C   UNL     1      38.851 -15.863  11.292  0.00  0.00    -0.017 A 
ATOM      7  C   UNL     1      38.812 -14.470  11.189  0.00  0.00    -0.008 A 
ATOM      8  C   UNL     1      39.159 -13.987  12.457  0.00  0.00    +0.146 A 
ATOM     12  O   UNL     1      39.429 -15.047  13.290  0.00  0.00    -0.252 OA
BRANCH   8   9
ATOM      9  C   UNL     1      39.350 -12.623  13.091  0.00  0.00    +0.090 C 
ATOM     10  O   UNL     1      39.868 -12.513  14.247  0.00  0.00    -0.562 OA
ATOM     11  O   UNL     1      39.031 -11.601  12.435  0.00  0.00    -0.562 OA
ENDBRANCH   8   9
ENDBRANCH   4   5
BRANCH   3   2
ATOM      1  C   UNL     1      38.574 -19.542  10.235  0.00  0.00    +0.234 C 
ATOM      2  O   UNL     1      38.854 -18.463  11.117  0.00  0.00    -0.319 OA
ENDBRANCH   3   2
TORSDOF 3
