REMARK  Name = 4W4W
REMARK  6 active torsions:
REMARK  status: ('A' for Active; 'I' for Inactive)
REMARK    1  A    between atoms: N_3  and  C_4
REMARK    2  A    between atoms: C_11  and  C_12
REMARK    3  A    between atoms: C_14  and  N_15
REMARK    4  A    between atoms: C_16  and  C_18
REMARK    5  A    between atoms: C_22  and  N_23
REMARK    6  A    between atoms: C_24  and  N_25
REMARK                            x       y       z     vdW  Elec       q    Type
REMARK                         _______ _______ _______ _____ _____    ______ ____
ROOT
ATOM      1  C   UNL     1       2.974 -30.927 -31.976  0.00  0.00    +0.041 A 
ATOM      2  C   UNL     1       3.460 -29.772 -31.337  0.00  0.00    +0.066 A 
ATOM     20  C   UNL     1       2.770 -29.258 -30.199  0.00  0.00    +0.028 A 
ATOM     21  C   UNL     1       1.646 -29.910 -29.702  0.00  0.00    +0.003 A 
ATOM     22  C   UNL     1       1.210 -31.115 -30.306  0.00  0.00    +0.013 A 
ATOM     23  C   UNL     1       1.886 -31.628 -31.434  0.00  0.00    +0.039 A 
ENDROOT
BRANCH   2   3
ATOM      3  N   UNL     1       4.494 -29.058 -31.903  0.00  0.00    -0.238 N 
ATOM      4  N   UNL     1       5.565 -29.563 -32.600  0.00  0.00    -0.173 NA
ATOM      5  C   UNL     1       6.329 -28.574 -33.035  0.00  0.00    +0.158 A 
ATOM      6  C   UNL     1       5.668 -27.372 -32.706  0.00  0.00    +0.073 A 
ATOM     19  C   UNL     1       4.494 -27.720 -32.050  0.00  0.00    +0.138 A 
BRANCH   6   7
ATOM      7  N   UNL     1       6.085 -26.088 -33.086  0.00  0.00    -0.267 N 
ATOM      8  H   UNL     1       6.928 -26.014 -33.741  0.00  0.00    +0.157 HD
ATOM      9  C   UNL     1       5.488 -24.912 -32.677  0.00  0.00    +0.308 C 
ATOM     10  O   UNL     1       4.577 -24.939 -31.923  0.00  0.00    -0.252 OA
ATOM     11  N   UNL     1       5.931 -23.643 -33.198  0.00  0.00    -0.269 N 
ATOM     12  H   UNL     1       5.049 -23.154 -33.555  0.00  0.00    +0.156 HD
BRANCH  11  13
ATOM     13  C   UNL     1       6.921 -23.488 -34.256  0.00  0.00    +0.035 A 
ATOM     14  C   UNL     1       6.798 -24.260 -35.442  0.00  0.00    +0.023 A 
ATOM     15  C   UNL     1       7.656 -24.079 -36.515  0.00  0.00    +0.002 A 
ATOM     16  C   UNL     1       8.696 -23.144 -36.389  0.00  0.00    +0.000 A 
ATOM     17  C   UNL     1       8.789 -22.342 -35.242  0.00  0.00    +0.002 A 
ATOM     18  C   UNL     1       7.902 -22.482 -34.178  0.00  0.00    +0.023 A 
ENDBRANCH  11  13
ENDBRANCH   6   7
ENDBRANCH   2   3
BRANCH  23  24
ATOM     24  C   UNL     1       1.395 -32.863 -32.145  0.00  0.00    +0.248 C 
ATOM     25  O   UNL     1       0.228 -33.194 -32.076  0.00  0.00    -0.270 OA
ATOM     26  N   UNL     1       2.362 -33.592 -32.878  0.00  0.00    -0.281 N 
ATOM     27  H   UNL     1       3.369 -33.237 -32.806  0.00  0.00    +0.155 HD
BRANCH  26  28
ATOM     28  C   UNL     1       2.158 -34.777 -33.727  0.00  0.00    +0.037 A 
ATOM     29  C   UNL     1       3.120 -35.788 -33.727  0.00  0.00    +0.046 A 
ATOM     30  C   UNL     1       2.979 -36.836 -34.618  0.00  0.00    +0.040 A 
ATOM     31  N   UNL     1       1.955 -36.876 -35.487  0.00  0.00    -0.260 NA
ATOM     32  C   UNL     1       1.018 -35.892 -35.521  0.00  0.00    +0.113 A 
ATOM     33  C   UNL     1       3.980 -37.962 -34.617  0.00  0.00    +0.065 C 
ATOM     34  C   UNL     1       1.128 -34.813 -34.666  0.00  0.00    +0.043 A 
ENDBRANCH  26  28
ENDBRANCH  23  24
TORSDOF 5
