REMARK  Name = 6B8U
REMARK  7 active torsions:
REMARK  status: ('A' for Active; 'I' for Inactive)
REMARK    1  A    between atoms: C_1  and  C_9
REMARK    2  A    between atoms: C_2  and  C_10
REMARK    3  A    between atoms: C_7  and  C_19
REMARK    4  A    between atoms: C_16  and  N_29
REMARK    5  A    between atoms: C_17  and  C_18
REMARK    6  A    between atoms: C_20  and  N_23
REMARK    7  A    between atoms: C_24  and  C_25
REMARK                            x       y       z     vdW  Elec       q    Type
REMARK                         _______ _______ _______ _____ _____    ______ ____
ROOT
ATOM      1  C   UNL     1     -25.648   3.807 -10.930  0.00  0.00    -0.043 A 
ATOM      2  C   UNL     1     -26.761   3.007 -10.692  0.00  0.00    +0.006 A 
ATOM      3  C   UNL     1     -27.040   2.490  -9.442  0.00  0.00    +0.023 A 
ATOM      4  C   UNL     1     -26.187   2.740  -8.383  0.00  0.00    +0.034 A 
ATOM     19  C   UNL     1     -25.031   3.482  -8.600  0.00  0.00    +0.031 A 
ATOM     20  C   UNL     1     -25.522   4.489 -12.269  0.00  0.00    +0.044 C 
ATOM     21  C   UNL     1     -24.752   4.023  -9.861  0.00  0.00    -0.016 A 
ENDROOT
BRANCH  21  22
ATOM     22  C   UNL     1     -23.504   4.812 -10.037  0.00  0.00    -0.020 C 
ATOM     23  C   UNL     1     -22.187   4.162 -10.006  0.00  0.00    +0.068 C 
ATOM     24  C   UNL     1     -21.041   4.856 -10.257  0.00  0.00    +0.022 C 
ATOM     25  C   UNL     1     -21.127   6.242 -10.545  0.00  0.00    +0.113 A 
ATOM     26  N   UNL     1     -20.188   7.136 -10.851  0.00  0.00    -0.328 N 
ATOM     27  H   UNL     1     -19.136   6.976 -10.959  0.00  0.00    +0.169 HD
ATOM     28  C   UNL     1     -20.884   8.312 -10.996  0.00  0.00    +0.121 A 
ATOM     34  C   UNL     1     -22.222   8.178 -10.809  0.00  0.00    +0.134 A 
ATOM     35  N   UNL     1     -22.397   6.848 -10.527  0.00  0.00    -0.306 N 
ATOM     36  C   UNL     1     -23.562   6.147 -10.277  0.00  0.00    +0.097 C 
BRANCH  28  29
ATOM     29  N   UNL     1     -20.184   9.486 -11.279  0.00  0.00    -0.271 N 
ATOM     30  H   UNL     1     -19.129   9.386 -11.428  0.00  0.00    +0.156 HD
ATOM     31  C   UNL     1     -20.694  10.749 -11.387  0.00  0.00    +0.215 C 
ATOM     32  O   UNL     1     -21.880  10.997 -11.197  0.00  0.00    -0.276 OA
ATOM     33  C   UNL     1     -19.699  11.816 -11.731  0.00  0.00    +0.109 C 
ENDBRANCH  28  29
ENDBRANCH  21  22
BRANCH   4   5
ATOM      5  N   UNL     1     -26.570   2.318  -7.085  0.00  0.00    -0.281 N 
ATOM      6  H   UNL     1     -27.123   1.404  -7.020  0.00  0.00    +0.155 HD
ATOM      7  C   UNL     1     -26.307   2.955  -5.918  0.00  0.00    +0.248 C 
ATOM      8  O   UNL     1     -25.700   4.020  -5.849  0.00  0.00    -0.270 OA
BRANCH   7   9
ATOM      9  C   UNL     1     -26.793   2.276  -4.683  0.00  0.00    +0.038 A 
ATOM     10  C   UNL     1     -27.092   3.052  -3.566  0.00  0.00    +0.025 A 
ATOM     11  C   UNL     1     -27.522   2.455  -2.381  0.00  0.00    +0.056 A 
ATOM     16  C   UNL     1     -27.648   1.070  -2.326  0.00  0.00    +0.012 A 
ATOM     17  C   UNL     1     -27.356   0.291  -3.437  0.00  0.00    +0.001 A 
ATOM     18  C   UNL     1     -26.926   0.890  -4.610  0.00  0.00    +0.013 A 
BRANCH  11  12
ATOM     12  C   UNL     1     -27.873   3.303  -1.200  0.00  0.00    +0.417 C 
ATOM     13  F   UNL     1     -26.919   4.165  -0.891  0.00  0.00    -0.166 F 
ATOM     14  F   UNL     1     -28.964   4.055  -1.393  0.00  0.00    -0.166 F 
ATOM     15  F   UNL     1     -28.100   2.586  -0.103  0.00  0.00    -0.166 F 
ENDBRANCH  11  12
ENDBRANCH   7   9
ENDBRANCH   4   5
TORSDOF 5
