REMARK  Name = 9QK
REMARK  2 active torsions:
REMARK  status: ('A' for Active; 'I' for Inactive)
REMARK    1  A    between atoms: C_3  and  C1_5
REMARK    2  A    between atoms: C3_13  and  C4_14
REMARK                            x       y       z     vdW  Elec       q    Type
REMARK                         _______ _______ _______ _____ _____    ______ ____
ROOT
ATOM      4  C   UNL     1      -6.815  11.383 -13.007  0.00  0.00    +0.082 A 
ATOM      5  N   UNL     1      -7.275  11.566 -11.778  0.00  0.00    -0.245 NA
ATOM      6  C   UNL     1      -7.337  10.489 -10.935  0.00  0.00    +0.082 A 
ATOM      7  C   UNL     1      -7.840  10.684  -9.625  0.00  0.00    +0.019 A 
ATOM      8  C   UNL     1      -7.921   9.637  -8.746  0.00  0.00    +0.002 A 
ATOM      9  C   UNL     1      -7.508   8.368  -9.119  0.00  0.00    +0.000 A 
ATOM     10  C   UNL     1      -7.022   8.136 -10.375  0.00  0.00    +0.002 A 
ATOM     11  C   UNL     1      -6.928   9.183 -11.321  0.00  0.00    +0.024 A 
ATOM     12  C   UNL     1      -6.459   9.032 -12.656  0.00  0.00    +0.083 A 
ATOM     16  C   UNL     1      -6.386  10.136 -13.468  0.00  0.00    +0.026 A 
ENDROOT
BRANCH   4   3
ATOM      1  C   UNL     1      -5.967  13.759 -15.820  0.00  0.00    +0.002 A 
ATOM      2  C   UNL     1      -5.945  12.659 -14.978  0.00  0.00    +0.002 A 
ATOM      3  C   UNL     1      -6.822  12.567 -13.903  0.00  0.00    +0.020 A 
ATOM     17  C   UNL     1      -7.727  13.607 -13.693  0.00  0.00    +0.031 A 
ATOM     18  C   UNL     1      -7.723  14.680 -14.553  0.00  0.00    +0.140 A 
ATOM     19  F   UNL     1      -8.621  15.679 -14.345  0.00  0.00    -0.204 F 
ATOM     20  C   UNL     1      -6.867  14.790 -15.611  0.00  0.00    +0.030 A 
ENDBRANCH   4   3
BRANCH  12  13
ATOM     13  C   UNL     1      -6.164   7.688 -13.258  0.00  0.00    +0.388 C 
ATOM     14  O   UNL     1      -4.892   7.466 -13.454  0.00  0.00    -0.241 OA
ATOM     15  O   UNL     1      -7.063   6.882 -13.552  0.00  0.00    -0.241 OA
ENDBRANCH  12  13
TORSDOF 2
