REMARK  Name = 6NEC
REMARK  8 active torsions:
REMARK  status: ('A' for Active; 'I' for Inactive)
REMARK    1  A    between atoms: C1_1  and  C3_3
REMARK    2  A    between atoms: C3_3  and  C7_7
REMARK    3  A    between atoms: C15_10  and  N8_34
REMARK    4  A    between atoms: C16_11  and  C21_15
REMARK    5  A    between atoms: C21_15  and  O25_18
REMARK    6  A    between atoms: C27_20  and  N29_32
REMARK    7  A    between atoms: C30_21  and  C32_23
REMARK    8  A    between atoms: C32_23  and  N34_30
REMARK                            x       y       z     vdW  Elec       q    Type
REMARK                         _______ _______ _______ _____ _____    ______ ____
ROOT
ATOM     14  C   UNL     1       5.883   3.244  -2.420  0.00  0.00    +0.050 C 
ATOM     15  N   UNL     1       4.732   3.885  -2.151  0.00  0.00    -0.100 NA
ENDROOT
BRANCH  14   1
ATOM      1  C   UNL     1       5.877   1.815  -2.056  0.00  0.00    +0.000 C 
ATOM      2  C   UNL     1       4.781   1.049  -1.453  0.00  0.00    +0.600 C 
ATOM      3  O   UNL     1       3.647   1.590  -1.178  0.00  0.00    -0.550 OA
ATOM      4  N   UNL     1       5.101  -0.231  -1.252  0.00  0.00    -0.300 NA
ATOM      5  C   UNL     1       6.377  -0.427  -1.693  0.00  0.00    +0.000 C 
ATOM      6  C   UNL     1       7.185  -1.566  -1.682  0.00  0.00    -0.100 C 
ATOM      7  C   UNL     1       8.493  -1.482  -2.178  0.00  0.00    +0.000 C 
ATOM     12  C   UNL     1       9.032  -0.278  -2.664  0.00  0.00    -0.100 C 
ATOM     13  C   UNL     1       8.276   0.909  -2.704  0.00  0.00    -0.100 C 
ATOM     40  C   UNL     1       6.969   0.838  -2.224  0.00  0.00    +0.000 C 
BRANCH   7   8
ATOM      8  C   UNL     1       9.348  -2.718  -2.127  0.00  0.00    +0.700 C 
ATOM      9  O   UNL     1      10.572  -2.698  -2.317  0.00  0.00    -0.550 OA
BRANCH   8  10
ATOM     10  O   UNL     1       8.718  -3.945  -1.767  0.00  0.00    -0.650 OA
ATOM     11  C   UNL     1       9.519  -5.127  -1.633  0.00  0.00    +0.350 C 
ENDBRANCH   8  10
ENDBRANCH   7   8
ENDBRANCH  14   1
BRANCH  15  16
ATOM     16  C   UNL     1       4.372   5.185  -2.225  0.00  0.00    +0.050 A 
ATOM     17  C   UNL     1       3.215   5.526  -1.532  0.00  0.00    -0.130 A 
ATOM     18  C   UNL     1       2.745   6.838  -1.532  0.00  0.00    -0.130 A 
ATOM     19  C   UNL     1       3.418   7.812  -2.269  0.00  0.00    +0.050 A 
ATOM     32  C   UNL     1       4.586   7.475  -2.972  0.00  0.00    -0.130 A 
ATOM     33  C   UNL     1       5.055   6.157  -2.976  0.00  0.00    -0.130 A 
BRANCH  19  20
ATOM     20  N   UNL     1       2.947   9.151  -2.235  0.00  0.00    -0.200 N 
ATOM     21  C   UNL     1       3.000   9.780  -0.920  0.00  0.00    -0.050 C 
ATOM     22  C   UNL     1       2.531   9.834  -3.303  0.00  0.00    +0.600 C 
ATOM     23  O   UNL     1       2.174  10.995  -3.165  0.00  0.00    -0.550 OA
BRANCH  22  24
ATOM     24  C   UNL     1       2.527   9.215  -4.689  0.00  0.00    +0.100 C 
BRANCH  24  25
ATOM     25  N   UNL     1       3.097  10.163  -5.677  0.00  0.00    -0.600 NA
ATOM     26  C   UNL     1       2.777   9.773  -7.066  0.00  0.00    +0.100 C 
ATOM     27  C   UNL     1       3.256  10.881  -8.014  0.00  0.00    +0.100 C 
ATOM     28  N   UNL     1       4.711  11.113  -7.852  0.00  0.00    -0.600 NA
ATOM     29  C   UNL     1       5.145  12.249  -8.684  0.00  0.00    +0.050 C 
ATOM     30  C   UNL     1       5.071  11.399  -6.445  0.00  0.00    +0.100 C 
ATOM     31  C   UNL     1       4.566  10.284  -5.524  0.00  0.00    +0.100 C 
ENDBRANCH  24  25
ENDBRANCH  22  24
ENDBRANCH  19  20
ENDBRANCH  15  16
BRANCH  14  34
ATOM     34  C   UNL     1       7.085   3.853  -3.065  0.00  0.00    +0.000 A 
ATOM     35  C   UNL     1       7.976   4.668  -2.378  0.00  0.00    -0.130 A 
ATOM     36  C   UNL     1       9.087   5.185  -3.047  0.00  0.00    -0.130 A 
ATOM     37  C   UNL     1       9.278   4.891  -4.404  0.00  0.00    -0.130 A 
ATOM     38  C   UNL     1       8.376   4.076  -5.095  0.00  0.00    -0.130 A 
ATOM     39  C   UNL     1       7.274   3.546  -4.422  0.00  0.00    -0.130 A 
ENDBRANCH  14  34
TORSDOF 8
