REMARK  Name = 4gcj_ligand
REMARK  7 active torsions:
REMARK  status: ('A' for Active; 'I' for Inactive)
REMARK    1  A    between atoms: N02_2  and  C09_9
REMARK    2  A    between atoms: N03_3  and  C07_7
REMARK    3  A    between atoms: N04_4  and  S28_28
REMARK    4  A    between atoms: N05_5  and  C12_12
REMARK    5  A    between atoms: C06_6  and  C10_10
REMARK    6  A    between atoms: C10_10  and  C11_11
REMARK    7  A    between atoms: C19_19  and  S28_28
REMARK                            x       y       z     vdW  Elec       q    Type
REMARK                         _______ _______ _______ _____ _____    ______ ____
ROOT
ATOM      1  N   UNL     1     -51.218 101.297 -64.854  0.00  0.00    -0.097 NA
ATOM      2  C   UNL     1     -50.879 100.029 -64.651  0.00  0.00    +0.354 A 
ATOM      3  S   UNL     1     -51.939  99.157 -63.606  0.00  0.00    +0.246 S 
ATOM      4  C   UNL     1     -52.907 100.591 -63.369  0.00  0.00    +0.346 A 
ATOM     16  N   UNL     1     -49.808  99.522 -65.242  0.00  0.00    -0.163 N 
ATOM     17  H   UNL     1     -49.514  99.997 -66.108  0.00  0.00    +0.287 HD
ATOM     30  C   UNL     1     -52.362 101.622 -64.141  0.00  0.00    +0.333 A 
ENDROOT
BRANCH  16  18
ATOM     18  C   UNL     1     -49.049  98.475 -64.873  0.00  0.00    +0.130 A 
ATOM     19  C   UNL     1     -48.038  98.045 -65.779  0.00  0.00    +0.064 A 
ATOM     20  C   UNL     1     -47.182  96.965 -65.451  0.00  0.00    +0.043 A 
ATOM     21  C   UNL     1     -47.331  96.302 -64.215  0.00  0.00    +0.116 A 
ATOM     28  C   UNL     1     -48.331  96.710 -63.305  0.00  0.00    +0.043 A 
ATOM     29  C   UNL     1     -49.177  97.787 -63.632  0.00  0.00    +0.064 A 
BRANCH  21  22
ATOM     22  S   UNL     1     -46.239  94.982 -63.778  0.00  0.00    +0.070 S 
ATOM     23  O   UNL     1     -45.585  94.465 -64.960  0.00  0.00    -0.149 OA
ATOM     24  O   UNL     1     -45.285  95.563 -62.867  0.00  0.00    -0.149 OA
BRANCH  22  25
ATOM     25  N   UNL     1     -47.045  93.769 -62.989  0.00  0.00    -0.260 NA
ATOM     26  H   UNL     1     -48.027  93.849 -62.819  0.00  0.00    +0.164 HD
ATOM     27  H   UNL     1     -46.549  92.957 -62.682  0.00  0.00    +0.164 HD
ENDBRANCH  22  25
ENDBRANCH  21  22
ENDBRANCH  16  18
BRANCH  30  31
ATOM     31  N   UNL     1     -52.871 102.806 -64.183  0.00  0.00    -0.245 N 
ATOM     32  H   UNL     1     -52.427 103.537 -64.756  0.00  0.00    +0.227 HD
ATOM     33  H   UNL     1     -53.722 103.020 -63.643  0.00  0.00    +0.227 HD
ENDBRANCH  30  31
BRANCH   4   5
ATOM      5  C   UNL     1     -54.023 100.684 -62.533  0.00  0.00    +0.325 C 
ATOM      6  O   UNL     1     -54.677 101.738 -62.473  0.00  0.00    -0.272 OA
BRANCH   5   7
ATOM      7  C   UNL     1     -54.368  99.653 -61.632  0.00  0.00    +0.101 A 
ATOM      8  C   UNL     1     -53.412  99.221 -60.661  0.00  0.00    +0.035 A 
ATOM      9  C   UNL     1     -53.731  98.207 -59.732  0.00  0.00    +0.016 A 
ATOM     10  C   UNL     1     -55.004  97.619 -59.752  0.00  0.00    +0.017 A 
ATOM     11  C   UNL     1     -55.964  98.027 -60.699  0.00  0.00    +0.047 A 
ATOM     12  C   UNL     1     -55.672  99.034 -61.645  0.00  0.00    +0.105 A 
BRANCH  12  13
ATOM     13  N   UNL     1     -56.595  99.369 -62.480  0.00  0.00    -0.213 N 
ATOM     14  O   UNL     1     -56.312  99.728 -63.708  0.00  0.00    -0.487 OA
ATOM     15  O   UNL     1     -57.840  99.356 -62.091  0.00  0.00    -0.487 OA
ENDBRANCH  12  13
ENDBRANCH   5   7
ENDBRANCH   4   5
TORSDOF 7
