REMARK  Name = 4L44
REMARK  6 active torsions:
REMARK  status: ('A' for Active; 'I' for Inactive)
REMARK    1  A    between atoms: C_1  and  N_25
REMARK    2  A    between atoms: C_2  and  C_26
REMARK    3  A    between atoms: C_7  and  C_10
REMARK    4  A    between atoms: C_18  and  C_19
REMARK    5  A    between atoms: C_19  and  N_20
REMARK    6  A    between atoms: C_26  and  C_27
REMARK                            x       y       z     vdW  Elec       q    Type
REMARK                         _______ _______ _______ _____ _____    ______ ____
ROOT
ATOM      7  C   UNL     1     -44.873  15.011   7.117  0.00  0.00    +0.158 C 
ENDROOT
BRANCH   7   8
ATOM      8  C   UNL     1     -45.536  13.971   8.031  0.00  0.00    +0.122 A 
ATOM      9  N   UNL     1     -45.449  13.939   9.362  0.00  0.00    -0.341 N 
ATOM     10  H   UNL     1     -44.913  14.636   9.972  0.00  0.00    +0.167 HD
ATOM     11  C   UNL     1     -46.141  12.895   9.801  0.00  0.00    +0.067 A 
ATOM     12  C   UNL     1     -46.669  12.258   8.686  0.00  0.00    +0.089 A 
ATOM     13  C   UNL     1     -47.450  11.117   8.829  0.00  0.00    +0.030 A 
ATOM     14  C   UNL     1     -47.698  10.615  10.103  0.00  0.00    +0.014 A 
ATOM     15  C   UNL     1     -47.168  11.251  11.227  0.00  0.00    +0.057 A 
ATOM     20  C   UNL     1     -46.383  12.394  11.078  0.00  0.00    +0.040 A 
ATOM     21  N   UNL     1     -46.277  12.943   7.621  0.00  0.00    -0.231 NA
BRANCH  15  16
ATOM     16  C   UNL     1     -47.450  10.670  12.617  0.00  0.00    +0.417 C 
ATOM     17  F   UNL     1     -46.985  11.476  13.567  0.00  0.00    -0.166 F 
ATOM     18  F   UNL     1     -46.828   9.499  12.708  0.00  0.00    -0.166 F 
ATOM     19  F   UNL     1     -48.759  10.482  12.775  0.00  0.00    -0.166 F 
ENDBRANCH  15  16
ENDBRANCH   7   8
BRANCH   7   5
ATOM      2  N   UNL     1     -47.806  18.093   6.591  0.00  0.00    -0.313 N 
ATOM      3  C   UNL     1     -46.591  18.362   7.410  0.00  0.00    +0.122 C 
ATOM      4  C   UNL     1     -46.079  17.040   7.965  0.00  0.00    +0.104 C 
ATOM      5  N   UNL     1     -45.749  16.163   6.825  0.00  0.00    -0.292 NA
ATOM      6  C   UNL     1     -46.746  15.980   5.742  0.00  0.00    +0.104 C 
ATOM     22  C   UNL     1     -48.055  16.733   6.031  0.00  0.00    +0.122 C 
BRANCH   2   1
ATOM      1  C   UNL     1     -48.722  19.130   6.326  0.00  0.00    +0.128 A 
ATOM     23  N   UNL     1     -49.119  19.320   5.063  0.00  0.00    -0.221 NA
ATOM     24  C   UNL     1     -49.970  20.278   4.744  0.00  0.00    +0.223 A 
ATOM     25  N   UNL     1     -50.465  21.086   5.661  0.00  0.00    -0.243 NA
ATOM     26  C   UNL     1     -50.114  20.960   6.928  0.00  0.00    +0.119 A 
ATOM     27  C   UNL     1     -49.229  19.968   7.326  0.00  0.00    +0.010 A 
BRANCH  27  28
ATOM     28  C   UNL     1     -48.895  19.918   8.822  0.00  0.00    +0.037 C 
ATOM     29  C   UNL     1     -49.493  18.684   9.498  0.00  0.00    +0.009 C 
ENDBRANCH  27  28
ENDBRANCH   2   1
ENDBRANCH   7   5
TORSDOF 5
