REMARK  Name = 4R7I
REMARK  8 active torsions:
REMARK  status: ('A' for Active; 'I' for Inactive)
REMARK    1  A    between atoms: C_3  and  C_7
REMARK    2  A    between atoms: N_13  and  C_14
REMARK    3  A    between atoms: C_15  and  C_37
REMARK    4  A    between atoms: C_18  and  N_20
REMARK    5  A    between atoms: C_21  and  C_22
REMARK    6  A    between atoms: C_25  and  C_28
REMARK    7  A    between atoms: C_28  and  N_29
REMARK    8  A    between atoms: N_32  and  C_33
REMARK                            x       y       z     vdW  Elec       q    Type
REMARK                         _______ _______ _______ _____ _____    ______ ____
ROOT
ATOM     11  C   UNL     1      37.632  13.174  72.827  0.00  0.00    +0.038 A 
ATOM     12  C   UNL     1      38.430  12.972  73.959  0.00  0.00    +0.047 A 
ATOM     13  C   UNL     1      39.785  13.248  73.899  0.00  0.00    +0.035 A 
ATOM     32  C   UNL     1      40.350  13.733  72.732  0.00  0.00    +0.024 A 
ATOM     33  C   UNL     1      39.582  13.935  71.614  0.00  0.00    +0.007 A 
ATOM     34  C   UNL     1      38.223  13.662  71.651  0.00  0.00    -0.029 A 
ATOM     35  C   UNL     1      37.404  13.898  70.424  0.00  0.00    +0.045 C 
ENDROOT
BRANCH  11   9
ATOM      6  C   UNL     1      32.972  14.031  73.398  0.00  0.00    +0.077 A 
ATOM      7  N   UNL     1      34.007  13.298  73.003  0.00  0.00    -0.214 NA
ATOM      8  C   UNL     1      35.233  13.763  73.211  0.00  0.00    +0.220 A 
ATOM      9  N   UNL     1      36.258  12.948  72.777  0.00  0.00    -0.283 N 
ATOM     10  H   UNL     1      35.957  12.017  72.344  0.00  0.00    +0.155 HD
ATOM     36  N   UNL     1      35.490  14.923  73.794  0.00  0.00    -0.223 NA
ATOM     37  C   UNL     1      34.442  15.628  74.176  0.00  0.00    +0.116 A 
ATOM     38  C   UNL     1      33.153  15.230  74.012  0.00  0.00    +0.048 A 
BRANCH   6   5
ATOM      1  C   UNL     1      29.284  13.400  73.194  0.00  0.00    +0.020 A 
ATOM      2  C   UNL     1      29.345  12.175  72.607  0.00  0.00    +0.111 A 
ATOM      3  N   UNL     1      30.468  11.546  72.275  0.00  0.00    -0.263 NA
ATOM      4  C   UNL     1      31.600  12.185  72.552  0.00  0.00    +0.120 A 
ATOM      5  C   UNL     1      31.682  13.425  73.133  0.00  0.00    +0.019 A 
ATOM     39  C   UNL     1      30.479  14.024  73.458  0.00  0.00    +0.013 A 
ENDBRANCH   6   5
ENDBRANCH  11   9
BRANCH  13  14
ATOM     14  N   UNL     1      40.656  13.095  74.966  0.00  0.00    -0.281 N 
ATOM     15  H   UNL     1      41.571  13.650  74.938  0.00  0.00    +0.155 HD
ATOM     16  C   UNL     1      40.445  12.307  76.032  0.00  0.00    +0.248 C 
ATOM     17  O   UNL     1      39.430  11.719  76.254  0.00  0.00    -0.270 OA
BRANCH  16  18
ATOM     18  C   UNL     1      41.607  12.195  76.931  0.00  0.00    +0.037 A 
ATOM     19  C   UNL     1      41.532  11.396  78.058  0.00  0.00    +0.013 A 
ATOM     20  C   UNL     1      42.623  11.285  78.903  0.00  0.00    +0.006 A 
ATOM     21  C   UNL     1      43.792  11.975  78.628  0.00  0.00    -0.033 A 
ATOM     30  C   UNL     1      43.862  12.766  77.501  0.00  0.00    +0.006 A 
ATOM     31  C   UNL     1      42.779  12.877  76.663  0.00  0.00    +0.013 A 
BRANCH  21  22
ATOM     22  C   UNL     1      44.976  11.889  79.531  0.00  0.00    +0.119 C 
BRANCH  22  23
ATOM     23  N   UNL     1      45.504  13.192  79.926  0.00  0.00    -0.296 NA
ATOM     24  C   UNL     1      44.541  13.872  80.766  0.00  0.00    +0.100 C 
ATOM     25  C   UNL     1      45.066  15.262  81.079  0.00  0.00    +0.099 C 
ATOM     26  N   UNL     1      46.335  15.155  81.774  0.00  0.00    -0.303 NA
ATOM     27  C   UNL     1      46.819  16.458  82.163  0.00  0.00    +0.105 C 
ATOM     28  C   UNL     1      47.332  14.398  81.041  0.00  0.00    +0.099 C 
ATOM     29  C   UNL     1      46.791  13.048  80.596  0.00  0.00    +0.100 C 
ENDBRANCH  22  23
ENDBRANCH  21  22
ENDBRANCH  16  18
ENDBRANCH  13  14
TORSDOF 6
