REMARK  Name = 54E
REMARK  4 active torsions:
REMARK  status: ('A' for Active; 'I' for Inactive)
REMARK    1  A    between atoms: C4_4  and  C7_10
REMARK    2  A    between atoms: C1_7  and  C_8
REMARK    3  A    between atoms: C4_19  and  C7_25
REMARK    4  A    between atoms: C1_22  and  C_23
REMARK                            x       y       z     vdW  Elec       q    Type
REMARK                         _______ _______ _______ _____ _____    ______ ____
ROOT
ATOM      1 CL   UNL     1      15.652 158.484 380.816  0.00  0.00    -0.082 Cl
ATOM      2  C   UNL     1      17.357 158.274 380.584  0.00  0.00    +0.057 A 
ATOM      3  C   UNL     1      18.002 157.106 381.029  0.00  0.00    +0.011 A 
ATOM     10  C   UNL     1      19.400 157.077 380.961  0.00  0.00    +0.001 A 
ATOM     11  C   UNL     1      20.106 158.155 380.452  0.00  0.00    -0.003 A 
ATOM     12  C   UNL     1      19.453 159.286 379.973  0.00  0.00    -0.002 A 
ATOM     15  C   UNL     1      18.064 159.331 380.044  0.00  0.00    +0.009 A 
ENDROOT
BRANCH   3   4
ATOM      4  C   UNL     1      17.288 155.913 381.565  0.00  0.00    +0.001 A 
ATOM      5  C   UNL     1      17.607 155.393 382.819  0.00  0.00    +0.000 A 
ATOM      6  C   UNL     1      16.907 154.315 383.341  0.00  0.00    +0.000 A 
ATOM      7  C   UNL     1      15.879 153.736 382.619  0.00  0.00    +0.000 A 
ATOM      8  C   UNL     1      15.564 154.223 381.363  0.00  0.00    +0.000 A 
ATOM      9  C   UNL     1      16.261 155.301 380.838  0.00  0.00    +0.000 A 
ENDBRANCH   3   4
BRANCH  12  13
ATOM     13  C   UNL     1      20.228 160.418 379.338  0.00  0.00    +0.136 C 
ATOM     14  N   UNL     1      19.988 160.518 377.881  0.00  0.00    -0.126 NA
ENDBRANCH  12  13
TORSDOF 2
