REMARK  Name = 3bi6_ligand
REMARK  7 active torsions:
REMARK  status: ('A' for Active; 'I' for Inactive)
REMARK    1  A    between atoms: N4_5  and  C24_6
REMARK    2  A    between atoms: C24_6  and  C23_7
REMARK    3  A    between atoms: C23_7  and  N3_8
REMARK    4  A    between atoms: C22_9  and  C20_11
REMARK    5  A    between atoms: C19_13  and  O3_14
REMARK    6  A    between atoms: N2_18  and  C21_19
REMARK    7  A    between atoms: C2_30  and  C7_31
REMARK                            x       y       z     vdW  Elec       q    Type
REMARK                         _______ _______ _______ _____ _____    ______ ____
ROOT
ATOM      9  C   UNL     1       5.567  54.470  21.522  0.00  0.00    +0.069 A 
ATOM     10  C   UNL     1       6.576  54.695  22.468  0.00  0.00    +0.096 A 
ATOM     11  C   UNL     1       6.273  54.477  23.815  0.00  0.00    +0.017 A 
ATOM     12  C   UNL     1       4.977  54.112  24.219  0.00  0.00    -0.002 A 
ATOM     13  C   UNL     1       4.407  53.882  25.472  0.00  0.00    +0.021 A 
ATOM     14  C   UNL     1       4.848  53.942  26.830  0.00  0.00    +0.068 A 
ATOM     15  C   UNL     1       3.940  53.636  27.862  0.00  0.00    +0.067 A 
ATOM     16  C   UNL     1       2.603  53.288  27.590  0.00  0.00    -0.004 A 
ATOM     24  C   UNL     1       2.207  53.239  26.269  0.00  0.00    +0.036 A 
ATOM     25  C   UNL     1       4.677  53.735  29.060  0.00  0.00    +0.229 A 
ATOM     26  O   UNL     1       4.224  53.515  30.169  0.00  0.00    -0.372 OA
ATOM     27  N   UNL     1       5.922  54.109  28.847  0.00  0.00    -0.201 N 
ATOM     28  H   UNL     1       6.623  54.285  29.538  0.00  0.00    +0.221 HD
ATOM     29  C   UNL     1       6.059  54.206  27.505  0.00  0.00    +0.234 A 
ATOM     30  O   UNL     1       7.094  54.621  26.982  0.00  0.00    -0.368 OA
ATOM     31  C   UNL     1       3.063  53.573  25.199  0.00  0.00    +0.077 A 
ATOM     32  N   UNL     1       2.874  53.552  23.859  0.00  0.00    -0.263 N 
ATOM     33  C   UNL     1       1.611  53.253  23.143  0.00  0.00    +0.199 C 
ATOM     34  C   UNL     1       3.986  53.899  23.238  0.00  0.00    +0.067 A 
ATOM     37  C   UNL     1       4.268  54.099  21.872  0.00  0.00    +0.033 A 
ENDROOT
BRANCH  16  17
ATOM     17  C   UNL     1       1.633  53.001  28.610  0.00  0.00    -0.003 A 
ATOM     18  C   UNL     1       1.241  53.997  29.567  0.00  0.00    +0.049 A 
ATOM     19 CL   UNL     1       1.848  55.610  29.615  0.00  0.00    -0.069 Cl
ATOM     20  C   UNL     1       0.263  53.755  30.564  0.00  0.00    +0.016 A 
ATOM     21  C   UNL     1      -0.335  52.484  30.617  0.00  0.00    +0.001 A 
ATOM     22  C   UNL     1       0.011  51.548  29.643  0.00  0.00    +0.001 A 
ATOM     23  C   UNL     1       0.982  51.763  28.650  0.00  0.00    +0.010 A 
ENDBRANCH  16  17
BRANCH   9   8
ATOM      6  N   UNL     1       6.482  55.806  19.764  0.00  0.00    -0.283 N 
ATOM      7  H   UNL     1       6.995  56.269  20.487  0.00  0.00    +0.184 HD
ATOM      8  C   UNL     1       5.783  54.720  20.025  0.00  0.00    +0.197 C 
ATOM     38  O   UNL     1       5.109  54.182  19.167  0.00  0.00    -0.391 OA
BRANCH   6   5
ATOM      5  C   UNL     1       6.492  56.335  18.356  0.00  0.00    +0.184 C 
BRANCH   5   4
ATOM      4  C   UNL     1       7.849  56.340  17.694  0.00  0.00    +0.155 C 
BRANCH   4   2
ATOM      1  C   UNL     1       9.239  55.187  16.126  0.00  0.00    +0.131 C 
ATOM      2  N   UNL     1       8.188  54.994  17.154  0.00  0.00    +0.237 N 
ATOM      3  H   UNL     1       7.363  54.562  16.768  0.00  0.00    +0.203 HD
ATOM     39  C   UNL     1       8.818  54.106  18.152  0.00  0.00    +0.131 C 
ATOM     40  C   UNL     1      10.271  53.866  17.627  0.00  0.00    +0.056 C 
ATOM     41  C   UNL     1      10.035  53.893  16.136  0.00  0.00    +0.056 C 
ENDBRANCH   4   2
ENDBRANCH   5   4
ENDBRANCH   6   5
ENDBRANCH   9   8
BRANCH  10  35
ATOM     35  O   UNL     1       7.877  55.046  22.105  0.00  0.00    -0.336 OA
ATOM     36  H   UNL     1       8.405  55.153  22.887  0.00  0.00    +0.247 HD
ENDBRANCH  10  35
TORSDOF 6
