REMARK  Name = 2YN8
REMARK  8 active torsions:
REMARK  status: ('A' for Active; 'I' for Inactive)
REMARK    1  A    between atoms: C_22  and  C_23
REMARK    2  A    between atoms: C_27  and  C_29
REMARK    3  A    between atoms: C_29  and  C_30
REMARK    4  A    between atoms: C_30  and  N_31
REMARK    5  A    between atoms: C_30  and  C_33
REMARK    6  A    between atoms: N_31  and  C_32
REMARK    7  A    between atoms: C_33  and  O_34
REMARK    8  A    between atoms: O_34  and  C_35
REMARK                            x       y       z     vdW  Elec       q    Type
REMARK                         _______ _______ _______ _____ _____    ______ ____
ROOT
ATOM      1  O   UNL     1       9.886   3.295 -32.442  0.00  0.00    -0.270 OA
ATOM      2  C   UNL     1       9.033   2.859 -31.679  0.00  0.00    +0.245 C 
ATOM      3  N   UNL     1       8.185   3.659 -30.898  0.00  0.00    -0.307 N 
ATOM      4  H   UNL     1       8.235   4.727 -30.852  0.00  0.00    +0.149 HD
ATOM      5  C   UNL     1       7.205   2.828 -30.139  0.00  0.00    +0.141 C 
ATOM      6  C   UNL     1       7.525   1.440 -30.623  0.00  0.00    -0.008 A 
ATOM      7  C   UNL     1       6.929   0.209 -30.299  0.00  0.00    +0.015 A 
ATOM      8  C   UNL     1       7.497  -0.974 -30.817  0.00  0.00    +0.077 A 
ATOM      9  C   UNL     1       8.652  -0.930 -31.665  0.00  0.00    +0.077 A 
ATOM     10  N   UNL     1       9.388  -1.942 -32.255  0.00  0.00    -0.312 N 
ATOM     11  C   UNL     1       9.116  -3.390 -32.149  0.00  0.00    +0.224 C 
ATOM     20  O   UNL     1       7.725  -3.553 -31.866  0.00  0.00    -0.334 OA
ATOM     21  C   UNL     1       7.227  -3.516 -30.522  0.00  0.00    +0.219 C 
ATOM     22  C   UNL     1       6.108  -4.539 -30.587  0.00  0.00    +0.063 C 
ATOM     23  C   UNL     1      10.435  -1.374 -32.991  0.00  0.00    +0.052 A 
ATOM     24  C   UNL     1      11.393  -1.985 -33.802  0.00  0.00    +0.026 A 
ATOM     25  C   UNL     1      12.304  -1.180 -34.471  0.00  0.00    +0.002 A 
ATOM     26  C   UNL     1      12.242   0.205 -34.360  0.00  0.00    +0.001 A 
ATOM     27  C   UNL     1      11.315   0.807 -33.521  0.00  0.00    +0.010 A 
ATOM     28  C   UNL     1      10.415   0.021 -32.801  0.00  0.00    +0.009 A 
ATOM     29  C   UNL     1       9.233   0.312 -31.994  0.00  0.00    +0.022 A 
ATOM     30  N   UNL     1       6.779  -2.094 -30.295  0.00  0.00    -0.312 N 
ATOM     31  C   UNL     1       5.822  -1.597 -29.376  0.00  0.00    +0.052 A 
ATOM     32  C   UNL     1       4.908  -2.286 -28.582  0.00  0.00    +0.026 A 
ATOM     33  C   UNL     1       3.966  -1.561 -27.864  0.00  0.00    +0.002 A 
ATOM     34  C   UNL     1       4.029  -0.183 -27.816  0.00  0.00    +0.001 A 
ATOM     35  C   UNL     1       4.921   0.509 -28.621  0.00  0.00    +0.010 A 
ATOM     36  C   UNL     1       5.868  -0.191 -29.370  0.00  0.00    +0.008 A 
ATOM     37  C   UNL     1       8.645   1.456 -31.446  0.00  0.00    +0.052 A 
ENDROOT
BRANCH  11  12
ATOM     12  C   UNL     1      10.095  -4.073 -31.224  0.00  0.00    +0.075 C 
BRANCH  12  13
ATOM     13  C   UNL     1       9.393  -4.864 -30.116  0.00  0.00    +0.083 C 
BRANCH  13  17
ATOM     17  N   UNL     1      10.229  -5.541 -29.094  0.00  0.00    -0.314 NA
ATOM     18  H   UNL     1       9.579  -6.007 -28.383  0.00  0.00    +0.122 HD
ATOM     19  C   UNL     1      11.129  -6.568 -29.641  0.00  0.00    +0.101 C 
ENDBRANCH  13  17
BRANCH  13  14
ATOM     14  C   UNL     1       8.345  -3.939 -29.416  0.00  0.00    +0.178 C 
BRANCH  14  15
ATOM     15  O   UNL     1       9.052  -2.809 -28.919  0.00  0.00    -0.381 OA
ATOM     16  C   UNL     1       8.637  -2.365 -27.630  0.00  0.00    +0.193 C 
ENDBRANCH  14  15
ENDBRANCH  13  14
ENDBRANCH  12  13
ENDBRANCH  11  12
TORSDOF 5
