REMARK  Name = 1A5
REMARK  2 active torsions:
REMARK  status: ('A' for Active; 'I' for Inactive)
REMARK    1  A    between atoms: NAO_6  and  CAN_7
REMARK    2  A    between atoms: CAM_10  and  CAK_11
REMARK                            x       y       z     vdW  Elec       q    Type
REMARK                         _______ _______ _______ _____ _____    ______ ____
ROOT
ATOM      7  C   UNL     1      -9.866  -8.043   1.302  0.00  0.00    +0.057 A 
ATOM      8  C   UNL     1     -11.116  -7.834   1.854  0.00  0.00    +0.015 A 
ATOM      9  C   UNL     1     -12.041  -7.052   1.187  0.00  0.00    +0.006 A 
ATOM     10  C   UNL     1     -11.727  -6.472  -0.027  0.00  0.00    +0.057 A 
ATOM     11  C   UNL     1     -10.477  -6.673  -0.590  0.00  0.00    +0.006 A 
ATOM     15  C   UNL     1      -9.543  -7.452   0.088  0.00  0.00    +0.015 A 
ENDROOT
BRANCH   7   6
ATOM      1  O   UNL     1      -8.636  -7.175   3.616  0.00  0.00    -0.226 OA
ATOM      2  C   UNL     1      -8.204  -8.152   3.017  0.00  0.00    +0.409 C 
ATOM      3  O   UNL     1      -6.974  -8.792   3.276  0.00  0.00    -0.432 OA
ATOM      4  C   UNL     1      -6.814  -9.705   2.206  0.00  0.00    +0.232 C 
ATOM      5  C   UNL     1      -8.216 -10.071   1.843  0.00  0.00    +0.149 C 
ATOM      6  N   UNL     1      -8.839  -8.833   1.954  0.00  0.00    -0.221 N 
ENDBRANCH   7   6
BRANCH  10  12
ATOM     12  C   UNL     1     -12.733  -5.628  -0.727  0.00  0.00    +0.284 C 
ATOM     13  O   UNL     1     -13.851  -5.550  -0.258  0.00  0.00    -0.267 OA
ATOM     14  N   UNL     1     -12.388  -4.917  -1.924  0.00  0.00    -0.084 NA
ENDBRANCH  10  12
TORSDOF 2
