REMARK  Name = 3owl_ligand
REMARK  2 active torsions:
REMARK  status: ('A' for Active; 'I' for Inactive)
REMARK    1  A    between atoms: C1_1  and  O1_2
REMARK    2  A    between atoms: C14_15  and  C15_16
REMARK                            x       y       z     vdW  Elec       q    Type
REMARK                         _______ _______ _______ _____ _____    ______ ____
ROOT
ATOM      1  C   UNL     1      23.493   7.444  10.838  0.00  0.00    +0.084 A 
ATOM      2  C   UNL     1      23.448   6.110  11.248  0.00  0.00    +0.024 A 
ATOM      3  C   UNL     1      23.231   5.811  12.591  0.00  0.00    -0.004 A 
ATOM      4  C   UNL     1      23.058   6.834  13.528  0.00  0.00    -0.031 A 
ATOM      5  C   UNL     1      22.842   6.595  14.892  0.00  0.00    +0.003 A 
ATOM      6  C   UNL     1      22.729   5.346  15.683  0.00  0.00    +0.031 A 
ATOM      7  C   UNL     1      22.807   3.975  15.364  0.00  0.00    +0.102 A 
ATOM      8 CL   UNL     1      23.073   3.285  13.756  0.00  0.00    -0.049 Cl
ATOM      9  N   UNL     1      22.657   3.084  16.361  0.00  0.00    -0.310 NA
ATOM     10  C   UNL     1      22.441   3.439  17.636  0.00  0.00    +0.059 A 
ATOM     11  C   UNL     1      22.365   4.778  17.991  0.00  0.00    -0.001 A 
ATOM     12  C   UNL     1      22.120   5.174  19.428  0.00  0.00    +0.086 C 
ATOM     13  C   UNL     1      22.510   5.736  16.994  0.00  0.00    +0.085 A 
ATOM     14  N   UNL     1      22.479   7.097  17.012  0.00  0.00    -0.271 N 
ATOM     15  H   UNL     1      22.324   7.652  17.866  0.00  0.00    +0.220 HD
ATOM     16  C   UNL     1      22.675   7.650  15.776  0.00  0.00    +0.067 A 
ATOM     17  C   UNL     1      22.720   8.973  15.341  0.00  0.00    +0.021 A 
ATOM     18  C   UNL     1      22.936   9.232  13.995  0.00  0.00    -0.007 A 
ATOM     19  C   UNL     1      23.102   8.171  13.100  0.00  0.00    -0.036 A 
ATOM     20  C   UNL     1      23.325   8.466  11.763  0.00  0.00    +0.015 A 
ENDROOT
BRANCH   1  21
ATOM     21  O   UNL     1      23.705   7.769   9.531  0.00  0.00    -0.335 OA
ATOM     22  H   UNL     1      23.801   6.974   9.020  0.00  0.00    +0.247 HD
ENDBRANCH   1  21
TORSDOF 1
