REMARK  Name = 4NCT
REMARK  6 active torsions:
REMARK  status: ('A' for Active; 'I' for Inactive)
REMARK    1  A    between atoms: N_14  and  C_33
REMARK    2  A    between atoms: N_14  and  C_43
REMARK    3  A    between atoms: C_25  and  C_29
REMARK    4  A    between atoms: C_26  and  O_27
REMARK    5  A    between atoms: O_27  and  C_28
REMARK    6  A    between atoms: C_34  and  C_36
REMARK                            x       y       z     vdW  Elec       q    Type
REMARK                         _______ _______ _______ _____ _____    ______ ____
ROOT
ATOM      1  O   UNL     1      36.429  30.237  -9.263  0.00  0.00    -0.268 OA
ATOM      2  C   UNL     1      36.692  29.374 -10.103  0.00  0.00    +0.269 C 
ATOM      3  C   UNL     1      37.874  29.195 -10.763  0.00  0.00    +0.058 A 
ATOM      4  C   UNL     1      39.091  29.812 -10.731  0.00  0.00    +0.022 A 
ATOM      5  C   UNL     1      40.078  29.371 -11.549  0.00  0.00    +0.077 A 
ATOM      6  N   UNL     1      41.172  30.106 -11.337  0.00  0.00    -0.312 N 
ATOM      7  C   UNL     1      42.484  30.059 -12.032  0.00  0.00    +0.224 C 
ATOM      8  C   UNL     1      43.650  29.391 -11.332  0.00  0.00    +0.080 C 
ATOM      9  C   UNL     1      44.195  28.295 -12.237  0.00  0.00    +0.114 C 
ATOM     10  C   UNL     1      43.061  27.360 -12.544  0.00  0.00    +0.191 C 
ATOM     13  C   UNL     1      42.135  28.118 -13.527  0.00  0.00    +0.174 C 
ATOM     14  N   UNL     1      40.702  27.733 -13.285  0.00  0.00    -0.307 N 
ATOM     15  C   UNL     1      40.023  26.735 -13.861  0.00  0.00    +0.053 A 
ATOM     16  C   UNL     1      40.369  25.835 -14.794  0.00  0.00    +0.026 A 
ATOM     17  C   UNL     1      39.473  24.867 -15.224  0.00  0.00    +0.002 A 
ATOM     18  C   UNL     1      38.198  24.865 -14.691  0.00  0.00    +0.001 A 
ATOM     19  C   UNL     1      37.888  25.832 -13.743  0.00  0.00    +0.010 A 
ATOM     20  C   UNL     1      38.789  26.735 -13.335  0.00  0.00    +0.008 A 
ATOM     21  C   UNL     1      38.702  27.729 -12.430  0.00  0.00    +0.019 A 
ATOM     22  C   UNL     1      42.646  27.887 -14.951  0.00  0.00    +0.069 C 
ATOM     33  O   UNL     1      42.220  29.533 -13.342  0.00  0.00    -0.328 OA
ATOM     34  C   UNL     1      40.893  31.027 -10.421  0.00  0.00    +0.052 A 
ATOM     35  C   UNL     1      41.675  31.995  -9.893  0.00  0.00    +0.026 A 
ATOM     36  C   UNL     1      41.184  32.850  -8.917  0.00  0.00    +0.002 A 
ATOM     37  C   UNL     1      39.874  32.676  -8.515  0.00  0.00    +0.001 A 
ATOM     38  C   UNL     1      39.107  31.656  -9.095  0.00  0.00    +0.010 A 
ATOM     39  C   UNL     1      39.889  28.332 -12.391  0.00  0.00    +0.077 A 
ATOM     40  C   UNL     1      39.612  30.843 -10.032  0.00  0.00    +0.009 A 
ATOM     41  C   UNL     1      37.707  28.156 -11.621  0.00  0.00    +0.013 A 
ATOM     42  C   UNL     1      36.400  27.676 -11.490  0.00  0.00    +0.110 C 
ATOM     43  N   UNL     1      35.761  28.526 -10.494  0.00  0.00    -0.184 NA
ENDROOT
BRANCH   9  23
ATOM     23  N   UNL     1      45.348  27.683 -11.560  0.00  0.00    -0.295 N 
ATOM     24  C   UNL     1      46.602  28.016 -11.977  0.00  0.00    +0.247 C 
ATOM     31  O   UNL     1      46.805  28.790 -12.919  0.00  0.00    -0.270 OA
ATOM     32  C   UNL     1      45.134  26.788 -10.400  0.00  0.00    +0.133 C 
BRANCH  24  25
ATOM     25  C   UNL     1      47.705  27.563 -11.260  0.00  0.00    +0.037 A 
ATOM     26  C   UNL     1      47.949  28.114  -9.993  0.00  0.00    +0.013 A 
ATOM     27  C   UNL     1      49.056  27.713  -9.249  0.00  0.00    +0.001 A 
ATOM     28  C   UNL     1      49.938  26.779  -9.791  0.00  0.00    +0.000 A 
ATOM     29  C   UNL     1      49.708  26.251 -11.064  0.00  0.00    +0.001 A 
ATOM     30  C   UNL     1      48.594  26.644 -11.805  0.00  0.00    +0.013 A 
ENDBRANCH  24  25
ENDBRANCH   9  23
BRANCH  10  11
ATOM     11  O   UNL     1      42.340  27.037 -11.323  0.00  0.00    -0.373 OA
ATOM     12  C   UNL     1      41.797  25.722 -11.244  0.00  0.00    +0.194 C 
ENDBRANCH  10  11
TORSDOF 3
