REMARK  Name = 5EM6
REMARK  6 active torsions:
REMARK  status: ('A' for Active; 'I' for Inactive)
REMARK    1  A    between atoms: C_3  and  N_14
REMARK    2  A    between atoms: C_5  and  N_13
REMARK    3  A    between atoms: N_10  and  C_12
REMARK    4  A    between atoms: C_15  and  C_17
REMARK    5  A    between atoms: C_18  and  N_24
REMARK    6  A    between atoms: N_24  and  C_25
REMARK                            x       y       z     vdW  Elec       q    Type
REMARK                         _______ _______ _______ _____ _____    ______ ____
ROOT
ATOM     10  C   UNL     1     -53.743   0.648 -22.841  0.00  0.00    +0.122 C 
ATOM     11  C   UNL     1     -54.785   1.630 -22.634  0.00  0.00    +0.263 C 
ATOM     12  O   UNL     1     -54.962   2.216 -21.569  0.00  0.00    -0.267 OA
ATOM     13  N   UNL     1     -55.621   1.957 -23.648  0.00  0.00    -0.328 N 
ATOM     14  H   UNL     1     -56.380   2.689 -23.466  0.00  0.00    +0.168 HD
ATOM     15  C   UNL     1     -55.542   1.402 -24.882  0.00  0.00    +0.087 C 
ATOM     16  C   UNL     1     -54.588   0.481 -25.144  0.00  0.00    +0.042 C 
ATOM     17  C   UNL     1     -53.661   0.056 -24.155  0.00  0.00    +0.051 C 
ENDROOT
BRANCH  10   9
ATOM      7  N   UNL     1     -52.852   0.963 -20.561  0.00  0.00    -0.281 N 
ATOM      8  H   UNL     1     -53.464   1.840 -20.584  0.00  0.00    +0.155 HD
ATOM      9  C   UNL     1     -52.849   0.243 -21.718  0.00  0.00    +0.255 C 
ATOM     29  O   UNL     1     -52.175  -0.774 -21.802  0.00  0.00    -0.270 OA
BRANCH   7   6
ATOM      3  C   UNL     1     -51.025   0.428 -16.790  0.00  0.00    +0.030 A 
ATOM      4  C   UNL     1     -50.485  -0.227 -17.913  0.00  0.00    +0.025 A 
ATOM      5  C   UNL     1     -51.042  -0.054 -19.179  0.00  0.00    +0.025 A 
ATOM      6  C   UNL     1     -52.182   0.745 -19.336  0.00  0.00    +0.034 A 
ATOM     30  C   UNL     1     -52.736   1.372 -18.215  0.00  0.00    +0.025 A 
ATOM     31  C   UNL     1     -52.167   1.223 -16.960  0.00  0.00    +0.025 A 
BRANCH   3   2
ATOM      1  C   UNL     1     -51.324  -0.665 -14.689  0.00  0.00    +0.120 C 
ATOM      2  N   UNL     1     -50.495   0.278 -15.488  0.00  0.00    -0.328 N 
ATOM     32  C   UNL     1     -49.020   0.067 -15.411  0.00  0.00    +0.120 C 
ATOM     33  C   UNL     1     -48.547  -0.123 -13.955  0.00  0.00    +0.103 C 
ATOM     34  N   UNL     1     -49.399  -1.117 -13.258  0.00  0.00    -0.302 NA
ATOM     35  C   UNL     1     -48.922  -1.404 -11.897  0.00  0.00    +0.105 C 
ATOM     36  C   UNL     1     -50.831  -0.749 -13.236  0.00  0.00    +0.103 C 
ENDBRANCH   3   2
ENDBRANCH   7   6
ENDBRANCH  10   9
BRANCH  17  18
ATOM     18  N   UNL     1     -52.698  -0.907 -24.466  0.00  0.00    -0.298 N 
ATOM     19  H   UNL     1     -52.024  -1.147 -23.670  0.00  0.00    +0.154 HD
BRANCH  18  20
ATOM     20  C   UNL     1     -52.478  -1.610 -25.666  0.00  0.00    +0.128 A 
ATOM     21  N   UNL     1     -53.103  -1.343 -26.828  0.00  0.00    -0.200 NA
ATOM     22  C   UNL     1     -52.838  -2.043 -27.937  0.00  0.00    +0.214 A 
ATOM     23  N   UNL     1     -53.516  -1.753 -29.100  0.00  0.00    -0.327 N 
ATOM     24  H   UNL     1     -54.240  -0.965 -29.115  0.00  0.00    +0.145 HD
ATOM     25  H   UNL     1     -53.319  -2.316 -29.989  0.00  0.00    +0.145 HD
ATOM     26  N   UNL     1     -51.945  -3.029 -27.954  0.00  0.00    -0.223 NA
ATOM     27  C   UNL     1     -51.273  -3.347 -26.849  0.00  0.00    +0.118 A 
ATOM     28  C   UNL     1     -51.514  -2.640 -25.669  0.00  0.00    +0.063 A 
ENDBRANCH  18  20
ENDBRANCH  17  18
TORSDOF 5
