REMARK  Name = 3ORZ
REMARK  5 active torsions:
REMARK  status: ('A' for Active; 'I' for Inactive)
REMARK    1  A    between atoms: C_1  and  S_2
REMARK    2  A    between atoms: C_1  and  C_3
REMARK    3  A    between atoms: C_3  and  C_4
REMARK    4  A    between atoms: C_4  and  C_5
REMARK    5  A    between atoms: N_10  and  C_13
REMARK                            x       y       z     vdW  Elec       q    Type
REMARK                         _______ _______ _______ _____ _____    ______ ____
ROOT
ATOM      4  C   UNL     1      54.623 -91.176   0.620  0.00  0.00    +0.216 C 
ATOM      5  N   UNL     1      55.935 -91.213   0.375  0.00  0.00    -0.298 N 
ATOM      6  C   UNL     1      56.692 -92.460   0.276  0.00  0.00    +0.126 C 
ATOM      7  C   UNL     1      58.160 -92.182  -0.059  0.00  0.00    +0.124 C 
ATOM      8  N   UNL     1      58.275 -91.157  -1.088  0.00  0.00    -0.327 N 
ATOM     16  C   UNL     1      57.339 -90.046  -1.153  0.00  0.00    +0.124 C 
ATOM     17  C   UNL     1      56.661 -89.966   0.203  0.00  0.00    +0.126 C 
ATOM     18  O   UNL     1      54.011 -90.125   0.699  0.00  0.00    -0.276 OA
ENDROOT
BRANCH   8   9
ATOM      9  C   UNL     1      59.332 -91.192  -2.019  0.00  0.00    +0.031 A 
ATOM     10  C   UNL     1      59.333 -90.271  -3.063  0.00  0.00    +0.043 A 
ATOM     11  C   UNL     1      60.353 -90.260  -4.015  0.00  0.00    +0.043 A 
ATOM     12 CL   UNL     1      60.292 -89.046  -5.341  0.00  0.00    -0.084 Cl
ATOM     13  C   UNL     1      61.392 -91.179  -3.927  0.00  0.00    +0.020 A 
ATOM     14  C   UNL     1      61.395 -92.105  -2.880  0.00  0.00    +0.003 A 
ATOM     15  C   UNL     1      60.373 -92.114  -1.928  0.00  0.00    +0.023 A 
ENDBRANCH   8   9
BRANCH   4   3
ATOM      3  C   UNL     1      53.885 -92.479   0.807  0.00  0.00    +0.097 C 
BRANCH   3   2
ATOM      2  C   UNL     1      53.553 -93.093  -0.543  0.00  0.00    +0.020 C 
BRANCH   2   1
ATOM      1  C   UNL     1      52.599 -94.267  -0.374  0.00  0.00    +0.066 C 
BRANCH   1  19
ATOM     19  S   UNL     1      52.360 -95.015  -1.953  0.00  0.00    -0.178 S 
ATOM     20  H   UNL     1      51.838 -94.116  -2.799  0.00  0.00    +0.102 HD
ENDBRANCH   1  19
ENDBRANCH   2   1
ENDBRANCH   3   2
ENDBRANCH   4   3
TORSDOF 5
