REMARK  Name = 5AX9
REMARK  9 active torsions:
REMARK  status: ('A' for Active; 'I' for Inactive)
REMARK    1  A    between atoms: C_3  and  N_27
REMARK    2  A    between atoms: C_7  and  O_26
REMARK    3  A    between atoms: C_11  and  C_15
REMARK    4  A    between atoms: C_14  and  N_30
REMARK    5  A    between atoms: C_16  and  O_26
REMARK    6  A    between atoms: C_17  and  O_23
REMARK    7  A    between atoms: C_18  and  C_22
REMARK    8  A    between atoms: O_23  and  C_24
REMARK    9  A    between atoms: C_25  and  N_30
REMARK                            x       y       z     vdW  Elec       q    Type
REMARK                         _______ _______ _______ _____ _____    ______ ____
ROOT
ATOM      3  N   UNL     1     -12.860 -55.263 -26.193  0.00  0.00    -0.299 N 
ATOM      4  H   UNL     1     -13.583 -54.569 -25.818  0.00  0.00    +0.154 HD
ENDROOT
BRANCH   3   2
ATOM      1  C   UNL     1     -13.447 -56.186 -28.473  0.00  0.00    +0.025 A 
ATOM      2  C   UNL     1     -13.657 -56.146 -27.065  0.00  0.00    +0.036 A 
ATOM     21  C   UNL     1     -14.668 -57.012 -26.593  0.00  0.00    +0.070 A 
ATOM     22  C   UNL     1     -15.433 -57.857 -27.411  0.00  0.00    +0.143 A 
ATOM     25  C   UNL     1     -15.213 -57.888 -28.815  0.00  0.00    +0.072 A 
ATOM     32  C   UNL     1     -14.196 -57.036 -29.312  0.00  0.00    +0.028 A 
BRANCH  25  26
ATOM     26  N   UNL     1     -15.956 -58.753 -29.682  0.00  0.00    -0.323 N 
ATOM     27  C   UNL     1     -17.359 -58.466 -29.938  0.00  0.00    +0.133 C 
ATOM     28  C   UNL     1     -18.046 -59.440 -30.960  0.00  0.00    +0.178 C 
ATOM     29  O   UNL     1     -17.129 -60.184 -31.753  0.00  0.00    -0.377 OA
ATOM     30  C   UNL     1     -16.451 -61.029 -30.850  0.00  0.00    +0.178 C 
ATOM     31  C   UNL     1     -15.685 -60.189 -29.749  0.00  0.00    +0.133 C 
ENDBRANCH  25  26
BRANCH  22  23
ATOM     23  O   UNL     1     -16.418 -58.678 -26.844  0.00  0.00    -0.493 OA
ATOM     24  C   UNL     1     -16.819 -58.433 -25.481  0.00  0.00    +0.277 C 
ENDBRANCH  22  23
ENDBRANCH   3   2
BRANCH   3   5
ATOM      5  C   UNL     1     -11.694 -54.437 -26.428  0.00  0.00    +0.123 A 
ATOM      6  N   UNL     1     -11.431 -53.453 -25.513  0.00  0.00    -0.240 NA
ATOM      7  C   UNL     1     -10.354 -52.649 -25.707  0.00  0.00    +0.113 A 
ATOM      8  C   UNL     1      -9.478 -52.768 -26.793  0.00  0.00    +0.028 A 
ATOM      9  C   UNL     1      -9.674 -53.761 -27.764  0.00  0.00    -0.010 A 
ATOM     20  C   UNL     1     -10.792 -54.591 -27.559  0.00  0.00    +0.052 A 
BRANCH   9  10
ATOM     10  C   UNL     1      -8.733 -53.862 -28.958  0.00  0.00    +0.025 A 
ATOM     11  C   UNL     1      -9.154 -54.328 -30.262  0.00  0.00    +0.128 A 
ATOM     14  C   UNL     1      -8.190 -54.340 -31.283  0.00  0.00    +0.047 A 
ATOM     15  C   UNL     1      -6.853 -53.913 -31.110  0.00  0.00    +0.022 A 
ATOM     16  C   UNL     1      -6.388 -53.431 -29.868  0.00  0.00    +0.053 A 
ATOM     19  C   UNL     1      -7.387 -53.437 -28.863  0.00  0.00    +0.031 A 
BRANCH  11  12
ATOM     12  O   UNL     1     -10.460 -54.776 -30.518  0.00  0.00    -0.495 OA
ATOM     13  C   UNL     1     -10.857 -55.296 -31.786  0.00  0.00    +0.277 C 
ENDBRANCH  11  12
BRANCH  16  17
ATOM     17  C   UNL     1      -5.012 -52.965 -29.615  0.00  0.00    +0.099 C 
ATOM     18  N   UNL     1      -3.930 -52.593 -29.385  0.00  0.00    -0.191 NA
ENDBRANCH  16  17
ENDBRANCH   9  10
ENDBRANCH   3   5
TORSDOF 7
