REMARK  Name = 4kz0_ligand
REMARK  4 active torsions:
REMARK  status: ('A' for Active; 'I' for Inactive)
REMARK    1  A    between atoms: C7_2  and  C8_3
REMARK    2  A    between atoms: C2_13  and  C1_14
REMARK    3  A    between atoms: C1_14  and  O_16
REMARK    4  A    between atoms: O_16  and  C_17
REMARK                            x       y       z     vdW  Elec       q    Type
REMARK                         _______ _______ _______ _____ _____    ______ ____
ROOT
ATOM      1  O   UNL     1      15.628  15.227  22.048  0.00  0.00    -0.379 OA
ATOM      2  C   UNL     1      15.204  14.324  22.766  0.00  0.00    +0.216 C 
ATOM      3  N   UNL     1      16.029  13.394  23.364  0.00  0.00    -0.188 N 
ATOM      4  H   UNL     1      15.602  12.773  24.022  0.00  0.00    +0.246 HD
ATOM      5  C   UNL     1      17.386  13.231  23.148  0.00  0.00    +0.214 A 
ATOM      6  S   UNL     1      18.287  14.157  21.967  0.00  0.00    +0.033 S 
ATOM      7  C   UNL     1      19.710  13.270  22.432  0.00  0.00    +0.053 A 
ATOM      8  C   UNL     1      20.995  13.377  21.916  0.00  0.00    +0.028 A 
ATOM      9  C   UNL     1      21.997  12.553  22.430  0.00  0.00    +0.048 A 
ATOM     14  C   UNL     1      21.690  11.655  23.457  0.00  0.00    +0.004 A 
ATOM     15  C   UNL     1      20.402  11.546  23.963  0.00  0.00    -0.005 A 
ATOM     16  C   UNL     1      19.392  12.356  23.445  0.00  0.00    +0.012 A 
ATOM     17  N   UNL     1      18.051  12.345  23.838  0.00  0.00    -0.305 NA
ATOM     18  C   UNL     1      13.741  14.168  23.062  0.00  0.00    +0.177 C 
ENDROOT
BRANCH   9  10
ATOM     10  C   UNL     1      23.365  12.576  21.817  0.00  0.00    +0.254 C 
ATOM     13  O   UNL     1      24.315  11.963  22.244  0.00  0.00    -0.362 OA
BRANCH  10  11
ATOM     11  O   UNL     1      23.429  13.381  20.747  0.00  0.00    -0.282 OA
ATOM     12  C   UNL     1      24.666  13.373  19.988  0.00  0.00    +0.237 C 
ENDBRANCH  10  11
ENDBRANCH   9  10
TORSDOF 2
