REMARK  Name = 3hv7_ligand
REMARK  8 active torsions:
REMARK  status: ('A' for Active; 'I' for Inactive)
REMARK    1  A    between atoms: CAX_10  and  NAS_11
REMARK    2  A    between atoms: NAT_14  and  CAZ_15
REMARK    3  A    between atoms: CAY_17  and  CBD_18
REMARK    4  A    between atoms: CBD_18  and  CAB_19
REMARK    5  A    between atoms: CBD_18  and  CAC_20
REMARK    6  A    between atoms: CBD_18  and  CAA_21
REMARK    7  A    between atoms: NBC_23  and  CAW_24
REMARK    8  A    between atoms: CAV_29  and  NAD_30
REMARK                            x       y       z     vdW  Elec       q    Type
REMARK                         _______ _______ _______ _____ _____    ______ ____
ROOT
ATOM      8  C   UNL     1       0.522  -4.025 -13.985  0.00  0.00    +0.220 A 
ATOM      9  N   UNL     1       1.009  -5.068 -13.288  0.00  0.00    -0.106 N 
ATOM     19  N   UNL     1       2.094  -4.752 -12.731  0.00  0.00    -0.166 NA
ATOM     20  C   UNL     1       2.336  -3.465 -12.998  0.00  0.00    -0.002 A 
ATOM     25  C   UNL     1       1.338  -2.974 -13.794  0.00  0.00    +0.003 A 
ENDROOT
BRANCH   8   6
ATOM      3  N   UNL     1      -2.200  -3.444 -16.152  0.00  0.00    -0.208 N 
ATOM      4  H   UNL     1      -2.835  -4.043 -15.625  0.00  0.00    +0.232 HD
ATOM      5  C   UNL     1      -0.955  -3.305 -15.719  0.00  0.00    +0.328 C 
ATOM      6  N   UNL     1      -0.652  -4.045 -14.644  0.00  0.00    -0.178 N 
ATOM      7  H   UNL     1      -1.372  -4.678 -14.295  0.00  0.00    +0.235 HD
ATOM     26  O   UNL     1      -0.135  -2.560 -16.281  0.00  0.00    -0.377 OA
BRANCH   3   2
ATOM      1  C   UNL     1      -3.795  -2.025 -17.215  0.00  0.00    +0.011 A 
ATOM      2  C   UNL     1      -2.668  -2.825 -17.265  0.00  0.00    +0.082 A 
ATOM     27  C   UNL     1      -2.035  -3.008 -18.505  0.00  0.00    +0.001 A 
ATOM     28  C   UNL     1      -2.535  -2.405 -19.663  0.00  0.00    -0.025 A 
ATOM     29  C   UNL     1      -3.666  -1.585 -19.607  0.00  0.00    -0.031 A 
ATOM     30  C   UNL     1      -4.282  -1.403 -18.379  0.00  0.00    -0.032 A 
ATOM     31  C   UNL     1      -5.408  -0.583 -18.309  0.00  0.00    -0.002 A 
ATOM     32  C   UNL     1      -6.027  -0.381 -17.103  0.00  0.00    -0.005 A 
ATOM     33  C   UNL     1      -5.524  -0.970 -15.932  0.00  0.00    -0.007 A 
ATOM     34  C   UNL     1      -4.431  -1.812 -15.979  0.00  0.00    +0.008 A 
ENDBRANCH   3   2
ENDBRANCH   8   6
BRANCH   9  10
ATOM     10  C   UNL     1       0.468  -6.320 -13.211  0.00  0.00    +0.117 A 
ATOM     11  C   UNL     1       0.413  -6.923 -11.952  0.00  0.00    +0.016 A 
ATOM     12  C   UNL     1      -0.103  -8.212 -11.786  0.00  0.00    -0.017 A 
ATOM     13  C   UNL     1      -0.530  -8.942 -12.903  0.00  0.00    -0.001 A 
ATOM     14  C   UNL     1      -0.473  -8.373 -14.170  0.00  0.00    +0.034 A 
ATOM     18  C   UNL     1       0.037  -7.065 -14.342  0.00  0.00    +0.045 A 
BRANCH  14  15
ATOM     15  N   UNL     1      -0.927  -9.097 -15.187  0.00  0.00    -0.338 N 
ATOM     16  H   UNL     1      -0.904  -8.718 -16.134  0.00  0.00    +0.172 HD
ATOM     17  H   UNL     1      -1.299 -10.032 -15.021  0.00  0.00    +0.172 HD
ENDBRANCH  14  15
ENDBRANCH   9  10
BRANCH  20  21
ATOM     21  C   UNL     1       3.594  -2.706 -12.484  0.00  0.00    -0.045 C 
ATOM     22  C   UNL     1       4.260  -1.979 -13.632  0.00  0.00    -0.045 C 
ATOM     23  C   UNL     1       4.711  -3.636 -11.967  0.00  0.00    -0.045 C 
ATOM     24  C   UNL     1       3.140  -1.704 -11.376  0.00  0.00    -0.045 C 
ENDBRANCH  20  21
TORSDOF 5
