REMARK  Name = 5oto
REMARK  7 active torsions:
REMARK  status: ('A' for Active; 'I' for Inactive)
REMARK    1  A    between atoms: C1_1  and  C2_3
REMARK    2  A    between atoms: C7_8  and  C8_9
REMARK    3  A    between atoms: C11_12  and  C12_13
REMARK    4  A    between atoms: C12_13  and  N_26
REMARK    5  A    between atoms: C13_14  and  C14_15
REMARK    6  A    between atoms: C13_14  and  N_26
REMARK    7  A    between atoms: C14_15  and  C15_16
REMARK                            x       y       z     vdW  Elec       q    Type
REMARK                         _______ _______ _______ _____ _____    ______ ____
ROOT
ATOM      5  C   UNL     1       5.152 143.975 355.420  0.00  0.00    +0.001 A 
ATOM      6  C   UNL     1       5.812 143.606 356.585  0.00  0.00    +0.049 A 
ATOM      7 CL   UNL     1       6.785 144.764 357.431  0.00  0.00    -0.084 Cl
ATOM      8  C   UNL     1       5.730 142.326 357.092  0.00  0.00    +0.026 A 
ATOM      9  C   UNL     1       4.983 141.356 356.439  0.00  0.00    -0.033 A 
ATOM     24  C   UNL     1       4.330 141.709 355.269  0.00  0.00    +0.006 A 
ATOM     25  C   UNL     1       4.409 142.994 354.763  0.00  0.00    +0.010 A 
ENDROOT
BRANCH   5   4
ATOM      3  C   UNL     1       4.317 146.370 355.327  0.00  0.00    -0.040 A 
ATOM      4  C   UNL     1       5.182 145.364 354.870  0.00  0.00    -0.014 A 
ATOM     26  C   UNL     1       6.134 145.677 353.900  0.00  0.00    +0.009 A 
ATOM     27  C   UNL     1       6.240 146.965 353.406  0.00  0.00    +0.001 A 
ATOM     28  C   UNL     1       5.403 147.952 353.866  0.00  0.00    +0.000 A 
ATOM     29  C   UNL     1       4.446 147.660 354.819  0.00  0.00    +0.004 A 
BRANCH   3   1
ATOM      1  C   UNL     1       3.239 146.056 356.339  0.00  0.00    +0.033 C 
ATOM      2  C   UNL     1       1.848 146.324 355.843  0.00  0.00    +0.009 C 
ENDBRANCH   3   1
ENDBRANCH   5   4
BRANCH   9  10
ATOM     10  C   UNL     1       4.890 139.957 356.996  0.00  0.00    +0.116 C 
BRANCH  10  11
ATOM     11  N   UNL     1       6.159 139.502 357.564  0.00  0.00    -0.190 NA
BRANCH  11  12
ATOM     12  C   UNL     1       6.132 138.107 358.009  0.00  0.00    +0.089 C 
BRANCH  12  13
ATOM     13  C   UNL     1       7.485 137.447 357.885  0.00  0.00    +0.090 C 
BRANCH  13  14
ATOM     14  C   UNL     1       7.661 136.294 358.810  0.00  0.00    +0.108 A 
ATOM     15  N   UNL     1       8.784 136.008 359.441  0.00  0.00    -0.174 NA
ATOM     16  C   UNL     1       8.541 134.790 360.075  0.00  0.00    +0.067 A 
ATOM     17  C   UNL     1       9.374 133.978 360.838  0.00  0.00    +0.049 A 
ATOM     18  C   UNL     1       8.874 132.775 361.302  0.00  0.00    +0.043 A 
ATOM     19 CL   UNL     1       9.917 131.738 362.235  0.00  0.00    -0.084 Cl
ATOM     20  C   UNL     1       7.578 132.366 361.040  0.00  0.00    +0.023 A 
ATOM     21  C   UNL     1       6.743 133.177 360.288  0.00  0.00    +0.032 A 
ATOM     22  C   UNL     1       7.238 134.381 359.810  0.00  0.00    +0.089 A 
ATOM     23  N   UNL     1       6.696 135.367 359.008  0.00  0.00    -0.233 NA
ENDBRANCH  13  14
ENDBRANCH  12  13
ENDBRANCH  11  12
ENDBRANCH  10  11
ENDBRANCH   9  10
TORSDOF 7
