REMARK  Name = 2CHL
REMARK  5 active torsions:
REMARK  status: ('A' for Active; 'I' for Inactive)
REMARK    1  A    between atoms: C_8  and  N_9
REMARK    2  A    between atoms: C_10  and  S_11
REMARK    3  A    between atoms: N_18  and  C_19
REMARK    4  A    between atoms: C_24  and  S_25
REMARK    5  A    between atoms: S_25  and  N_28
REMARK                            x       y       z     vdW  Elec       q    Type
REMARK                         _______ _______ _______ _____ _____    ______ ____
ROOT
ATOM      4  N   UNL     1       8.581  33.894  24.398  0.00  0.00    -0.217 NA
ATOM      5  C   UNL     1       8.972  34.501  25.505  0.00  0.00    +0.190 C 
ATOM      6  N   UNL     1       8.535  34.042  26.701  0.00  0.00    -0.174 N 
ATOM      7  C   UNL     1       8.544  34.674  27.903  0.00  0.00    +0.219 A 
ATOM      8  N   UNL     1       7.957  33.890  28.777  0.00  0.00    -0.180 NA
ATOM      9  C   UNL     1       7.612  32.824  28.084  0.00  0.00    +0.241 A 
ATOM     10  N   UNL     1       6.965  31.841  28.652  0.00  0.00    -0.282 N 
ATOM     11  H   UNL     1       6.505  32.058  29.593  0.00  0.00    +0.155 HD
ATOM     24  N   UNL     1       9.036  35.875  28.282  0.00  0.00    -0.327 N 
ATOM     25  H   UNL     1       8.940  36.196  29.298  0.00  0.00    +0.145 HD
ATOM     26  H   UNL     1       9.522  36.504  27.566  0.00  0.00    +0.145 HD
ATOM     27  N   UNL     1       7.971  32.955  26.804  0.00  0.00    -0.125 NA
ENDROOT
BRANCH   4   3
ATOM      1  F   UNL     1       6.675  34.990  22.991  0.00  0.00    -0.203 F 
ATOM      2  C   UNL     1       7.869  34.796  22.383  0.00  0.00    +0.152 A 
ATOM      3  C   UNL     1       8.907  34.249  23.131  0.00  0.00    +0.137 A 
ATOM     30  C   UNL     1      10.170  34.068  22.531  0.00  0.00    +0.152 A 
ATOM     31  F   UNL     1      11.217  33.567  23.208  0.00  0.00    -0.203 F 
ATOM     32  C   UNL     1      10.384  34.438  21.197  0.00  0.00    +0.040 A 
ATOM     33  C   UNL     1       9.329  34.996  20.467  0.00  0.00    +0.006 A 
ATOM     34  C   UNL     1       8.070  35.161  21.049  0.00  0.00    +0.040 A 
ENDBRANCH   4   3
BRANCH  10  12
ATOM     12  C   UNL     1       6.812  30.599  28.193  0.00  0.00    +0.034 A 
ATOM     13  C   UNL     1       5.786  29.856  28.781  0.00  0.00    +0.025 A 
ATOM     14  C   UNL     1       5.560  28.547  28.419  0.00  0.00    +0.030 A 
ATOM     15  C   UNL     1       6.374  27.975  27.451  0.00  0.00    +0.105 A 
ATOM     22  C   UNL     1       7.412  28.706  26.875  0.00  0.00    +0.030 A 
ATOM     23  C   UNL     1       7.627  30.034  27.238  0.00  0.00    +0.025 A 
BRANCH  15  16
ATOM     16  S   UNL     1       6.163  26.286  26.968  0.00  0.00    +0.056 S 
ATOM     20  O   UNL     1       5.502  26.204  25.613  0.00  0.00    -0.153 OA
ATOM     21  O   UNL     1       5.388  25.582  28.046  0.00  0.00    -0.153 OA
BRANCH  16  17
ATOM     17  N   UNL     1       7.742  25.654  26.975  0.00  0.00    -0.203 NA
ATOM     18  H   UNL     1       8.348  26.198  26.281  0.00  0.00    +0.144 HD
ATOM     19  H   UNL     1       8.158  25.743  27.957  0.00  0.00    +0.144 HD
ENDBRANCH  16  17
ENDBRANCH  15  16
ENDBRANCH  10  12
BRANCH   5  28
ATOM     28  S   UNL     1       9.980  35.875  25.434  0.00  0.00    -0.103 S 
ATOM     29  H   UNL     1      10.368  36.480  26.565  0.00  0.00    +0.110 HD
ENDBRANCH   5  28
TORSDOF 5
