REMARK  Name = 4nj3_ligand
REMARK  10 active torsions:
REMARK  status: ('A' for Active; 'I' for Inactive)
REMARK    1  A    between atoms: C02_2  and  C11_11
REMARK    2  A    between atoms: C04_4  and  C12_12
REMARK    3  A    between atoms: C08_8  and  C13_13
REMARK    4  A    between atoms: N15_15  and  C16_16
REMARK    5  A    between atoms: C16_16  and  C17_17
REMARK    6  A    between atoms: C16_16  and  C19_19
REMARK    7  A    between atoms: C17_17  and  C18_18
REMARK    8  A    between atoms: C19_19  and  O21_21
REMARK    9  A    between atoms: O21_21  and  C22_22
REMARK   10  A    between atoms: C32_32  and  O36_36
REMARK                            x       y       z     vdW  Elec       q    Type
REMARK                         _______ _______ _______ _____ _____    ______ ____
ROOT
ATOM      1  N   UNL     1      -3.817  32.405  12.368  0.00  0.00    -0.270 NA
ATOM      2  C   UNL     1      -4.205  33.548  12.952  0.00  0.00    +0.056 A 
ATOM      3  C   UNL     1      -3.383  34.677  12.834  0.00  0.00    +0.030 A 
ATOM      4  C   UNL     1      -3.737  35.879  13.420  0.00  0.00    +0.020 A 
ATOM      5  C   UNL     1      -4.942  35.990  14.138  0.00  0.00    -0.011 A 
ATOM     13  C   UNL     1      -5.764  34.842  14.270  0.00  0.00    +0.030 A 
ATOM     14  C   UNL     1      -5.408  33.615  13.687  0.00  0.00    +0.022 A 
ATOM     15  C   UNL     1      -6.202  32.449  13.775  0.00  0.00    +0.039 A 
ATOM     19  C   UNL     1      -5.763  31.288  13.129  0.00  0.00    +0.077 A 
ATOM     20  C   UNL     1      -4.555  31.292  12.430  0.00  0.00    +0.126 A 
ENDROOT
BRANCH   5   6
ATOM      6  C   UNL     1      -5.315  37.296  14.744  0.00  0.00    -0.014 A 
ATOM      7  C   UNL     1      -5.053  38.501  14.074  0.00  0.00    +0.010 A 
ATOM      8  C   UNL     1      -5.390  39.736  14.653  0.00  0.00    +0.002 A 
ATOM      9  C   UNL     1      -5.990  39.781  15.907  0.00  0.00    +0.016 A 
ATOM     10  C   UNL     1      -6.253  38.583  16.592  0.00  0.00    +0.042 A 
ATOM     11 CL   UNL     1      -6.979  38.625  18.180  0.00  0.00    -0.070 Cl
ATOM     12  C   UNL     1      -5.913  37.347  16.013  0.00  0.00    +0.025 A 
ENDBRANCH   5   6
BRANCH  20  21
ATOM     21  C   UNL     1      -4.022  30.054  11.779  0.00  0.00    +0.230 C 
ATOM     22  N   UNL     1      -2.687  29.953  11.638  0.00  0.00    -0.259 N 
ATOM     23  H   UNL     1      -2.110  30.702  11.964  0.00  0.00    +0.188 HD
ATOM     38  O   UNL     1      -4.814  29.196  11.404  0.00  0.00    -0.377 OA
BRANCH  22  24
ATOM     24  C   UNL     1      -2.056  28.800  11.032  0.00  0.00    +0.234 C 
BRANCH  24  25
ATOM     25  C   UNL     1      -0.616  28.739  11.483  0.00  0.00    +0.261 C 
ATOM     28  O   UNL     1      -0.165  29.572  12.261  0.00  0.00    -0.368 OA
BRANCH  25  26
ATOM     26  O   UNL     1       0.094  27.715  10.990  0.00  0.00    -0.278 OA
ATOM     27  C   UNL     1       1.469  27.656  11.439  0.00  0.00    +0.239 C 
ENDBRANCH  25  26
ENDBRANCH  24  25
BRANCH  24  29
ATOM     29  C   UNL     1      -2.132  28.905   9.472  0.00  0.00    +0.109 C 
BRANCH  29  30
ATOM     30  C   UNL     1      -1.249  30.078   8.961  0.00  0.00    -0.049 A 
ATOM     31  C   UNL     1       0.014  29.829   8.371  0.00  0.00    -0.016 A 
ATOM     32  C   UNL     1       0.763  30.888   7.828  0.00  0.00    +0.013 A 
ATOM     33  C   UNL     1       0.330  32.219   7.986  0.00  0.00    +0.081 A 
ATOM     36  C   UNL     1      -0.919  32.474   8.580  0.00  0.00    +0.013 A 
ATOM     37  C   UNL     1      -1.730  31.405   9.022  0.00  0.00    -0.016 A 
BRANCH  33  34
ATOM     34  O   UNL     1       1.137  33.299   7.591  0.00  0.00    -0.338 OA
ATOM     35  H   UNL     1       0.684  34.114   7.773  0.00  0.00    +0.246 HD
ENDBRANCH  33  34
ENDBRANCH  29  30
ENDBRANCH  24  29
ENDBRANCH  22  24
ENDBRANCH  20  21
BRANCH  15  16
ATOM     16  C   UNL     1      -7.526  32.392  14.509  0.00  0.00    +0.074 C 
ATOM     17  O   UNL     1      -7.605  32.801  15.699  0.00  0.00    -0.557 OA
ATOM     18  O   UNL     1      -8.539  31.956  13.900  0.00  0.00    -0.557 OA
ENDBRANCH  15  16
TORSDOF 9
