REMARK  Name = 6Q49
REMARK  0 active torsions:
REMARK  status: ('A' for Active; 'I' for Inactive)
REMARK                            x       y       z     vdW  Elec       q    Type
REMARK                         _______ _______ _______ _____ _____    ______ ____
ROOT
ATOM      1  C   UNL     1       9.090  -6.204   7.973  0.00  0.00    -0.100 A 
ATOM      2  C   UNL     1       8.161  -7.188   8.310  0.00  0.00    +0.000 A 
ATOM      3 BR   UNL     1       8.648  -8.309   9.701  0.00  0.00    +0.000 Br
ATOM      4  C   UNL     1       6.913  -7.317   7.717  0.00  0.00    -0.100 A 
ATOM      5  C   UNL     1       6.556  -6.293   6.746  0.00  0.00    +0.600 A 
ATOM      6  O   UNL     1       5.527  -6.169   6.128  0.00  0.00    -0.550 OA
ATOM      7  N   UNL     1       7.538  -5.376   6.441  0.00  0.00    -0.400 NA
ATOM      8  C   UNL     1       8.720  -5.297   7.076  0.00  0.00    +0.000 A 
ENDROOT
TORSDOF 0
