REMARK  Name = 1uu9_ligand
REMARK  6 active torsions:
REMARK  status: ('A' for Active; 'I' for Inactive)
REMARK    1  A    between atoms: NBC_1  and  CBB_2
REMARK    2  A    between atoms: CBB_2  and  CBA_3
REMARK    3  A    between atoms: CBA_3  and  CAY_4
REMARK    4  A    between atoms: CAY_4  and  NAH_5
REMARK    5  A    between atoms: CAG_13  and  CAI_14
REMARK    6  A    between atoms: CAJ_20  and  CAK_21
REMARK                            x       y       z     vdW  Elec       q    Type
REMARK                         _______ _______ _______ _____ _____    ______ ____
ROOT
ATOM     12  C   UNL     1      27.179  78.179  27.746  0.00  0.00    +0.044 C 
ATOM     13  C   UNL     1      28.034  79.035  28.434  0.00  0.00    +0.044 C 
ATOM     24  C   UNL     1      29.316  78.495  28.372  0.00  0.00    +0.224 C 
ATOM     25  N   UNL     1      29.197  77.360  27.683  0.00  0.00    -0.204 N 
ATOM     26  H   UNL     1      29.967  76.753  27.486  0.00  0.00    +0.220 HD
ATOM     27  O   UNL     1      30.357  78.972  28.825  0.00  0.00    -0.372 OA
ATOM     28  C   UNL     1      27.950  77.116  27.284  0.00  0.00    +0.224 C 
ATOM     29  O   UNL     1      27.576  76.155  26.615  0.00  0.00    -0.372 OA
ENDROOT
BRANCH  13  14
ATOM     14  C   UNL     1      27.726  80.217  29.111  0.00  0.00    -0.005 A 
ATOM     15  C   UNL     1      28.610  81.213  29.080  0.00  0.00    +0.139 A 
ATOM     16  N   UNL     1      28.040  82.306  29.594  0.00  0.00    -0.274 N 
ATOM     17  H   UNL     1      28.509  83.218  29.687  0.00  0.00    +0.231 HD
ATOM     18  C   UNL     1      26.784  82.061  29.971  0.00  0.00    +0.069 A 
ATOM     19  C   UNL     1      25.786  82.849  30.536  0.00  0.00    +0.014 A 
ATOM     20  C   UNL     1      24.546  82.284  30.820  0.00  0.00    -0.021 A 
ATOM     21  C   UNL     1      24.318  80.939  30.539  0.00  0.00    -0.026 A 
ATOM     22  C   UNL     1      25.322  80.159  29.971  0.00  0.00    -0.017 A 
ATOM     23  C   UNL     1      26.563  80.720  29.678  0.00  0.00    -0.013 A 
ENDBRANCH  13  14
BRANCH  12  11
ATOM      8  N   UNL     1      24.113  79.360  26.606  0.00  0.00    -0.259 N 
ATOM      9  C   UNL     1      23.719  78.090  26.704  0.00  0.00    +0.071 A 
ATOM     10  C   UNL     1      24.818  77.417  27.224  0.00  0.00    -0.013 A 
ATOM     11  C   UNL     1      25.830  78.343  27.425  0.00  0.00    -0.005 A 
ATOM     30  C   UNL     1      24.749  76.037  27.400  0.00  0.00    -0.017 A 
ATOM     31  C   UNL     1      23.595  75.340  27.054  0.00  0.00    -0.026 A 
ATOM     32  C   UNL     1      22.496  76.024  26.539  0.00  0.00    -0.021 A 
ATOM     33  C   UNL     1      22.555  77.404  26.367  0.00  0.00    +0.014 A 
ATOM     34  C   UNL     1      25.365  79.531  27.037  0.00  0.00    +0.142 A 
BRANCH   8   7
ATOM      7  C   UNL     1      23.328  80.394  25.912  0.00  0.00    +0.180 C 
BRANCH   7   6
ATOM      6  C   UNL     1      22.536  81.321  26.839  0.00  0.00    +0.083 C 
BRANCH   6   5
ATOM      5  C   UNL     1      23.440  82.339  27.539  0.00  0.00    +0.130 C 
BRANCH   5   1
ATOM      1  N   UNL     1      22.616  83.356  28.211  0.00  0.00    +0.219 N 
ATOM      2  H   UNL     1      22.045  83.830  27.529  0.00  0.00    +0.199 HD
ATOM      3  H   UNL     1      22.023  82.911  28.894  0.00  0.00    +0.199 HD
ATOM      4  H   UNL     1      23.215  84.024  28.670  0.00  0.00    +0.199 HD
ENDBRANCH   5   1
ENDBRANCH   6   5
ENDBRANCH   7   6
ENDBRANCH   8   7
ENDBRANCH  12  11
TORSDOF 6
