REMARK  Name = 5JT2
REMARK  24 active torsions:
REMARK  status: ('A' for Active; 'I' for Inactive)
REMARK    1  A    between atoms: C_3  and  C_21
REMARK    2  A    between atoms: C_6  and  C_28
REMARK    3  A    between atoms: C_8  and  C_9
REMARK    4  A    between atoms: C_9  and  C_10
REMARK    5  A    between atoms: C_10  and  S_11
REMARK    6  A    between atoms: S_11  and  N_12
REMARK    7  A    between atoms: N_12  and  C_15
REMARK    8  A    between atoms: C_18  and  C_21
REMARK    9  A    between atoms: C_30  and  C_33
REMARK   10  A    between atoms: C_33  and  N_34
REMARK   11  A    between atoms: C_35  and  C_36
REMARK   12  A    between atoms: C_36  and  O_37
REMARK   13  A    between atoms: O_37  and  C_38
REMARK   14  A    between atoms: C_38  and  C_39
REMARK   15  A    between atoms: N_40  and  C_41
REMARK   16  A    between atoms: C_41  and  C_71
REMARK   17  A    between atoms: C_42  and  C_43
REMARK   18  A    between atoms: C_43  and  C_44
REMARK   19  A    between atoms: C_44  and  S_45
REMARK   20  A    between atoms: S_45  and  N_46
REMARK   21  A    between atoms: N_46  and  C_49
REMARK   22  A    between atoms: C_53  and  C_57
REMARK   23  A    between atoms: C_57  and  C_58
REMARK   24  A    between atoms: C_65  and  C_68
REMARK                            x       y       z     vdW  Elec       q    Type
REMARK                         _______ _______ _______ _____ _____    ______ ____
ROOT
ATOM     21  O   UNL     1     -20.292  -1.667 -16.814  0.00  0.00    -0.361 OA
ENDROOT
BRANCH  21  20
ATOM     20  C   UNL     1     -20.266  -2.856 -16.044  0.00  0.00    +0.256 C 
BRANCH  20  18
ATOM     16  N   UNL     1     -22.095  -4.510 -15.295  0.00  0.00    -0.309 N 
ATOM     17  H   UNL     1     -21.559  -4.858 -14.719  0.00  0.00    +0.149 HD
ATOM     18  C   UNL     1     -21.668  -3.416 -16.154  0.00  0.00    +0.239 C 
ATOM     19  O   UNL     1     -22.431  -2.981 -16.955  0.00  0.00    -0.273 OA
BRANCH  16  15
ATOM     15  C   UNL     1     -23.460  -5.041 -15.484  0.00  0.00    +0.139 C 
BRANCH  15  14
ATOM     11  C   UNL     1     -23.261  -8.258 -18.327  0.00  0.00    -0.016 A 
ATOM     12  C   UNL     1     -22.953  -7.005 -18.743  0.00  0.00    +0.009 A 
ATOM     13  C   UNL     1     -23.006  -5.965 -17.847  0.00  0.00    +0.006 A 
ATOM     14  C   UNL     1     -23.397  -6.199 -16.500  0.00  0.00    -0.030 A 
ATOM     61  C   UNL     1     -23.692  -7.464 -16.096  0.00  0.00    +0.006 A 
ATOM     62  C   UNL     1     -23.641  -8.504 -16.986  0.00  0.00    +0.009 A 
BRANCH  11  10
ATOM      7  C   UNL     1     -22.688 -13.238 -19.750  0.00  0.00    +0.051 A 
ATOM      8  C   UNL     1     -22.914 -11.805 -19.807  0.00  0.00    +0.032 A 
ATOM      9  C   UNL     1     -22.955 -10.718 -18.851  0.00  0.00    +0.022 A 
ATOM     10  C   UNL     1     -23.198  -9.435 -19.323  0.00  0.00    +0.001 A 
ATOM     63  C   UNL     1     -23.400  -9.220 -20.717  0.00  0.00    +0.121 A 
ATOM     64  N   UNL     1     -23.346 -10.241 -21.581  0.00  0.00    -0.235 NA
ATOM     65  C   UNL     1     -23.107 -11.526 -21.148  0.00  0.00    +0.161 A 
ATOM     66  N   UNL     1     -23.017 -12.685 -21.862  0.00  0.00    -0.235 NA
ATOM     67  C   UNL     1     -22.761 -13.720 -21.039  0.00  0.00    +0.125 A 
BRANCH   7   5
ATOM      5  C   UNL     1     -22.415 -14.112 -18.552  0.00  0.00    +0.201 C 
ATOM      6  O   UNL     1     -22.535 -13.744 -17.426  0.00  0.00    -0.286 OA
BRANCH   5   4
ATOM      1  C   UNL     1     -20.429 -17.298 -19.523  0.00  0.00    +0.041 A 
ATOM      2  C   UNL     1     -20.756 -15.952 -19.346  0.00  0.00    +0.137 A 
ATOM      3  F   UNL     1     -19.862 -15.050 -19.737  0.00  0.00    -0.205 F 
ATOM      4  C   UNL     1     -21.991 -15.569 -18.794  0.00  0.00    +0.094 A 
ATOM     68  C   UNL     1     -22.898 -16.539 -18.415  0.00  0.00    +0.159 A 
ATOM     69  F   UNL     1     -24.074 -16.189 -17.884  0.00  0.00    -0.203 F 
ATOM     70  C   UNL     1     -22.566 -17.887 -18.583  0.00  0.00    +0.084 A 
ATOM     79  C   UNL     1     -21.353 -18.268 -19.138  0.00  0.00    +0.030 A 
BRANCH  70  71
ATOM     71  N   UNL     1     -23.549 -18.864 -18.161  0.00  0.00    -0.218 N 
ATOM     72  H   UNL     1     -24.236 -18.632 -17.700  0.00  0.00    +0.173 HD
BRANCH  71  73
ATOM     73  S   UNL     1     -23.299 -20.468 -18.605  0.00  0.00    +0.043 S 
ATOM     74  O   UNL     1     -22.063 -20.935 -17.986  0.00  0.00    -0.155 OA
ATOM     75  O   UNL     1     -24.301 -21.317 -17.996  0.00  0.00    -0.155 OA
BRANCH  73  76
ATOM     76  C   UNL     1     -23.182 -20.407 -20.422  0.00  0.00    +0.188 C 
BRANCH  76  77
ATOM     77  C   UNL     1     -23.896 -21.568 -21.177  0.00  0.00    +0.021 C 
ATOM     78  C   UNL     1     -24.267 -21.133 -22.613  0.00  0.00    +0.005 C 
ENDBRANCH  76  77
ENDBRANCH  73  76
ENDBRANCH  71  73
ENDBRANCH  70  71
ENDBRANCH   5   4
ENDBRANCH   7   5
ENDBRANCH  11  10
ENDBRANCH  15  14
ENDBRANCH  16  15
ENDBRANCH  20  18
ENDBRANCH  21  20
BRANCH  21  22
ATOM     22  C   UNL     1     -20.342  -0.489 -15.986  0.00  0.00    +0.256 C 
BRANCH  22  23
ATOM     23  C   UNL     1     -18.864  -0.004 -15.872  0.00  0.00    +0.239 C 
ATOM     24  O   UNL     1     -17.992  -0.590 -16.406  0.00  0.00    -0.273 OA
ATOM     25  N   UNL     1     -18.532   1.186 -15.099  0.00  0.00    -0.309 N 
ATOM     26  H   UNL     1     -19.145   1.646 -14.708  0.00  0.00    +0.149 HD
BRANCH  25  27
ATOM     27  C   UNL     1     -17.132   1.612 -15.061  0.00  0.00    +0.139 C 
BRANCH  27  28
ATOM     28  C   UNL     1     -16.982   2.681 -16.198  0.00  0.00    -0.030 A 
ATOM     29  C   UNL     1     -17.295   2.383 -17.533  0.00  0.00    +0.006 A 
ATOM     30  C   UNL     1     -17.139   3.344 -18.524  0.00  0.00    +0.009 A 
ATOM     31  C   UNL     1     -16.687   4.620 -18.165  0.00  0.00    -0.016 A 
ATOM     32  C   UNL     1     -16.383   4.929 -16.832  0.00  0.00    +0.009 A 
ATOM     60  C   UNL     1     -16.533   3.974 -15.853  0.00  0.00    +0.006 A 
BRANCH  31  33
ATOM     33  C   UNL     1     -16.506   5.693 -19.211  0.00  0.00    +0.001 A 
ATOM     34  C   UNL     1     -15.995   5.331 -20.437  0.00  0.00    +0.121 A 
ATOM     35  N   UNL     1     -15.795   6.219 -21.390  0.00  0.00    -0.235 NA
ATOM     36  C   UNL     1     -16.099   7.531 -21.207  0.00  0.00    +0.161 A 
ATOM     37  N   UNL     1     -15.998   8.600 -22.076  0.00  0.00    -0.235 NA
ATOM     38  C   UNL     1     -16.407   9.677 -21.470  0.00  0.00    +0.125 A 
ATOM     39  C   UNL     1     -16.799   9.349 -20.165  0.00  0.00    +0.051 A 
ATOM     58  C   UNL     1     -16.597   7.953 -20.023  0.00  0.00    +0.032 A 
ATOM     59  C   UNL     1     -16.829   7.032 -18.953  0.00  0.00    +0.022 A 
BRANCH  39  40
ATOM     40  C   UNL     1     -17.368  10.321 -19.077  0.00  0.00    +0.201 C 
ATOM     41  O   UNL     1     -17.516   9.975 -17.955  0.00  0.00    -0.286 OA
BRANCH  40  42
ATOM     42  C   UNL     1     -17.713  11.740 -19.537  0.00  0.00    +0.094 A 
ATOM     43  C   UNL     1     -16.872  12.791 -19.159  0.00  0.00    +0.159 A 
ATOM     44  F   UNL     1     -15.786  12.577 -18.375  0.00  0.00    -0.203 F 
ATOM     45  C   UNL     1     -17.166  14.073 -19.554  0.00  0.00    +0.084 A 
ATOM     46  C   UNL     1     -18.261  14.354 -20.340  0.00  0.00    +0.030 A 
ATOM     47  C   UNL     1     -19.099  13.294 -20.740  0.00  0.00    +0.041 A 
ATOM     56  C   UNL     1     -18.806  11.990 -20.325  0.00  0.00    +0.137 A 
ATOM     57  F   UNL     1     -19.617  10.948 -20.706  0.00  0.00    -0.205 F 
BRANCH  45  48
ATOM     48  N   UNL     1     -16.262  15.085 -19.113  0.00  0.00    -0.218 N 
ATOM     49  H   UNL     1     -15.628  14.899 -18.562  0.00  0.00    +0.173 HD
BRANCH  48  50
ATOM     50  S   UNL     1     -16.465  16.647 -19.695  0.00  0.00    +0.043 S 
ATOM     51  O   UNL     1     -15.527  17.540 -19.010  0.00  0.00    -0.155 OA
ATOM     52  O   UNL     1     -17.796  17.129 -19.279  0.00  0.00    -0.155 OA
BRANCH  50  53
ATOM     53  C   UNL     1     -16.371  16.773 -21.519  0.00  0.00    +0.188 C 
BRANCH  53  54
ATOM     54  C   UNL     1     -14.918  16.841 -22.013  0.00  0.00    +0.021 C 
ATOM     55  C   UNL     1     -14.825  17.358 -23.440  0.00  0.00    +0.005 C 
ENDBRANCH  53  54
ENDBRANCH  50  53
ENDBRANCH  48  50
ENDBRANCH  45  48
ENDBRANCH  40  42
ENDBRANCH  39  40
ENDBRANCH  31  33
ENDBRANCH  27  28
ENDBRANCH  25  27
ENDBRANCH  22  23
ENDBRANCH  21  22
TORSDOF 22
