REMARK  Name = 4ei4_ligand
REMARK  3 active torsions:
REMARK  status: ('A' for Active; 'I' for Inactive)
REMARK    1  A    between atoms: C1_1  and  C2_2
REMARK    2  A    between atoms: N10_10  and  C11_11
REMARK    3  A    between atoms: C16_15  and  O19_17
REMARK                            x       y       z     vdW  Elec       q    Type
REMARK                         _______ _______ _______ _____ _____    ______ ____
ROOT
ATOM      1  C   UNL     1      10.294  56.755  -0.513  0.00  0.00    +0.164 C 
ATOM      2  C   UNL     1       9.133  57.701  -0.274  0.00  0.00    +0.120 A 
ATOM      3  N   UNL     1       7.950  57.384   0.340  0.00  0.00    -0.227 N 
ATOM     12  C   UNL     1       7.187  58.552   0.366  0.00  0.00    +0.089 A 
ATOM     13  C   UNL     1       5.914  58.927   0.826  0.00  0.00    +0.019 A 
ATOM     14  C   UNL     1       4.824  58.219   1.511  0.00  0.00    -0.032 A 
ATOM     15  C   UNL     1       3.854  59.106   1.701  0.00  0.00    +0.113 A 
ATOM     16  N   UNL     1       4.233  60.331   1.194  0.00  0.00    -0.274 N 
ATOM     17  H   UNL     1       3.653  61.182   1.222  0.00  0.00    +0.228 HD
ATOM     18  C   UNL     1       5.481  60.262   0.650  0.00  0.00    +0.120 A 
ATOM     19  N   UNL     1       6.254  61.174   0.055  0.00  0.00    -0.305 NA
ATOM     20  C   UNL     1       7.454  60.858  -0.397  0.00  0.00    +0.061 A 
ATOM     21  C   UNL     1       7.963  59.552  -0.273  0.00  0.00    +0.033 A 
ATOM     22  N   UNL     1       9.127  58.960  -0.640  0.00  0.00    -0.320 NA
ENDROOT
BRANCH   3   4
ATOM      4  C   UNL     1       7.594  56.060   0.872  0.00  0.00    +0.136 C 
ATOM      5  C   UNL     1       7.294  56.110   2.390  0.00  0.00    +0.067 C 
ATOM      6  C   UNL     1       7.004  54.690   2.904  0.00  0.00    +0.117 C 
ATOM      9  C   UNL     1       5.933  53.953   2.054  0.00  0.00    +0.031 C 
ATOM     10  C   UNL     1       6.149  54.024   0.528  0.00  0.00    +0.005 C 
ATOM     11  C   UNL     1       6.409  55.471   0.082  0.00  0.00    +0.036 C 
BRANCH   6   7
ATOM      7  O   UNL     1       8.223  53.939   2.936  0.00  0.00    -0.392 OA
ATOM      8  H   UNL     1       8.045  53.062   3.253  0.00  0.00    +0.210 HD
ENDBRANCH   6   7
ENDBRANCH   3   4
TORSDOF 2
