REMARK  Name = 91O
REMARK  7 active torsions:
REMARK  status: ('A' for Active; 'I' for Inactive)
REMARK    1  A    between atoms: C23_1  and  O24_24
REMARK    2  A    between atoms: C10_6  and  C11_8
REMARK    3  A    between atoms: C12_7  and  C11_8
REMARK    4  A    between atoms: C12_7  and  C14_9
REMARK    5  A    between atoms: C01_12  and  C02_13
REMARK    6  A    between atoms: C08_16  and  N09_19
REMARK    7  A    between atoms: C17_18  and  O18_23
REMARK                            x       y       z     vdW  Elec       q    Type
REMARK                         _______ _______ _______ _____ _____    ______ ____
ROOT
ATOM      6  N   UNL     1       2.589  -7.491 -26.109  0.00  0.00    -0.247 NA
ATOM      7  C   UNL     1       3.500  -6.879 -25.212  0.00  0.00    +0.081 C 
ENDROOT
BRANCH   6   5
ATOM      1  C   UNL     1       3.314 -11.272 -26.161  0.00  0.00    +0.147 A 
ATOM      4  C   UNL     1       3.494  -9.859 -26.027  0.00  0.00    +0.057 A 
ATOM      5  C   UNL     1       2.423  -8.945 -26.232  0.00  0.00    +0.095 A 
ATOM     19  C   UNL     1       1.181  -9.510 -26.596  0.00  0.00    +0.076 A 
ATOM     20  C   UNL     1       0.979 -10.911 -26.727  0.00  0.00    +0.023 A 
ATOM     21 CL   UNL     1      -0.240  -8.424 -26.910  0.00  0.00    -0.081 Cl
ATOM     22  C   UNL     1       2.061 -11.806 -26.501  0.00  0.00    +0.115 A 
BRANCH  22  23
ATOM     23  C   UNL     1       1.826 -13.374 -26.653  0.00  0.00    +0.391 C 
ATOM     24  O   UNL     1       0.750 -13.870 -26.185  0.00  0.00    -0.240 OA
ATOM     25  O   UNL     1       2.756 -14.042 -27.195  0.00  0.00    -0.240 OA
ENDBRANCH  22  23
BRANCH   1   2
ATOM      2  O   UNL     1       4.443 -12.076 -25.929  0.00  0.00    -0.471 OA
ATOM      3  C   UNL     1       5.720 -11.384 -26.035  0.00  0.00    +0.253 C 
ENDBRANCH   1   2
ENDBRANCH   6   5
BRANCH   7   8
ATOM      8  C   UNL     1       3.500  -5.499 -25.017  0.00  0.00    +0.116 C 
BRANCH   8   9
ATOM      9  C   UNL     1       2.386  -4.604 -25.419  0.00  0.00    +0.179 C 
ATOM     18  O   UNL     1       1.421  -5.060 -26.109  0.00  0.00    -0.291 OA
BRANCH   9  10
ATOM     10  C   UNL     1       2.338  -3.103 -25.022  0.00  0.00    +0.035 A 
ATOM     11  C   UNL     1       3.455  -2.449 -24.462  0.00  0.00    +0.006 A 
ATOM     12  C   UNL     1       3.446  -1.075 -24.071  0.00  0.00    +0.037 A 
ATOM     13  C   UNL     1       2.310  -0.278 -24.251  0.00  0.00    +0.139 A 
ATOM     16  C   UNL     1       1.177  -0.902 -24.817  0.00  0.00    +0.037 A 
ATOM     17  C   UNL     1       1.190  -2.291 -25.181  0.00  0.00    +0.006 A 
BRANCH  13  14
ATOM     14  O   UNL     1       2.270   1.079 -23.896  0.00  0.00    -0.471 OA
ATOM     15  C   UNL     1       2.899   1.465 -22.646  0.00  0.00    +0.253 C 
ENDBRANCH  13  14
ENDBRANCH   9  10
ENDBRANCH   8   9
ENDBRANCH   7   8
TORSDOF 7
