REMARK  Name = 2p4i_ligand
REMARK  9 active torsions:
REMARK  status: ('A' for Active; 'I' for Inactive)
REMARK    1  A    between atoms: N6_6  and  C20_7
REMARK    2  A    between atoms: C23_10  and  C25_11
REMARK    3  A    between atoms: C19_16  and  N4_17
REMARK    4  A    between atoms: C17_18  and  C12_20
REMARK    5  A    between atoms: C15_24  and  C16_25
REMARK    6  A    between atoms: C10_26  and  O1_27
REMARK    7  A    between atoms: O1_27  and  C9_28
REMARK    8  A    between atoms: C5_33  and  C2_34
REMARK    9  A    between atoms: N5_40  and  C18_41
REMARK                            x       y       z     vdW  Elec       q    Type
REMARK                         _______ _______ _______ _____ _____    ______ ____
ROOT
ATOM      8  C   UNL     1      23.168   3.073  87.577  0.00  0.00    +0.041 A 
ATOM      9  C   UNL     1      23.613   2.075  88.449  0.00  0.00    -0.001 A 
ATOM     10  C   UNL     1      23.775   0.766  87.997  0.00  0.00    -0.007 A 
ATOM     11  C   UNL     1      23.472   0.434  86.682  0.00  0.00    -0.006 A 
ATOM     12  C   UNL     1      23.019   1.423  85.811  0.00  0.00    +0.130 A 
ATOM     29  C   UNL     1      23.656  -1.019  86.193  0.00  0.00    +0.085 C 
ATOM     30  C   UNL     1      22.843   2.728  86.263  0.00  0.00    +0.045 A 
ENDROOT
BRANCH   8   7
ATOM      5  N   UNL     1      23.144   4.754  89.343  0.00  0.00    -0.230 N 
ATOM      6  H   UNL     1      23.490   3.980  89.874  0.00  0.00    +0.224 HD
ATOM      7  C   UNL     1      22.934   4.524  88.038  0.00  0.00    +0.224 C 
ATOM     31  O   UNL     1      22.525   5.364  87.238  0.00  0.00    -0.377 OA
BRANCH   5   4
ATOM      3  C   UNL     1      23.676   6.131  91.201  0.00  0.00    +0.110 A 
ATOM      4  C   UNL     1      22.947   5.898  90.027  0.00  0.00    +0.121 A 
ATOM     32  C   UNL     1      21.959   6.805  89.639  0.00  0.00    +0.036 A 
ATOM     33  C   UNL     1      21.720   7.942  90.396  0.00  0.00    +0.009 A 
ATOM     38  C   UNL     1      22.469   8.187  91.541  0.00  0.00    +0.023 A 
ATOM     39  C   UNL     1      23.440   7.291  91.954  0.00  0.00    +0.048 A 
BRANCH   3   2
ATOM      1  C   UNL     1      25.953   5.703  91.125  0.00  0.00    +0.170 C 
ATOM      2  N   UNL     1      24.617   5.240  91.556  0.00  0.00    -0.283 N 
ATOM     40  C   UNL     1      24.662   4.936  92.998  0.00  0.00    +0.170 C 
ATOM     41  C   UNL     1      25.650   3.769  93.156  0.00  0.00    +0.185 C 
ATOM     42  O   UNL     1      26.974   3.977  92.529  0.00  0.00    -0.376 OA
ATOM     43  C   UNL     1      26.899   4.500  91.183  0.00  0.00    +0.185 C 
ENDBRANCH   3   2
BRANCH  33  34
ATOM     34  C   UNL     1      20.675   8.970  89.952  0.00  0.00    +0.349 C 
ATOM     35  F   UNL     1      19.873   8.537  88.983  0.00  0.00    -0.242 F 
ATOM     36  F   UNL     1      19.961   9.386  90.972  0.00  0.00    -0.242 F 
ATOM     37  F   UNL     1      21.337  10.002  89.482  0.00  0.00    -0.242 F 
ENDBRANCH  33  34
ENDBRANCH   5   4
ENDBRANCH   8   7
BRANCH  12  13
ATOM     13  O   UNL     1      22.701   1.128  84.514  0.00  0.00    -0.236 OA
BRANCH  13  14
ATOM     14  C   UNL     1      23.645   1.129  83.541  0.00  0.00    +0.204 A 
ATOM     15  C   UNL     1      23.230   1.075  82.213  0.00  0.00    +0.066 A 
ATOM     25  C   UNL     1      24.210   1.064  81.215  0.00  0.00    +0.038 A 
ATOM     26  C   UNL     1      25.561   1.126  81.559  0.00  0.00    +0.022 A 
ATOM     27  C   UNL     1      25.909   1.182  82.909  0.00  0.00    +0.085 A 
ATOM     28  N   UNL     1      24.954   1.183  83.844  0.00  0.00    -0.265 NA
BRANCH  15  16
ATOM     16  C   UNL     1      21.874   0.987  81.852  0.00  0.00    +0.057 A 
ATOM     17  C   UNL     1      20.837   0.967  82.796  0.00  0.00    +0.047 A 
ATOM     18  C   UNL     1      19.525   0.847  82.354  0.00  0.00    +0.100 A 
ATOM     19  N   UNL     1      19.288   0.738  81.062  0.00  0.00    -0.258 NA
ATOM     20  C   UNL     1      20.278   0.748  80.160  0.00  0.00    +0.187 A 
ATOM     21  N   UNL     1      20.001   0.655  78.862  0.00  0.00    -0.293 N 
ATOM     22  H   UNL     1      19.033   0.497  78.549  0.00  0.00    +0.186 HD
ATOM     23  C   UNL     1      21.088   0.780  77.875  0.00  0.00    +0.166 C 
ATOM     24  N   UNL     1      21.551   0.872  80.553  0.00  0.00    -0.253 NA
ENDBRANCH  15  16
ENDBRANCH  13  14
ENDBRANCH  12  13
TORSDOF 7
