REMARK  Name = 5CSX
REMARK  11 active torsions:
REMARK  status: ('A' for Active; 'I' for Inactive)
REMARK    1  A    between atoms: N_1  and  C_14
REMARK    2  A    between atoms: C_4  and  N_15
REMARK    3  A    between atoms: C_7  and  N_15
REMARK    4  A    between atoms: C_9  and  C_21
REMARK    5  A    between atoms: C_12  and  N_19
REMARK    6  A    between atoms: C_13  and  C_14
REMARK    7  A    between atoms: C_31  and  N_32
REMARK    8  A    between atoms: N_32  and  S_33
REMARK    9  A    between atoms: S_33  and  C_36
REMARK   10  A    between atoms: C_36  and  C_37
REMARK   11  A    between atoms: C_37  and  C_38
REMARK                            x       y       z     vdW  Elec       q    Type
REMARK                         _______ _______ _______ _____ _____    ______ ____
ROOT
ATOM      7  N   UNL     1      16.528 -77.631  93.409  0.00  0.00    -0.315 N 
ATOM      8  C   UNL     1      16.780 -76.569  92.524  0.00  0.00    +0.122 A 
ATOM      9  N   UNL     1      16.839 -76.856  91.239  0.00  0.00    -0.230 NA
ATOM     10  C   UNL     1      17.083 -75.968  90.286  0.00  0.00    +0.099 A 
ATOM     11  C   UNL     1      17.307 -74.622  90.615  0.00  0.00    +0.073 A 
ATOM     12  N   UNL     1      17.539 -73.948  89.423  0.00  0.00    -0.309 N 
ATOM     13  C   UNL     1      17.470 -74.829  88.380  0.00  0.00    +0.103 A 
ATOM     30  C   UNL     1      17.261 -74.267  91.972  0.00  0.00    +0.032 A 
ATOM     31  C   UNL     1      17.196 -76.079  88.828  0.00  0.00    +0.029 A 
ATOM     38  C   UNL     1      16.994 -75.237  92.931  0.00  0.00    +0.045 A 
ATOM     39  C   UNL     1      16.764 -77.458  94.851  0.00  0.00    +0.131 C 
ENDROOT
BRANCH  12  14
ATOM     14  C   UNL     1      17.838 -72.587  89.262  0.00  0.00    +0.120 A 
ATOM     15  C   UNL     1      19.009 -72.036  89.799  0.00  0.00    +0.172 A 
ATOM     16  F   UNL     1      19.866 -72.791  90.513  0.00  0.00    -0.201 F 
ATOM     17  C   UNL     1      19.306 -70.678  89.612  0.00  0.00    +0.085 A 
ATOM     26  C   UNL     1      18.428 -69.879  88.887  0.00  0.00    +0.030 A 
ATOM     27  C   UNL     1      17.272 -70.430  88.344  0.00  0.00    +0.042 A 
ATOM     28  C   UNL     1      16.985 -71.778  88.517  0.00  0.00    +0.150 A 
ATOM     29  F   UNL     1      15.866 -72.305  87.985  0.00  0.00    -0.203 F 
BRANCH  17  18
ATOM     18  N   UNL     1      20.456 -70.104  90.169  0.00  0.00    -0.218 N 
ATOM     19  H   UNL     1      20.516 -70.465  91.175  0.00  0.00    +0.173 HD
BRANCH  18  20
ATOM     20  S   UNL     1      21.950 -70.335  89.503  0.00  0.00    +0.043 S 
ATOM     24  O   UNL     1      22.061 -71.734  89.269  0.00  0.00    -0.155 OA
ATOM     25  O   UNL     1      22.831 -69.707  90.413  0.00  0.00    -0.155 OA
BRANCH  20  21
ATOM     21  C   UNL     1      21.852 -69.441  87.938  0.00  0.00    +0.188 C 
BRANCH  21  22
ATOM     22  C   UNL     1      23.086 -69.766  87.099  0.00  0.00    +0.021 C 
ATOM     23  C   UNL     1      22.848 -69.276  85.670  0.00  0.00    +0.005 C 
ENDBRANCH  21  22
ENDBRANCH  20  21
ENDBRANCH  18  20
ENDBRANCH  17  18
ENDBRANCH  12  14
BRANCH   7   6
ATOM      1  N   UNL     1      16.026 -81.828  93.080  0.00  0.00    -0.302 NA
ATOM      4  C   UNL     1      14.803 -81.031  93.265  0.00  0.00    +0.086 C 
ATOM      5  C   UNL     1      15.181 -79.688  93.882  0.00  0.00    +0.037 C 
ATOM      6  C   UNL     1      16.091 -78.949  92.897  0.00  0.00    +0.077 C 
ATOM     40  C   UNL     1      17.339 -79.793  92.639  0.00  0.00    +0.037 C 
ATOM     41  C   UNL     1      16.919 -81.171  92.106  0.00  0.00    +0.086 C 
BRANCH   1   2
ATOM      2  C   UNL     1      15.692 -83.199  92.658  0.00  0.00    +0.081 C 
ATOM      3  C   UNL     1      15.139 -84.003  93.842  0.00  0.00    +0.020 C 
ENDBRANCH   1   2
ENDBRANCH   7   6
BRANCH  31  32
ATOM     32  C   UNL     1      17.010 -77.302  88.011  0.00  0.00    +0.022 A 
ATOM     33  C   UNL     1      16.338 -78.424  88.533  0.00  0.00    +0.122 A 
ATOM     34  N   UNL     1      16.169 -79.494  87.776  0.00  0.00    -0.243 NA
ATOM     35  C   UNL     1      16.612 -79.518  86.537  0.00  0.00    +0.221 A 
ATOM     36  N   UNL     1      17.239 -78.493  85.983  0.00  0.00    -0.243 NA
ATOM     37  C   UNL     1      17.458 -77.378  86.675  0.00  0.00    +0.122 A 
ENDBRANCH  31  32
TORSDOF 8
