REMARK  Name = 6BP0
REMARK  5 active torsions:
REMARK  status: ('A' for Active; 'I' for Inactive)
REMARK    1  A    between atoms: C_6  and  C_9
REMARK    2  A    between atoms: C_7  and  N_18
REMARK    3  A    between atoms: C_8  and  N_19
REMARK    4  A    between atoms: C_11  and  O_23
REMARK    5  A    between atoms: N_12  and  C_16
REMARK                            x       y       z     vdW  Elec       q    Type
REMARK                         _______ _______ _______ _____ _____    ______ ____
ROOT
ATOM      1  C   UNL     1     -30.410   2.999  49.418  0.00  0.00    +0.095 A 
ATOM      2  N   UNL     1     -31.369   2.089  49.934  0.00  0.00    -0.269 N 
ATOM      3  C   UNL     1     -32.264   1.379  49.004  0.00  0.00    +0.138 C 
ATOM      4  C   UNL     1     -31.507   1.868  51.279  0.00  0.00    +0.240 C 
ATOM      5  O   UNL     1     -32.427   1.203  51.736  0.00  0.00    -0.273 OA
ATOM      6  C   UNL     1     -30.465   2.477  52.203  0.00  0.00    +0.158 C 
ATOM      7  N   UNL     1     -29.868   3.716  51.660  0.00  0.00    -0.305 N 
ATOM      8  C   UNL     1     -29.502   4.797  52.578  0.00  0.00    +0.131 C 
ATOM      9  C   UNL     1     -29.371   1.478  52.526  0.00  0.00    +0.038 C 
ATOM     10  C   UNL     1     -30.146   3.151  48.051  0.00  0.00    +0.141 A 
ATOM     11  N   UNL     1     -29.242   4.017  47.600  0.00  0.00    -0.221 NA
ATOM     12  C   UNL     1     -28.572   4.749  48.508  0.00  0.00    +0.221 A 
ATOM     13  N   UNL     1     -28.754   4.686  49.838  0.00  0.00    -0.197 NA
ATOM     14  N   UNL     1     -27.678   5.620  47.989  0.00  0.00    -0.283 N 
ATOM     15  H   UNL     1     -27.777   5.777  46.935  0.00  0.00    +0.155 HD
ATOM     26  C   UNL     1     -29.668   3.815  50.299  0.00  0.00    +0.148 A 
ENDROOT
BRANCH  14  16
ATOM     16  C   UNL     1     -26.635   6.361  48.592  0.00  0.00    +0.039 A 
ATOM     17  C   UNL     1     -26.540   6.579  49.964  0.00  0.00    +0.065 A 
ATOM     18  C   UNL     1     -25.499   7.326  50.450  0.00  0.00    +0.169 A 
ATOM     19  F   UNL     1     -25.399   7.525  51.784  0.00  0.00    -0.202 F 
ATOM     20  C   UNL     1     -24.541   7.872  49.619  0.00  0.00    +0.188 A 
ATOM     23  C   UNL     1     -24.658   7.640  48.259  0.00  0.00    +0.169 A 
ATOM     24  F   UNL     1     -23.736   8.154  47.429  0.00  0.00    -0.202 F 
ATOM     25  C   UNL     1     -25.688   6.907  47.731  0.00  0.00    +0.065 A 
BRANCH  20  21
ATOM     21  O   UNL     1     -23.516   8.584  50.124  0.00  0.00    -0.502 OA
ATOM     22  H   UNL     1     -23.890   9.414  50.647  0.00  0.00    +0.292 HD
ENDBRANCH  20  21
ENDBRANCH  14  16
TORSDOF 2
