REMARK  Name = 55K
REMARK  6 active torsions:
REMARK  status: ('A' for Active; 'I' for Inactive)
REMARK    1  A    between atoms: CAU_5  and  CAZ_6
REMARK    2  A    between atoms: CAU_5  and  CAT_9
REMARK    3  A    between atoms: CAT_9  and  NAS_10
REMARK    4  A    between atoms: NAS_10  and  SAP_11
REMARK    5  A    between atoms: SAP_11  and  CAC_14
REMARK    6  A    between atoms: NAK_26  and  CAN_27
REMARK                            x       y       z     vdW  Elec       q    Type
REMARK                         _______ _______ _______ _____ _____    ______ ____
ROOT
ATOM      6  C   UNL     1       5.546  10.724   1.964  0.00  0.00    +0.124 A 
ATOM      7  C   UNL     1       6.711  10.189   2.531  0.00  0.00    +0.021 A 
ATOM      8  C   UNL     1       6.575   9.394   3.676  0.00  0.00    +0.019 A 
ATOM      9  C   UNL     1       5.366   9.162   4.204  0.00  0.00    +0.063 A 
ATOM     10  N   UNL     1       4.979   8.414   5.244  0.00  0.00    -0.295 N 
ATOM     13  C   UNL     1       3.652   8.468   5.334  0.00  0.00    +0.261 A 
ATOM     14  O   UNL     1       3.013   7.748   6.119  0.00  0.00    -0.267 OA
ATOM     15  C   UNL     1       3.175   9.261   4.307  0.00  0.00    +0.058 A 
ATOM     16  C   UNL     1       1.963   9.702   3.870  0.00  0.00    +0.005 A 
ATOM     17  C   UNL     1       1.883  10.538   2.717  0.00  0.00    +0.000 A 
ATOM     18  C   UNL     1       3.038  10.932   2.025  0.00  0.00    +0.001 A 
ATOM     19  C   UNL     1       4.257   9.650   3.611  0.00  0.00    +0.022 A 
ATOM     20  C   UNL     1       4.287  10.448   2.518  0.00  0.00    +0.020 A 
ENDROOT
BRANCH   6   5
ATOM      5  S   UNL     1       5.695  11.697   0.482  0.00  0.00    +0.077 S 
ATOM     21  O   UNL     1       5.094  13.063   0.707  0.00  0.00    -0.152 OA
ATOM     22  O   UNL     1       7.107  11.719   0.118  0.00  0.00    -0.152 OA
BRANCH   5   4
ATOM      4  N   UNL     1       4.786  10.923  -0.733  0.00  0.00    -0.077 NA
BRANCH   4   3
ATOM      3  C   UNL     1       5.287   9.549  -0.980  0.00  0.00    +0.126 C 
BRANCH   3   2
ATOM      1  C   UNL     1       4.971   9.752  -3.432  0.00  0.00    +0.012 C 
ATOM      2  C   UNL     1       4.508   9.020  -2.163  0.00  0.00    +0.112 C 
ATOM     26  C   UNL     1       4.835   7.537  -2.353  0.00  0.00    +0.012 C 
ATOM     27  C   UNL     1       5.705   7.486  -3.516  0.00  0.00    +0.001 C 
ATOM     28  C   UNL     1       5.589   8.747  -4.360  0.00  0.00    +0.001 C 
BRANCH   2  23
ATOM     23  C   UNL     1       2.979   9.107  -1.918  0.00  0.00    +0.365 C 
ATOM     24  O   UNL     1       2.598   9.231  -0.737  0.00  0.00    -0.246 OA
ATOM     25  O   UNL     1       2.214   8.995  -2.898  0.00  0.00    -0.246 OA
ENDBRANCH   2  23
ENDBRANCH   3   2
ENDBRANCH   4   3
ENDBRANCH   5   4
ENDBRANCH   6   5
BRANCH  10  11
ATOM     11  C   UNL     1       5.855   7.680   6.158  0.00  0.00    +0.109 C 
ATOM     12  C   UNL     1       6.074   6.240   5.654  0.00  0.00    +0.027 C 
ENDBRANCH  10  11
TORSDOF 6
