REMARK  Name = 5CAN
REMARK  7 active torsions:
REMARK  status: ('A' for Active; 'I' for Inactive)
REMARK    1  A    between atoms: C_3  and  C_7
REMARK    2  A    between atoms: C_3  and  C_8
REMARK    3  A    between atoms: C_3  and  N_13
REMARK    4  A    between atoms: C_10  and  C_11
REMARK    5  A    between atoms: N_14  and  C_15
REMARK    6  A    between atoms: C_24  and  C_26
REMARK    7  A    between atoms: C_24  and  C_27
REMARK                            x       y       z     vdW  Elec       q    Type
REMARK                         _______ _______ _______ _____ _____    ______ ____
ROOT
ATOM     14  C   UNL     1     -55.013   1.197 -24.405  0.00  0.00    +0.129 A 
ATOM     15  N   UNL     1     -53.965   0.445 -24.737  0.00  0.00    -0.199 NA
ATOM     16  C   UNL     1     -53.975  -0.392 -25.773  0.00  0.00    +0.220 A 
ATOM     17  N   UNL     1     -52.785  -1.043 -26.090  0.00  0.00    -0.299 N 
ATOM     18  C   UNL     1     -52.809  -2.303 -26.863  0.00  0.00    +0.124 C 
ATOM     19  C   UNL     1     -51.432  -2.964 -26.603  0.00  0.00    +0.061 C 
ATOM     25  C   UNL     1     -50.700  -3.058 -27.949  0.00  0.00    +0.022 C 
ATOM     26  C   UNL     1     -50.658  -1.969 -25.703  0.00  0.00    +0.036 C 
ATOM     27  C   UNL     1     -51.810  -1.223 -24.980  0.00  0.00    +0.109 C 
ATOM     28  N   UNL     1     -55.038  -0.432 -26.581  0.00  0.00    -0.223 NA
ATOM     29  C   UNL     1     -56.139   0.281 -26.316  0.00  0.00    +0.118 A 
ATOM     30  C   UNL     1     -56.160   1.132 -25.214  0.00  0.00    +0.063 A 
ENDROOT
BRANCH  14  12
ATOM      1  C   UNL     1     -53.075   1.558 -19.613  0.00  0.00    +0.107 A 
ATOM      2  N   UNL     1     -52.324   1.177 -18.541  0.00  0.00    -0.231 NA
ATOM      3  C   UNL     1     -51.527   0.197 -18.876  0.00  0.00    +0.108 A 
ATOM      4  N   UNL     1     -51.690  -0.100 -20.222  0.00  0.00    -0.325 N 
ATOM      8  C   UNL     1     -50.577  -0.410 -17.875  0.00  0.00    +0.086 C 
ATOM      9  C   UNL     1     -52.670   0.740 -20.702  0.00  0.00    +0.074 A 
ATOM     10  C   UNL     1     -53.279   0.914 -21.950  0.00  0.00    +0.071 A 
ATOM     11  C   UNL     1     -54.307   1.844 -22.085  0.00  0.00    +0.126 A 
ATOM     12  N   UNL     1     -54.970   2.053 -23.308  0.00  0.00    -0.284 N 
ATOM     13  H   UNL     1     -55.502   2.976 -23.406  0.00  0.00    +0.155 HD
ATOM     31  N   UNL     1     -54.654   2.606 -21.033  0.00  0.00    -0.238 NA
ATOM     32  C   UNL     1     -54.075   2.520 -19.840  0.00  0.00    +0.142 A 
BRANCH   4   5
ATOM      5  C   UNL     1     -51.054  -1.092 -21.108  0.00  0.00    +0.083 C 
ATOM      6  C   UNL     1     -51.485  -2.530 -20.821  0.00  0.00    +0.030 C 
ATOM      7  C   UNL     1     -49.552  -0.891 -21.322  0.00  0.00    +0.030 C 
ENDBRANCH   4   5
ENDBRANCH  14  12
BRANCH  19  20
ATOM     20  C   UNL     1     -51.579  -4.294 -25.858  0.00  0.00    +0.218 C 
ATOM     21  N   UNL     1     -50.901  -5.399 -26.247  0.00  0.00    -0.329 N 
ATOM     22  H   UNL     1     -51.021  -6.317 -25.710  0.00  0.00    +0.145 HD
ATOM     23  H   UNL     1     -50.245  -5.355 -27.092  0.00  0.00    +0.145 HD
ATOM     24  O   UNL     1     -52.301  -4.390 -24.868  0.00  0.00    -0.275 OA
ENDBRANCH  19  20
TORSDOF 3
