REMARK  Name = 4o0t_ligand
REMARK  8 active torsions:
REMARK  status: ('A' for Active; 'I' for Inactive)
REMARK    1  A    between atoms: C1_1  and  O2_2
REMARK    2  A    between atoms: O2_2  and  C3_3
REMARK    3  A    between atoms: C3_3  and  C4_4
REMARK    4  A    between atoms: C4_4  and  N5_5
REMARK    5  A    between atoms: C11_11  and  C22_22
REMARK    6  A    between atoms: N14_14  and  C15_15
REMARK    7  A    between atoms: C23_23  and  C24_24
REMARK    8  A    between atoms: C24_24  and  O30_30
REMARK                            x       y       z     vdW  Elec       q    Type
REMARK                         _______ _______ _______ _____ _____    ______ ____
ROOT
ATOM      5  N   UNL     1      13.813 -15.612  13.615  0.00  0.00    -0.269 N 
ATOM      6  H   UNL     1      13.747 -16.425  14.244  0.00  0.00    +0.191 HD
ATOM      7  C   UNL     1      15.016 -15.351  12.992  0.00  0.00    +0.239 A 
ATOM      8  N   UNL     1      16.207 -15.921  13.368  0.00  0.00    -0.150 N 
ATOM     18  C   UNL     1      17.185 -15.409  12.508  0.00  0.00    +0.102 A 
ATOM     19  C   UNL     1      18.553 -15.584  12.369  0.00  0.00    +0.032 A 
ATOM     20  C   UNL     1      19.258 -14.914  11.373  0.00  0.00    +0.010 A 
ATOM     31  C   UNL     1      18.595 -14.040  10.508  0.00  0.00    -0.011 A 
ATOM     32  C   UNL     1      17.246 -13.859  10.626  0.00  0.00    -0.013 A 
ATOM     33  C   UNL     1      16.520 -14.533  11.624  0.00  0.00    +0.019 A 
ATOM     34  N   UNL     1      15.204 -14.545  11.974  0.00  0.00    -0.306 NA
ENDROOT
BRANCH   8   9
ATOM      9  C   UNL     1      16.347 -16.826  14.433  0.00  0.00    +0.170 A 
ATOM     10  N   UNL     1      15.419 -16.845  15.379  0.00  0.00    -0.228 NA
ATOM     11  C   UNL     1      15.489 -17.676  16.411  0.00  0.00    +0.177 A 
ATOM     12  N   UNL     1      14.487 -17.648  17.364  0.00  0.00    -0.305 N 
ATOM     13  H   UNL     1      13.702 -16.989  17.266  0.00  0.00    +0.183 HD
ATOM     14  H   UNL     1      14.526 -18.286  18.171  0.00  0.00    +0.183 HD
ATOM     15  N   UNL     1      16.491 -18.531  16.552  0.00  0.00    -0.268 NA
ATOM     16  C   UNL     1      17.462 -18.574  15.653  0.00  0.00    +0.091 A 
ATOM     17  C   UNL     1      17.415 -17.720  14.562  0.00  0.00    +0.069 A 
ENDBRANCH   8   9
BRANCH  20  21
ATOM     21  C   UNL     1      20.673 -15.114  11.283  0.00  0.00    -0.073 C 
ATOM     22  C   UNL     1      21.817 -15.351  11.255  0.00  0.00    -0.068 C 
BRANCH  22  23
ATOM     23  C   UNL     1      23.264 -15.624  11.219  0.00  0.00    +0.125 C 
ATOM     26  C   UNL     1      23.464 -16.917  10.421  0.00  0.00    +0.047 C 
ATOM     27  C   UNL     1      24.925 -17.360  10.450  0.00  0.00    +0.004 C 
ATOM     28  C   UNL     1      25.374 -17.567  11.895  0.00  0.00    +0.000 C 
ATOM     29  C   UNL     1      25.226 -16.255  12.660  0.00  0.00    +0.004 C 
ATOM     30  C   UNL     1      23.765 -15.806  12.649  0.00  0.00    +0.047 C 
BRANCH  23  24
ATOM     24  O   UNL     1      23.966 -14.554  10.589  0.00  0.00    -0.377 OA
ATOM     25  H   UNL     1      23.648 -14.448   9.700  0.00  0.00    +0.211 HD
ENDBRANCH  23  24
ENDBRANCH  22  23
ENDBRANCH  20  21
BRANCH   5   4
ATOM      4  C   UNL     1      12.624 -14.775  13.416  0.00  0.00    +0.168 C 
BRANCH   4   3
ATOM      3  C   UNL     1      12.407 -13.860  14.626  0.00  0.00    +0.184 C 
BRANCH   3   2
ATOM      1  C   UNL     1      13.355 -11.834  15.513  0.00  0.00    +0.193 C 
ATOM      2  O   UNL     1      13.008 -12.591  14.352  0.00  0.00    -0.381 OA
ENDBRANCH   3   2
ENDBRANCH   4   3
ENDBRANCH   5   4
TORSDOF 7
