REMARK  Name = 4wwp_ligand
REMARK  6 active torsions:
REMARK  status: ('A' for Active; 'I' for Inactive)
REMARK    1  A    between atoms: C30_1  and  C29_2
REMARK    2  A    between atoms: C11_7  and  C2_8
REMARK    3  A    between atoms: C1_18  and  C13_19
REMARK    4  A    between atoms: C13_19  and  C15_20
REMARK    5  A    between atoms: C13_19  and  N14_21
REMARK    6  A    between atoms: N14_21  and  C16_22
REMARK                            x       y       z     vdW  Elec       q    Type
REMARK                         _______ _______ _______ _____ _____    ______ ____
ROOT
ATOM      4  C   UNL     1      19.526  17.615  19.816  0.00  0.00    +0.061 A 
ATOM      5  C   UNL     1      20.555  16.760  20.244  0.00  0.00    +0.019 A 
ATOM     20  C   UNL     1      21.060  15.807  19.364  0.00  0.00    +0.034 A 
ATOM     21  C   UNL     1      20.516  15.730  18.092  0.00  0.00    -0.002 A 
ATOM     22  C   UNL     1      20.987  14.783  17.192  0.00  0.00    +0.013 A 
ATOM     23  C   UNL     1      20.442  14.696  15.913  0.00  0.00    +0.004 A 
ATOM     24  C   UNL     1      19.429  15.567  15.535  0.00  0.00    +0.019 A 
ATOM     25  C   UNL     1      18.957  16.523  16.428  0.00  0.00    +0.059 A 
ATOM     26 CL   UNL     1      17.699  17.602  15.906  0.00  0.00    -0.068 Cl
ATOM     27  C   UNL     1      19.499  16.602  17.717  0.00  0.00    +0.053 A 
ATOM     28  N   UNL     1      19.043  17.515  18.585  0.00  0.00    -0.295 NA
ENDROOT
BRANCH   4   3
ATOM      1  C   UNL     1      17.197  17.124  21.671  0.00  0.00    +0.116 C 
ATOM      2  C   UNL     1      17.939  18.445  21.509  0.00  0.00    +0.038 A 
ATOM      3  C   UNL     1      19.010  18.614  20.626  0.00  0.00    +0.030 A 
ATOM     29  C   UNL     1      19.628  19.852  20.534  0.00  0.00    +0.036 A 
ATOM     30  C   UNL     1      19.161  20.885  21.331  0.00  0.00    +0.027 A 
ATOM     31  C   UNL     1      18.089  20.666  22.184  0.00  0.00    +0.086 A 
ATOM     32  N   UNL     1      17.520  19.478  22.251  0.00  0.00    -0.295 NA
ENDBRANCH   4   3
BRANCH   5   6
ATOM      6  C   UNL     1      21.150  16.863  21.654  0.00  0.00    +0.151 C 
ATOM     19  C   UNL     1      22.325  17.829  21.528  0.00  0.00    +0.052 C 
BRANCH   6   7
ATOM      7  N   UNL     1      21.632  15.557  22.170  0.00  0.00    -0.286 N 
ATOM      8  H   UNL     1      22.651  15.414  22.221  0.00  0.00    +0.187 HD
BRANCH   7   9
ATOM      9  C   UNL     1      20.847  14.552  22.574  0.00  0.00    +0.157 A 
ATOM     10  N   UNL     1      19.513  14.654  22.584  0.00  0.00    -0.269 NA
ATOM     11  C   UNL     1      18.742  13.638  22.995  0.00  0.00    +0.148 A 
ATOM     12  N   UNL     1      19.254  12.484  23.417  0.00  0.00    -0.295 NA
ATOM     13  C   UNL     1      20.584  12.327  23.433  0.00  0.00    +0.102 A 
ATOM     14  N   UNL     1      21.363  11.316  23.781  0.00  0.00    -0.286 NA
ATOM     15  C   UNL     1      22.635  11.681  23.592  0.00  0.00    +0.251 A 
ATOM     16  N   UNL     1      22.671  12.925  23.123  0.00  0.00    -0.241 N 
ATOM     17  H   UNL     1      23.519  13.462  22.890  0.00  0.00    +0.238 HD
ATOM     18  C   UNL     1      21.413  13.352  23.008  0.00  0.00    +0.155 A 
ENDBRANCH   7   9
ENDBRANCH   6   7
ENDBRANCH   5   6
TORSDOF 4
