REMARK  Name = 6N78
REMARK  5 active torsions:
REMARK  status: ('A' for Active; 'I' for Inactive)
REMARK    1  A    between atoms: C4_1  and  C3_14
REMARK    2  A    between atoms: C11_5  and  C12_10
REMARK    3  A    between atoms: C9_8  and  O_26
REMARK    4  A    between atoms: C10_9  and  O_26
REMARK    5  A    between atoms: N2_13  and  C2_22
REMARK                            x       y       z     vdW  Elec       q    Type
REMARK                         _______ _______ _______ _____ _____    ______ ____
ROOT
ATOM      2  C   UNL     1     -23.263   2.306  -0.955  0.00  0.00    +0.100 C 
ATOM      3  C   UNL     1     -24.584   2.003  -0.537  0.00  0.00    +0.100 C 
ATOM      4  C   UNL     1     -24.516   0.712  -0.089  0.00  0.00    +0.000 C 
ATOM      5  N   UNL     1     -23.246   0.313  -0.228  0.00  0.00    -0.200 NA
ATOM      6  C   UNL     1     -22.670  -0.968   0.165  0.00  0.00    -0.050 C 
ATOM     19  N   UNL     1     -22.444   1.269  -0.766  0.00  0.00    -0.350 NA
ENDROOT
BRANCH   2   1
ATOM      1  C   UNL     1     -22.739   3.548  -1.571  0.00  0.00    +0.000 A 
ATOM     20  C   UNL     1     -23.310   4.129  -2.720  0.00  0.00    +0.185 A 
ATOM     25  C   UNL     1     -22.762   5.276  -3.288  0.00  0.00    -0.130 A 
ATOM     26  C   UNL     1     -21.627   5.846  -2.740  0.00  0.00    -0.130 A 
ATOM     27  C   UNL     1     -21.060   5.275  -1.614  0.00  0.00    +0.200 A 
ATOM     28 CL   UNL     1     -19.586   5.950  -0.969  0.00  0.00    -0.200 Cl
ATOM     29  C   UNL     1     -21.607   4.158  -1.012  0.00  0.00    -0.130 A 
BRANCH  20  21
ATOM     21  O   UNL     1     -24.451   3.526  -3.207  0.00  0.00    -0.185 OA
BRANCH  21  22
ATOM     22  C   UNL     1     -24.467   3.087  -4.504  0.00  0.00    +0.550 C 
ATOM     23  F   UNL     1     -25.250   2.028  -4.708  0.00  0.00    -0.300 F 
ATOM     24  F   UNL     1     -24.948   4.040  -5.303  0.00  0.00    -0.300 F 
ENDBRANCH  21  22
ENDBRANCH  20  21
ENDBRANCH   2   1
BRANCH   3   7
ATOM      7  N   UNL     1     -25.685   2.902  -0.559  0.00  0.00    -0.400 NA
ATOM      8  C   UNL     1     -26.953   2.663  -0.086  0.00  0.00    +0.600 C 
ATOM      9  O   UNL     1     -27.274   1.647   0.533  0.00  0.00    -0.550 OA
BRANCH   8  10
ATOM     10  C   UNL     1     -27.957   3.725  -0.365  0.00  0.00    +0.000 A 
ATOM     11  C   UNL     1     -29.328   3.669  -0.060  0.00  0.00    +0.000 A 
ATOM     12  N   UNL     1     -29.990   4.737  -0.477  0.00  0.00    -0.350 NA
ATOM     13  N   UNL     1     -29.039   5.518  -1.082  0.00  0.00    -0.150 N 
ATOM     14  C   UNL     1     -29.263   6.694  -1.764  0.00  0.00    +0.000 C 
ATOM     15  C   UNL     1     -28.198   7.278  -2.359  0.00  0.00    -0.100 C 
ATOM     16  C   UNL     1     -26.923   6.663  -2.232  0.00  0.00    +0.000 C 
ATOM     17  N   UNL     1     -26.697   5.527  -1.583  0.00  0.00    -0.150 NA
ATOM     18  C   UNL     1     -27.789   4.952  -1.016  0.00  0.00    +0.100 A 
ENDBRANCH   8  10
ENDBRANCH   3   7
TORSDOF 5
