REMARK  Name = 4TWO
REMARK  10 active torsions:
REMARK  status: ('A' for Active; 'I' for Inactive)
REMARK    1  A    between atoms: C_1  and  N_11
REMARK    2  A    between atoms: C_2  and  C_3
REMARK    3  A    between atoms: C_6  and  C_7
REMARK    4  A    between atoms: C_8  and  C_9
REMARK    5  A    between atoms: C_12  and  C_14
REMARK    6  A    between atoms: C_14  and  C_15
REMARK    7  A    between atoms: C_15  and  C_16
REMARK    8  A    between atoms: C_16  and  C_17
REMARK    9  A    between atoms: C_20  and  C_21
REMARK   10  A    between atoms: C_25  and  C_26
REMARK                            x       y       z     vdW  Elec       q    Type
REMARK                         _______ _______ _______ _____ _____    ______ ____
ROOT
ATOM      1  C   UNL     1       0.593 -12.991 -13.598  0.00  0.00    +0.085 A 
ATOM      2  C   UNL     1       0.951 -11.706 -13.228  0.00  0.00    +0.073 A 
ATOM      8  C   UNL     1       1.215 -10.825 -14.286  0.00  0.00    +0.006 A 
ATOM      9  C   UNL     1       1.125 -11.405 -15.557  0.00  0.00    -0.003 A 
ATOM     10  C   UNL     1       1.367 -10.772 -16.919  0.00  0.00    +0.052 C 
ATOM     29  S   UNL     1       0.662 -13.034 -15.305  0.00  0.00    -0.077 S 
ENDROOT
BRANCH   8  11
ATOM     11  C   UNL     1       1.647  -9.485 -14.212  0.00  0.00    -0.016 A 
ATOM     12  C   UNL     1       2.898  -9.258 -13.638  0.00  0.00    +0.012 A 
ATOM     13  C   UNL     1       3.424  -7.973 -13.579  0.00  0.00    -0.047 A 
ATOM     14  C   UNL     1       4.768  -7.746 -12.913  0.00  0.00    +0.044 C 
ATOM     15  C   UNL     1       2.723  -6.906 -14.130  0.00  0.00    -0.048 A 
ATOM     16  C   UNL     1       1.492  -7.126 -14.729  0.00  0.00    +0.004 A 
ATOM     17  C   UNL     1       3.289  -5.506 -14.087  0.00  0.00    +0.044 C 
ATOM     18  C   UNL     1       0.965  -8.412 -14.779  0.00  0.00    +0.009 A 
ENDBRANCH   8  11
BRANCH   2   3
ATOM      3  C   UNL     1       0.956 -11.381 -11.757  0.00  0.00    +0.245 C 
ATOM      4  O   UNL     1       0.992 -12.288 -10.934  0.00  0.00    -0.270 OA
ATOM      5  N   UNL     1       0.874 -10.031 -11.326  0.00  0.00    -0.325 N 
ATOM      6  H   UNL     1       0.878  -9.802 -10.281  0.00  0.00    +0.145 HD
ATOM      7  H   UNL     1       0.809  -9.242 -12.046  0.00  0.00    +0.145 HD
ENDBRANCH   2   3
BRANCH   1  19
ATOM     19  N   UNL     1       0.289 -14.054 -12.715  0.00  0.00    -0.279 N 
ATOM     20  H   UNL     1       0.102 -13.833 -11.685  0.00  0.00    +0.155 HD
ATOM     21  C   UNL     1       0.223 -15.413 -13.153  0.00  0.00    +0.218 C 
ATOM     28  O   UNL     1       0.381 -15.717 -14.316  0.00  0.00    -0.276 OA
BRANCH  21  22
ATOM     22  C   UNL     1      -0.072 -16.509 -12.154  0.00  0.00    +0.096 C 
BRANCH  22  23
ATOM     23  C   UNL     1       0.642 -17.796 -12.495  0.00  0.00    +0.015 C 
BRANCH  23  24
ATOM     24  C   UNL     1       0.455 -18.836 -11.417  0.00  0.00    +0.052 C 
BRANCH  24  25
ATOM     25  C   UNL     1       1.550 -19.885 -11.369  0.00  0.00    +0.042 C 
ATOM     26  O   UNL     1       1.498 -20.801 -10.500  0.00  0.00    -0.550 OA
ATOM     27  O   UNL     1       2.506 -19.846 -12.190  0.00  0.00    -0.550 OA
ENDBRANCH  24  25
ENDBRANCH  23  24
ENDBRANCH  22  23
ENDBRANCH  21  22
ENDBRANCH   1  19
TORSDOF 7
