REMARK  Name = 4TWN
REMARK  12 active torsions:
REMARK  status: ('A' for Active; 'I' for Inactive)
REMARK    1  A    between atoms: N_3  and  C_4
REMARK    2  A    between atoms: C_7  and  O_31
REMARK    3  A    between atoms: N_14  and  C_15
REMARK    4  A    between atoms: C_17  and  C_24
REMARK    5  A    between atoms: N_19  and  C_20
REMARK    6  A    between atoms: C_21  and  C_24
REMARK    7  A    between atoms: C_22  and  C_24
REMARK    8  A    between atoms: C_23  and  C_24
REMARK    9  A    between atoms: C_27  and  C_30
REMARK   10  A    between atoms: O_31  and  C_32
REMARK   11  A    between atoms: C_32  and  C_33
REMARK   12  A    between atoms: C_33  and  N_34
REMARK                            x       y       z     vdW  Elec       q    Type
REMARK                         _______ _______ _______ _____ _____    ______ ____
ROOT
ATOM      1  C   UNL     1      -0.087  -4.860 -16.198  0.00  0.00    +0.309 C 
ATOM      2  N   UNL     1       0.017  -3.645 -16.748  0.00  0.00    -0.254 N 
ATOM      3  H   UNL     1       0.887  -3.396 -17.319  0.00  0.00    +0.158 HD
ATOM     20  N   UNL     1       1.040  -5.579 -16.141  0.00  0.00    -0.269 N 
ATOM     21  H   UNL     1       1.936  -5.080 -16.445  0.00  0.00    +0.156 HD
ATOM     41  O   UNL     1      -1.146  -5.282 -15.754  0.00  0.00    -0.252 OA
ENDROOT
BRANCH  20  22
ATOM     22  C   UNL     1       1.176  -6.866 -15.743  0.00  0.00    +0.043 A 
ATOM     23  C   UNL     1       0.191  -7.851 -15.856  0.00  0.00    +0.027 A 
ATOM     24  C   UNL     1       0.399  -9.178 -15.434  0.00  0.00    +0.048 A 
ATOM     25  C   UNL     1       1.609  -9.573 -14.868  0.00  0.00    +0.128 A 
ATOM     35  C   UNL     1       2.710  -8.612 -14.713  0.00  0.00    +0.026 A 
ATOM     36  C   UNL     1       3.926  -8.988 -14.147  0.00  0.00    +0.012 A 
ATOM     37  C   UNL     1       4.913  -8.021 -14.026  0.00  0.00    +0.001 A 
ATOM     38  C   UNL     1       4.715  -6.704 -14.447  0.00  0.00    +0.001 A 
ATOM     39  C   UNL     1       3.502  -6.297 -15.011  0.00  0.00    +0.010 A 
ATOM     40  C   UNL     1       2.490  -7.227 -15.153  0.00  0.00    +0.007 A 
BRANCH  25  26
ATOM     26  O   UNL     1       1.838 -10.848 -14.452  0.00  0.00    -0.490 OA
BRANCH  26  27
ATOM     27  C   UNL     1       1.228 -11.925 -15.146  0.00  0.00    +0.244 C 
BRANCH  27  28
ATOM     28  C   UNL     1       1.872 -13.207 -14.643  0.00  0.00    +0.125 C 
BRANCH  28  29
ATOM     29  N   UNL     1       1.025 -13.753 -13.583  0.00  0.00    -0.295 NA
ATOM     30  C   UNL     1      -0.303 -13.984 -14.158  0.00  0.00    +0.112 C 
ATOM     31  C   UNL     1      -1.172 -14.675 -13.123  0.00  0.00    +0.175 C 
ATOM     32  O   UNL     1      -0.574 -15.920 -12.768  0.00  0.00    -0.377 OA
ATOM     33  C   UNL     1       0.698 -15.717 -12.158  0.00  0.00    +0.175 C 
ATOM     34  C   UNL     1       1.611 -15.030 -13.161  0.00  0.00    +0.112 C 
ENDBRANCH  28  29
ENDBRANCH  27  28
ENDBRANCH  26  27
ENDBRANCH  25  26
ENDBRANCH  20  22
BRANCH   2   4
ATOM      4  C   UNL     1      -0.967  -2.724 -16.591  0.00  0.00    +0.130 A 
ATOM      5  N   UNL     1      -1.022  -1.669 -17.435  0.00  0.00    -0.218 N 
ATOM     13  N   UNL     1      -2.069  -0.804 -17.155  0.00  0.00    -0.169 NA
ATOM     14  C   UNL     1      -2.626  -1.404 -16.085  0.00  0.00    +0.071 A 
ATOM     19  C   UNL     1      -2.009  -2.580 -15.671  0.00  0.00    +0.069 A 
BRANCH   5   6
ATOM      6  C   UNL     1      -0.206  -1.372 -18.455  0.00  0.00    +0.067 A 
ATOM      7  C   UNL     1       0.292  -2.286 -19.383  0.00  0.00    +0.028 A 
ATOM      8  C   UNL     1       1.148  -1.920 -20.411  0.00  0.00    +0.005 A 
ATOM      9  C   UNL     1       1.518  -0.594 -20.558  0.00  0.00    -0.050 A 
ATOM     10  C   UNL     1       2.437  -0.204 -21.684  0.00  0.00    +0.044 C 
ATOM     11  C   UNL     1       1.050   0.356 -19.662  0.00  0.00    +0.005 A 
ATOM     12  C   UNL     1       0.205  -0.046 -18.633  0.00  0.00    +0.028 A 
ENDBRANCH   5   6
BRANCH  14  15
ATOM     15  C   UNL     1      -3.827  -0.821 -15.402  0.00  0.00    +0.006 C 
ATOM     16  C   UNL     1      -3.484  -0.500 -13.957  0.00  0.00    +0.017 C 
ATOM     17  C   UNL     1      -4.971  -1.823 -15.460  0.00  0.00    +0.017 C 
ATOM     18  C   UNL     1      -4.196   0.474 -16.112  0.00  0.00    +0.017 C 
ENDBRANCH  14  15
ENDBRANCH   2   4
TORSDOF 8
