REMARK  Name = SB4
REMARK  3 active torsions:
REMARK  status: ('A' for Active; 'I' for Inactive)
REMARK    1  A    between atoms: CA6_6  and  ND1_21
REMARK    2  A    between atoms: CB6_12  and  CD4_24
REMARK    3  A    between atoms: CC2_15  and  CD5_25
REMARK                            x       y       z     vdW  Elec       q    Type
REMARK                         _______ _______ _______ _____ _____    ______ ____
ROOT
ATOM      7  N   UNL     1     -21.662   5.734 -28.267  0.00  0.00    -0.310 N 
ATOM      8  C   UNL     1     -21.177   6.927 -28.641  0.00  0.00    +0.178 A 
ATOM      9  N   UNL     1     -20.640   6.791 -29.845  0.00  0.00    -0.224 NA
ATOM     10  C   UNL     1     -20.799   5.523 -30.238  0.00  0.00    +0.100 A 
ATOM     18  C   UNL     1     -21.475   4.832 -29.234  0.00  0.00    +0.097 A 
ENDROOT
BRANCH  10  11
ATOM     11  C   UNL     1     -20.349   5.053 -31.478  0.00  0.00    +0.019 A 
ATOM     12  C   UNL     1     -19.130   5.287 -32.085  0.00  0.00    +0.004 A 
ATOM     13  C   UNL     1     -18.848   4.728 -33.330  0.00  0.00    +0.030 A 
ATOM     14  C   UNL     1     -19.804   3.953 -33.973  0.00  0.00    +0.140 A 
ATOM     15  C   UNL     1     -21.034   3.725 -33.389  0.00  0.00    +0.030 A 
ATOM     16  F   UNL     1     -19.528   3.412 -35.173  0.00  0.00    -0.204 F 
ATOM     17  C   UNL     1     -21.299   4.296 -32.150  0.00  0.00    +0.004 A 
ENDBRANCH  10  11
BRANCH  18  19
ATOM     19  C   UNL     1     -21.794   3.453 -29.168  0.00  0.00    +0.103 A 
ATOM     20  N   UNL     1     -22.853   3.024 -28.478  0.00  0.00    -0.210 NA
ATOM     21  C   UNL     1     -23.117   1.700 -28.309  0.00  0.00    +0.257 A 
ATOM     22  N   UNL     1     -24.304   1.320 -27.558  0.00  0.00    -0.086 NA
ATOM     23  N   UNL     1     -22.297   0.745 -28.836  0.00  0.00    -0.210 NA
ATOM     24  C   UNL     1     -21.227   1.136 -29.495  0.00  0.00    +0.103 A 
ATOM     25  C   UNL     1     -20.970   2.468 -29.649  0.00  0.00    +0.041 A 
ENDBRANCH  18  19
BRANCH   7   6
ATOM      1  C   UNL     1     -23.821   5.699 -27.146  0.00  0.00    +0.041 C 
ATOM      2  C   UNL     1     -24.415   6.479 -25.954  0.00  0.00    +0.091 C 
ATOM      3  N   UNL     1     -23.884   6.076 -24.592  0.00  0.00    -0.218 NA
ATOM      4  C   UNL     1     -22.383   6.119 -24.525  0.00  0.00    +0.091 C 
ATOM      5  C   UNL     1     -21.808   6.469 -25.916  0.00  0.00    +0.041 C 
ATOM      6  C   UNL     1     -22.339   5.512 -26.950  0.00  0.00    +0.090 C 
ENDBRANCH   7   6
TORSDOF 3
