REMARK  Name = 6QAW
REMARK  2 active torsions:
REMARK  status: ('A' for Active; 'I' for Inactive)
REMARK    1  A    between atoms: C2_1  and  C3_2
REMARK    2  A    between atoms: N6_12  and  C9_13
REMARK                            x       y       z     vdW  Elec       q    Type
REMARK                         _______ _______ _______ _____ _____    ______ ____
ROOT
ATOM      7  C   UNL     1      10.964   8.790  44.064  0.00  0.00    +0.380 A 
ATOM      8  C   UNL     1      10.776   7.454  44.506  0.00  0.00    +0.050 A 
ATOM      9  C   UNL     1       9.720   6.673  45.047  0.00  0.00    -0.150 A 
ATOM     10  C   UNL     1      10.185   5.414  45.269  0.00  0.00    +0.000 A 
ATOM     11  N   UNL     1      11.488   5.381  44.898  0.00  0.00    -0.600 NA
ATOM     12  C   UNL     1      11.880   6.601  44.422  0.00  0.00    +0.550 A 
ATOM     13  N   UNL     1      13.109   6.935  43.963  0.00  0.00    -0.730 NA
ATOM     14  C   UNL     1      13.175   8.212  43.577  0.00  0.00    +0.630 A 
ATOM     15  N   UNL     1      12.191   9.138  43.603  0.00  0.00    -0.760 NA
ENDROOT
BRANCH   7   6
ATOM      3  C   UNL     1       7.981  10.317  41.989  0.00  0.00    -0.050 C 
ATOM      4  C   UNL     1       7.827   9.215  43.037  0.00  0.00    -0.100 C 
ATOM      5  C   UNL     1       8.560   9.588  44.320  0.00  0.00    +0.100 C 
ATOM      6  N   UNL     1       9.987   9.809  44.049  0.00  0.00    -0.400 N 
ATOM     16  C   UNL     1      10.132  10.932  43.116  0.00  0.00    +0.100 C 
ATOM     17  C   UNL     1       9.463  10.607  41.789  0.00  0.00    -0.100 C 
BRANCH   3   1
ATOM      1  C   UNL     1       7.291   9.989  40.655  0.00  0.00    +0.100 C 
ATOM      2  N   UNL     1       5.816   9.992  40.793  0.00  0.00    -0.250 NA
ENDBRANCH   3   1
ENDBRANCH   7   6
TORSDOF 2
