REMARK  Name = 1NMZ
REMARK  7 active torsions:
REMARK  status: ('A' for Active; 'I' for Inactive)
REMARK    1  A    between atoms: N_1  and  C_12
REMARK    2  A    between atoms: C_6  and  O_7
REMARK    3  A    between atoms: C_8  and  C_9
REMARK    4  A    between atoms: N_11  and  C_14
REMARK    5  A    between atoms: C_15  and  C_17
REMARK    6  A    between atoms: O_16  and  C_17
REMARK    7  A    between atoms: O_16  and  P_18
REMARK                            x       y       z     vdW  Elec       q    Type
REMARK                         _______ _______ _______ _____ _____    ______ ____
ROOT
ATOM      2  C   UNL     1      13.969  77.201  25.374  0.00  0.00    +0.225 C 
ATOM      3  C   UNL     1      12.916  76.698  26.381  0.00  0.00    +0.076 C 
ATOM      4  C   UNL     1      13.594  75.540  27.101  0.00  0.00    +0.086 C 
ATOM      5  C   UNL     1      14.787  75.246  26.192  0.00  0.00    +0.163 C 
ATOM     15  O   UNL     1      14.642  76.069  25.048  0.00  0.00    -0.349 OA
ENDROOT
BRANCH   2   1
ATOM      1  N   UNL     1      13.411  77.709  24.069  0.00  0.00    -0.272 N 
ATOM     16  C   UNL     1      13.808  79.004  23.630  0.00  0.00    +0.353 C 
ATOM     17  N   UNL     1      13.336  79.377  22.417  0.00  0.00    -0.158 NA
ATOM     18  C   UNL     1      12.575  78.536  21.592  0.00  0.00    +0.221 C 
ATOM     19  C   UNL     1      12.241  77.175  22.107  0.00  0.00    +0.027 C 
ATOM     20  C   UNL     1      11.395  76.340  21.134  0.00  0.00    +0.051 C 
ATOM     23  O   UNL     1      14.484  79.727  24.367  0.00  0.00    -0.244 OA
ATOM     24  C   UNL     1      12.696  76.830  23.319  0.00  0.00    +0.101 C 
BRANCH  18  21
ATOM     21  O   UNL     1      12.240  79.043  20.399  0.00  0.00    -0.492 OA
ATOM     22  H   UNL     1      11.671  79.915  20.536  0.00  0.00    +0.294 HD
ENDBRANCH  18  21
ENDBRANCH   2   1
BRANCH   4  12
ATOM     12  N   UNL     1      14.220  76.133  28.361  0.00  0.00    -0.325 NA
ATOM     13  H   UNL     1      14.930  76.885  28.087  0.00  0.00    +0.119 HD
ATOM     14  H   UNL     1      13.455  76.570  28.968  0.00  0.00    +0.119 HD
ENDBRANCH   4  12
BRANCH   5   6
ATOM      6  C   UNL     1      14.888  73.703  25.935  0.00  0.00    +0.196 C 
BRANCH   6   7
ATOM      7  O   UNL     1      13.498  73.264  25.851  0.00  0.00    -0.365 OA
BRANCH   7   8
ATOM      8  P   UNL     1      13.018  71.741  26.106  0.00  0.00    -0.015 P 
ATOM      9  O   UNL     1      14.039  71.077  24.986  0.00  0.00    -0.577 OA
ATOM     10  O   UNL     1      11.587  71.814  25.809  0.00  0.00    -0.638 OA
ATOM     11  O   UNL     1      13.627  71.047  27.280  0.00  0.00    -0.577 OA
ENDBRANCH   7   8
ENDBRANCH   6   7
ENDBRANCH   5   6
TORSDOF 6
