REMARK  Name = 3i5z_ligand
REMARK  8 active torsions:
REMARK  status: ('A' for Active; 'I' for Inactive)
REMARK    1  A    between atoms: C1_1  and  C2_2
REMARK    2  A    between atoms: N6_6  and  C7_7
REMARK    3  A    between atoms: C14_14  and  C15_15
REMARK    4  A    between atoms: C19_18  and  C21_20
REMARK    5  A    between atoms: N23_22  and  C24_23
REMARK    6  A    between atoms: C24_23  and  C26_24
REMARK    7  A    between atoms: C24_23  and  C28_26
REMARK    8  A    between atoms: C26_24  and  O27_25
REMARK                            x       y       z     vdW  Elec       q    Type
REMARK                         _______ _______ _______ _____ _____    ______ ____
ROOT
ATOM      4  C   UNL     1       8.009  -2.235  45.282  0.00  0.00    -0.004 A 
ATOM      5  C   UNL     1       9.232  -2.400  45.979  0.00  0.00    -0.006 A 
ATOM      6  CA  UNL     1      10.139  -2.905  45.085  0.00  0.00    +0.130 A 
ATOM     21  N   UNL     1       9.518  -3.028  43.869  0.00  0.00    -0.270 N 
ATOM     22  H   UNL     1       9.959  -3.370  43.004  0.00  0.00    +0.240 HD
ATOM     23  C   UNL     1       8.243  -2.630  43.989  0.00  0.00    +0.144 A 
ENDROOT
BRANCH   4   3
ATOM      1  C   UNL     1       7.600  -0.566  47.871  0.00  0.00    +0.088 C 
ATOM      2  C   UNL     1       6.497  -0.934  46.914  0.00  0.00    -0.009 A 
ATOM      3  C   UNL     1       6.693  -1.705  45.742  0.00  0.00    +0.036 A 
ATOM     24  N   UNL     1       5.633  -1.950  44.965  0.00  0.00    -0.265 NA
ATOM     25  C   UNL     1       4.424  -1.512  45.262  0.00  0.00    +0.195 A 
ATOM     26  N   UNL     1       3.325  -1.781  44.445  0.00  0.00    -0.246 N 
ATOM     27  H   UNL     1       2.450  -1.300  44.696  0.00  0.00    +0.216 HD
ATOM     34  N   UNL     1       4.229  -0.778  46.351  0.00  0.00    -0.267 NA
ATOM     35  C   UNL     1       5.217  -0.483  47.183  0.00  0.00    +0.089 A 
BRANCH  26  28
ATOM     28  C   UNL     1       3.260  -2.625  43.323  0.00  0.00    +0.064 A 
ATOM     29  C   UNL     1       2.101  -3.373  43.130  0.00  0.00    +0.015 A 
ATOM     30  C   UNL     1       1.981  -4.220  42.040  0.00  0.00    -0.013 A 
ATOM     31  C   UNL     1       3.025  -4.315  41.127  0.00  0.00    -0.022 A 
ATOM     32  C   UNL     1       4.191  -3.572  41.300  0.00  0.00    -0.013 A 
ATOM     33  C   UNL     1       4.302  -2.729  42.398  0.00  0.00    +0.015 A 
ENDBRANCH  26  28
ENDBRANCH   4   3
BRANCH   6   7
ATOM      7  C   UNL     1      11.559  -3.239  45.278  0.00  0.00    +0.220 C 
ATOM      8  N   UNL     1      12.093  -4.148  44.426  0.00  0.00    -0.271 N 
ATOM      9  H   UNL     1      11.486  -4.568  43.752  0.00  0.00    +0.187 HD
ATOM     20  O   UNL     1      12.220  -2.684  46.148  0.00  0.00    -0.391 OA
BRANCH   8  10
ATOM     10  CA  UNL     1      13.508  -4.558  44.427  0.00  0.00    +0.172 C 
BRANCH  10  11
ATOM     11  C   UNL     1      13.815  -5.682  45.389  0.00  0.00    -0.016 A 
ATOM     12  C   UNL     1      15.135  -5.904  45.760  0.00  0.00    -0.002 A 
ATOM     13  C   UNL     1      15.439  -6.935  46.638  0.00  0.00    -0.009 A 
ATOM     14  C   UNL     1      14.432  -7.738  47.145  0.00  0.00    -0.013 A 
ATOM     15  C   UNL     1      13.114  -7.517  46.774  0.00  0.00    -0.009 A 
ATOM     16  C   UNL     1      12.801  -6.490  45.901  0.00  0.00    -0.002 A 
ENDBRANCH  10  11
BRANCH  10  17
ATOM     17  C   UNL     1      13.861  -4.956  42.981  0.00  0.00    +0.197 C 
BRANCH  17  18
ATOM     18  O   UNL     1      13.468  -3.903  42.076  0.00  0.00    -0.391 OA
ATOM     19  H   UNL     1      13.688  -4.153  41.186  0.00  0.00    +0.210 HD
ENDBRANCH  17  18
ENDBRANCH  10  17
ENDBRANCH   8  10
ENDBRANCH   6   7
TORSDOF 7
