REMARK  Name = 3o8p_ligand
REMARK  7 active torsions:
REMARK  status: ('A' for Active; 'I' for Inactive)
REMARK    1  A    between atoms: N2_3  and  C3_4
REMARK    2  A    between atoms: N9_11  and  C10_12
REMARK    3  A    between atoms: C13_14  and  C16_21
REMARK    4  A    between atoms: N11_16  and  C15_17
REMARK    5  A    between atoms: C17_18  and  C16_21
REMARK    6  A    between atoms: C18_19  and  C16_21
REMARK    7  A    between atoms: C19_20  and  C16_21
REMARK                            x       y       z     vdW  Elec       q    Type
REMARK                         _______ _______ _______ _____ _____    ______ ____
ROOT
ATOM      1  C   UNL     1      -0.803  -2.952 -14.539  0.00  0.00    +0.323 C 
ATOM      2  N   UNL     1      -0.456  -3.563 -13.391  0.00  0.00    -0.182 N 
ATOM      3  H   UNL     1      -1.111  -4.205 -12.992  0.00  0.00    +0.234 HD
ATOM     14  N   UNL     1      -2.104  -3.049 -14.869  0.00  0.00    -0.213 N 
ATOM     15  H   UNL     1      -2.664  -3.667 -14.316  0.00  0.00    +0.227 HD
ATOM     23  O   UNL     1       0.031  -2.373 -15.231  0.00  0.00    -0.379 OA
ENDROOT
BRANCH  14  16
ATOM     16  C   UNL     1      -2.736  -2.389 -15.882  0.00  0.00    +0.068 A 
ATOM     17  C   UNL     1      -2.095  -2.043 -17.080  0.00  0.00    +0.010 A 
ATOM     18  C   UNL     1      -2.809  -1.388 -18.099  0.00  0.00    -0.003 A 
ATOM     19  C   UNL     1      -4.163  -1.068 -17.912  0.00  0.00    +0.024 A 
ATOM     20 CL   UNL     1      -5.082  -0.227 -19.207  0.00  0.00    -0.085 Cl
ATOM     21  C   UNL     1      -4.816  -1.423 -16.719  0.00  0.00    -0.003 A 
ATOM     22  C   UNL     1      -4.096  -2.084 -15.716  0.00  0.00    +0.010 A 
ENDBRANCH  14  16
BRANCH   2   4
ATOM      4  C   UNL     1       0.704  -3.375 -12.741  0.00  0.00    +0.202 A 
ATOM      5  N   UNL     1       1.308  -4.480 -12.260  0.00  0.00    -0.152 N 
ATOM      6  C   UNL     1       1.036  -5.937 -12.297  0.00  0.00    +0.258 C 
ATOM      7  N   UNL     1       2.491  -4.129 -11.589  0.00  0.00    -0.175 NA
ATOM      8  C   UNL     1       2.527  -2.786 -11.715  0.00  0.00    +0.001 A 
ATOM     13  C   UNL     1       1.439  -2.249 -12.397  0.00  0.00    -0.000 A 
BRANCH   8   9
ATOM      9  C   UNL     1       3.627  -1.928 -11.136  0.00  0.00    -0.041 C 
ATOM     10  C   UNL     1       4.730  -2.790 -10.533  0.00  0.00    -0.040 C 
ATOM     11  C   UNL     1       4.243  -1.076 -12.252  0.00  0.00    -0.040 C 
ATOM     12  C   UNL     1       3.035  -1.078 -10.005  0.00  0.00    -0.040 C 
ENDBRANCH   8   9
ENDBRANCH   2   4
TORSDOF 3
