REMARK  Name = 3vid_ligand
REMARK  0 active torsions:
REMARK  status: ('A' for Active; 'I' for Inactive)
REMARK                            x       y       z     vdW  Elec       q    Type
REMARK                         _______ _______ _______ _____ _____    ______ ____
ROOT
ATOM      1  C   UNL     1      -1.362  19.931 -28.567  0.00  0.00    -0.018 A 
ATOM      2  C   UNL     1      -1.286  18.742 -29.278  0.00  0.00    -0.033 A 
ATOM      3  C   UNL     1      -2.431  18.785 -30.072  0.00  0.00    +0.083 A 
ATOM      4  C   UNL     1      -2.866  17.817 -30.988  0.00  0.00    +0.101 A 
ATOM      5  N   UNL     1      -4.059  17.971 -31.594  0.00  0.00    -0.224 N 
ATOM      6  H   UNL     1      -4.735  18.742 -31.498  0.00  0.00    +0.248 HD
ATOM      7  N   UNL     1      -4.151  16.819 -32.389  0.00  0.00    -0.228 NA
ATOM      8  C   UNL     1      -3.071  16.020 -32.265  0.00  0.00    +0.061 A 
ATOM      9  C   UNL     1      -2.210  16.635 -31.358  0.00  0.00    -0.023 A 
ATOM     10  C   UNL     1      -0.887  16.059 -30.916  0.00  0.00    +0.042 C 
ATOM     11  C   UNL     1       0.110  17.147 -30.557  0.00  0.00    +0.017 C 
ATOM     12  N   UNL     1      -3.171  19.881 -29.872  0.00  0.00    -0.282 N 
ATOM     13  H   UNL     1      -4.060  20.117 -30.335  0.00  0.00    +0.218 HD
ATOM     14  C   UNL     1      -0.197  17.705 -29.182  0.00  0.00    +0.041 C 
ATOM     15  C   UNL     1      -2.524  20.615 -28.946  0.00  0.00    +0.060 A 
ATOM     16  C   UNL     1      -2.815  21.849 -28.352  0.00  0.00    +0.009 A 
ATOM     17  C   UNL     1      -1.953  22.390 -27.397  0.00  0.00    -0.024 A 
ATOM     18  C   UNL     1      -0.794  21.698 -27.028  0.00  0.00    -0.028 A 
ATOM     19  C   UNL     1      -0.489  20.468 -27.621  0.00  0.00    -0.020 A 
ENDROOT
TORSDOF 0
