REMARK  Name = 4IAA
REMARK  6 active torsions:
REMARK  status: ('A' for Active; 'I' for Inactive)
REMARK    1  A    between atoms: C_1  and  N_22
REMARK    2  A    between atoms: C_2  and  S_24
REMARK    3  A    between atoms: C_12  and  C_14
REMARK    4  A    between atoms: C_12  and  C_16
REMARK    5  A    between atoms: C_14  and  N_23
REMARK    6  A    between atoms: C_17  and  S_24
REMARK                            x       y       z     vdW  Elec       q    Type
REMARK                         _______ _______ _______ _____ _____    ______ ____
ROOT
ATOM      6  N   UNL     1      76.402  34.148   2.463  0.00  0.00    -0.298 N 
ATOM      7  C   UNL     1      76.258  35.302   1.709  0.00  0.00    +0.049 A 
ATOM      8  C   UNL     1      75.886  35.227   0.345  0.00  0.00    +0.034 A 
ATOM      9  S   UNL     1      76.388  33.962  -0.669  0.00  0.00    -0.086 S 
ATOM     10  C   UNL     1      76.654  32.726   0.466  0.00  0.00    +0.034 A 
ATOM     11  C   UNL     1      76.656  31.431  -0.067  0.00  0.00    +0.017 A 
ATOM     12  C   UNL     1      76.791  30.330   0.760  0.00  0.00    +0.001 A 
ATOM     13  C   UNL     1      76.920  30.515   2.125  0.00  0.00    +0.002 A 
ATOM     14  C   UNL     1      76.931  31.802   2.663  0.00  0.00    +0.024 A 
ATOM     15  C   UNL     1      75.313  36.315  -0.316  0.00  0.00    +0.018 A 
ATOM     16  C   UNL     1      75.099  37.518   0.333  0.00  0.00    +0.016 A 
ATOM     17  C   UNL     1      75.458  37.632   1.667  0.00  0.00    +0.009 A 
ATOM     20  C   UNL     1      76.038  36.545   2.346  0.00  0.00    +0.039 A 
ATOM     21  C   UNL     1      76.785  32.956   1.863  0.00  0.00    +0.048 A 
ENDROOT
BRANCH  17  18
ATOM     18  S   UNL     1      75.169  39.125   2.423  0.00  0.00    -0.129 S 
ATOM     19  C   UNL     1      74.851  38.896   4.150  0.00  0.00    +0.090 C 
ENDBRANCH  17  18
BRANCH   6   5
ATOM      5  C   UNL     1      75.793  34.096   3.842  0.00  0.00    +0.112 C 
BRANCH   5   4
ATOM      4  C   UNL     1      76.803  34.247   4.996  0.00  0.00    +0.038 C 
BRANCH   4   3
ATOM      1  C   UNL     1      75.214  31.442   5.751  0.00  0.00    +0.105 C 
ATOM      2  N   UNL     1      75.397  32.647   6.604  0.00  0.00    -0.302 NA
ATOM      3  C   UNL     1      76.674  33.398   6.301  0.00  0.00    +0.058 C 
ATOM     22  C   UNL     1      77.017  34.375   7.439  0.00  0.00    +0.019 C 
ATOM     23  C   UNL     1      77.061  33.710   8.809  0.00  0.00    +0.003 C 
ATOM     24  C   UNL     1      75.696  33.110   9.082  0.00  0.00    +0.015 C 
ATOM     25  C   UNL     1      75.356  32.100   7.991  0.00  0.00    +0.084 C 
ENDBRANCH   4   3
ENDBRANCH   5   4
ENDBRANCH   6   5
TORSDOF 4
