REMARK  Name = 3O8U
REMARK  7 active torsions:
REMARK  status: ('A' for Active; 'I' for Inactive)
REMARK    1  A    between atoms: N_3  and  C_4
REMARK    2  A    between atoms: N_11  and  C_12
REMARK    3  A    between atoms: C_14  and  C_21
REMARK    4  A    between atoms: N_16  and  C_17
REMARK    5  A    between atoms: C_18  and  C_21
REMARK    6  A    between atoms: C_19  and  C_21
REMARK    7  A    between atoms: C_20  and  C_21
REMARK                            x       y       z     vdW  Elec       q    Type
REMARK                         _______ _______ _______ _____ _____    ______ ____
ROOT
ATOM      1  C   UNL     1      18.162  -5.715 -19.101  0.00  0.00    +0.309 C 
ATOM      2  N   UNL     1      17.828  -6.560 -18.121  0.00  0.00    -0.254 N 
ATOM      3  H   UNL     1      18.522  -6.737 -17.326  0.00  0.00    +0.158 HD
ATOM     14  N   UNL     1      19.353  -5.122 -19.036  0.00  0.00    -0.269 N 
ATOM     15  H   UNL     1      19.931  -5.326 -18.159  0.00  0.00    +0.156 HD
ATOM     23  O   UNL     1      17.412  -5.511 -20.019  0.00  0.00    -0.252 OA
ENDROOT
BRANCH  14  16
ATOM     16  C   UNL     1      19.921  -4.296 -19.939  0.00  0.00    +0.035 A 
ATOM     17  C   UNL     1      21.231  -4.560 -20.335  0.00  0.00    +0.025 A 
ATOM     18  C   UNL     1      21.883  -3.733 -21.243  0.00  0.00    +0.022 A 
ATOM     19  C   UNL     1      21.212  -2.618 -21.738  0.00  0.00    +0.041 A 
ATOM     20 CL   UNL     1      22.040  -1.541 -22.906  0.00  0.00    -0.084 Cl
ATOM     21  C   UNL     1      19.905  -2.343 -21.347  0.00  0.00    +0.022 A 
ATOM     22  C   UNL     1      19.260  -3.174 -20.433  0.00  0.00    +0.025 A 
ENDBRANCH  14  16
BRANCH   2   4
ATOM      4  C   UNL     1      16.624  -7.203 -18.109  0.00  0.00    +0.124 A 
ATOM      5  N   UNL     1      16.149  -7.513 -16.894  0.00  0.00    -0.253 N 
ATOM      6  C   UNL     1      16.638  -7.288 -15.509  0.00  0.00    +0.174 C 
ATOM      7  N   UNL     1      14.912  -8.166 -17.010  0.00  0.00    -0.174 NA
ATOM      8  C   UNL     1      14.717  -8.239 -18.341  0.00  0.00    +0.070 A 
ATOM     13  C   UNL     1      15.739  -7.652 -19.081  0.00  0.00    +0.069 A 
BRANCH   8   9
ATOM      9  C   UNL     1      13.472  -8.888 -18.948  0.00  0.00    +0.006 C 
ATOM     10  C   UNL     1      12.412  -9.161 -17.875  0.00  0.00    +0.017 C 
ATOM     11  C   UNL     1      12.851  -8.015 -20.010  0.00  0.00    +0.017 C 
ATOM     12  C   UNL     1      13.869 -10.192 -19.613  0.00  0.00    +0.017 C 
ENDBRANCH   8   9
ENDBRANCH   2   4
TORSDOF 3
