REMARK  Name = 4EK6
REMARK  5 active torsions:
REMARK  status: ('A' for Active; 'I' for Inactive)
REMARK    1  A    between atoms: N_4  and  C_18
REMARK    2  A    between atoms: C_9  and  C_10
REMARK    3  A    between atoms: C_13  and  C_16
REMARK    4  A    between atoms: C_16  and  C_17
REMARK    5  A    between atoms: C_19  and  C_21
REMARK                            x       y       z     vdW  Elec       q    Type
REMARK                         _______ _______ _______ _____ _____    ______ ____
ROOT
ATOM      1  O   UNL     1       2.436  -8.021 -27.806  0.00  0.00    -0.275 OA
ATOM      2  C   UNL     1       3.255  -7.405 -28.475  0.00  0.00    +0.223 C 
ATOM     15  N   UNL     1       2.986  -6.182 -29.053  0.00  0.00    -0.271 N 
ATOM     16  H   UNL     1       3.747  -5.768 -29.682  0.00  0.00    +0.156 HD
ENDROOT
BRANCH  15  17
ATOM     17  C   UNL     1       1.837  -5.441 -28.902  0.00  0.00    +0.121 A 
ATOM     18  C   UNL     1       0.661  -5.759 -28.131  0.00  0.00    +0.068 A 
ATOM     19  C   UNL     1      -0.098  -4.589 -28.138  0.00  0.00    +0.068 A 
ATOM     23  N   UNL     1       0.623  -3.661 -28.876  0.00  0.00    -0.177 NA
ATOM     24  N   UNL     1       1.781  -4.156 -29.344  0.00  0.00    -0.264 N 
ATOM     25  H   UNL     1       2.508  -3.646 -29.940  0.00  0.00    +0.190 HD
BRANCH  19  20
ATOM     20  C   UNL     1      -1.379  -4.210 -27.541  0.00  0.00    +0.040 C 
ATOM     21  C   UNL     1      -2.469  -5.257 -27.377  0.00  0.00    +0.010 C 
ATOM     22  C   UNL     1      -1.780  -4.702 -26.161  0.00  0.00    +0.010 C 
ENDBRANCH  19  20
ENDBRANCH  15  17
BRANCH   2   3
ATOM      3  C   UNL     1       4.678  -7.913 -28.761  0.00  0.00    +0.131 C 
BRANCH   3   4
ATOM      4  C   UNL     1       4.645  -8.871 -29.882  0.00  0.00    -0.039 A 
ATOM      5  C   UNL     1       4.887  -8.451 -31.191  0.00  0.00    +0.005 A 
ATOM      6  C   UNL     1       4.920  -9.372 -32.251  0.00  0.00    +0.009 A 
ATOM      7  C   UNL     1       4.709 -10.760 -31.979  0.00  0.00    -0.011 A 
ATOM      8  C   UNL     1       4.444 -11.164 -30.645  0.00  0.00    +0.009 A 
ATOM     14  C   UNL     1       4.403 -10.236 -29.598  0.00  0.00    +0.005 A 
BRANCH   7   9
ATOM      9  C   UNL     1       4.799 -11.752 -33.037  0.00  0.00    +0.019 A 
ATOM     10  C   UNL     1       5.407 -11.620 -34.249  0.00  0.00    +0.016 A 
ATOM     11  C   UNL     1       5.292 -12.818 -35.052  0.00  0.00    +0.008 A 
ATOM     12  C   UNL     1       4.606 -13.800 -34.408  0.00  0.00    +0.046 A 
ATOM     13  S   UNL     1       4.095 -13.335 -32.854  0.00  0.00    -0.097 S 
ENDBRANCH   7   9
ENDBRANCH   3   4
ENDBRANCH   2   3
TORSDOF 5
