REMARK  Name = 9WS
REMARK  2 active torsions:
REMARK  status: ('A' for Active; 'I' for Inactive)
REMARK    1  A    between atoms: C1_1  and  C3_3
REMARK    2  A    between atoms: N7_14  and  C8_15
REMARK                            x       y       z     vdW  Elec       q    Type
REMARK                         _______ _______ _______ _____ _____    ______ ____
ROOT
ATOM      1  C   UNL     1     -19.913   4.154 -19.601  0.00  0.00    +0.146 A 
ATOM      2  C   UNL     1     -20.455   3.552 -18.371  0.00  0.00    +0.181 A 
ATOM      3  N   UNL     1     -21.624   4.020 -18.231  0.00  0.00    +0.013 NA
ATOM      4  N   UNL     1     -21.925   4.871 -19.233  0.00  0.00    -0.034 N 
ATOM      5  C   UNL     1     -23.039   5.529 -19.400  0.00  0.00    +0.323 A 
ATOM      6  C   UNL     1     -23.197   6.344 -20.451  0.00  0.00    +0.079 A 
ATOM      7  C   UNL     1     -22.101   6.497 -21.424  0.00  0.00    +0.013 A 
ATOM      8  C   UNL     1     -20.969   5.813 -21.233  0.00  0.00    +0.073 A 
ATOM      9  C   UNL     1     -20.902   4.944 -20.042  0.00  0.00    +0.264 A 
ENDROOT
BRANCH   1  10
ATOM     10  C   UNL     1     -18.577   3.925 -20.197  0.00  0.00    +0.277 C 
ATOM     11  N   UNL     1     -17.800   2.893 -19.788  0.00  0.00    -0.175 NA
ATOM     18  O   UNL     1     -18.204   4.696 -21.065  0.00  0.00    -0.268 OA
BRANCH  11  12
ATOM     12  C   UNL     1     -16.515   2.657 -20.348  0.00  0.00    +0.074 A 
ATOM     13  C   UNL     1     -15.581   3.694 -20.451  0.00  0.00    +0.017 A 
ATOM     14  C   UNL     1     -14.319   3.456 -21.003  0.00  0.00    +0.001 A 
ATOM     15  C   UNL     1     -13.983   2.178 -21.456  0.00  0.00    +0.000 A 
ATOM     16  C   UNL     1     -14.912   1.139 -21.355  0.00  0.00    +0.001 A 
ATOM     17  C   UNL     1     -16.174   1.377 -20.803  0.00  0.00    +0.017 A 
ENDBRANCH  11  12
ENDBRANCH   1  10
TORSDOF 2
