REMARK  Name = 2x81_ligand
REMARK  3 active torsions:
REMARK  status: ('A' for Active; 'I' for Inactive)
REMARK    1  A    between atoms: C15_2  and  C16_23
REMARK    2  A    between atoms: C02_11  and  C04_13
REMARK    3  A    between atoms: C07_16  and  N08_17
REMARK                            x       y       z     vdW  Elec       q    Type
REMARK                         _______ _______ _______ _____ _____    ______ ____
ROOT
ATOM      1  C   UNL     1       4.692 -28.678  -9.068  0.00  0.00    +0.151 C 
ATOM      2  N   UNL     1       6.079 -28.464  -8.603  0.00  0.00    -0.332 NA
ATOM      3  C   UNL     1       6.513 -28.269  -7.351  0.00  0.00    +0.055 C 
ATOM     12  C   UNL     1       5.665 -28.258  -6.231  0.00  0.00    +0.025 A 
ATOM     13  C   UNL     1       4.544 -29.067  -6.026  0.00  0.00    +0.018 A 
ATOM     14  C   UNL     1       4.054 -30.006  -6.928  0.00  0.00    +0.063 A 
ATOM     15  N   UNL     1       3.499 -31.101  -6.388  0.00  0.00    -0.252 NA
ATOM     16  C   UNL     1       2.988 -32.055  -7.191  0.00  0.00    +0.205 A 
ATOM     17  N   UNL     1       3.036 -31.922  -8.534  0.00  0.00    -0.258 NA
ATOM     18  C   UNL     1       3.572 -30.857  -9.112  0.00  0.00    +0.102 A 
ATOM     19  N   UNL     1       2.429 -33.169  -6.701  0.00  0.00    -0.243 N 
ATOM     20  H   UNL     1       2.275 -33.925  -7.368  0.00  0.00    +0.217 HD
ATOM     30  C   UNL     1       3.775 -28.956  -4.867  0.00  0.00    +0.024 A 
ATOM     31  C   UNL     1       4.149 -28.039  -3.892  0.00  0.00    +0.029 A 
ATOM     32  C   UNL     1       5.270 -27.239  -4.092  0.00  0.00    +0.050 A 
ATOM     33 CL   UNL     1       5.716 -26.099  -2.880  0.00  0.00    -0.067 Cl
ATOM     34  C   UNL     1       6.035 -27.338  -5.253  0.00  0.00    +0.043 A 
ATOM     35  C   UNL     1       4.093 -29.859  -8.302  0.00  0.00    +0.015 A 
ENDROOT
BRANCH   3   4
ATOM      4  C   UNL     1       7.897 -28.122  -7.172  0.00  0.00    +0.084 A 
ATOM      5  C   UNL     1       8.601 -27.070  -7.780  0.00  0.00    +0.152 A 
ATOM      6  F   UNL     1       7.970 -26.163  -8.555  0.00  0.00    -0.176 F 
ATOM      7  C   UNL     1       9.976 -26.940  -7.590  0.00  0.00    +0.035 A 
ATOM      8  C   UNL     1      10.665 -27.853  -6.794  0.00  0.00    +0.006 A 
ATOM      9  C   UNL     1       9.974 -28.899  -6.189  0.00  0.00    +0.035 A 
ATOM     10  C   UNL     1       8.599 -29.037  -6.378  0.00  0.00    +0.152 A 
ATOM     11  F   UNL     1       7.954 -30.057  -5.780  0.00  0.00    -0.176 F 
ENDBRANCH   3   4
BRANCH  19  21
ATOM     21  C   UNL     1       2.047 -33.410  -5.437  0.00  0.00    +0.067 A 
ATOM     22  C   UNL     1       1.016 -34.326  -5.235  0.00  0.00    +0.020 A 
ATOM     23  C   UNL     1       0.585 -34.639  -3.950  0.00  0.00    +0.005 A 
ATOM     24  C   UNL     1       1.187 -34.038  -2.849  0.00  0.00    -0.002 A 
ATOM     25  C   UNL     1       2.220 -33.120  -3.039  0.00  0.00    +0.005 A 
ATOM     29  C   UNL     1       2.653 -32.812  -4.328  0.00  0.00    +0.020 A 
BRANCH  24  26
ATOM     26  C   UNL     1       0.691 -34.382  -1.441  0.00  0.00    +0.055 C 
ATOM     27  O   UNL     1       1.503 -34.341  -0.495  0.00  0.00    -0.564 OA
ATOM     28  O   UNL     1      -0.515 -34.677  -1.312  0.00  0.00    -0.564 OA
ENDBRANCH  24  26
ENDBRANCH  19  21
TORSDOF 3
