REMARK  Name = 4QMO
REMARK  3 active torsions:
REMARK  status: ('A' for Active; 'I' for Inactive)
REMARK    1  A    between atoms: C_8  and  O_16
REMARK    2  A    between atoms: C_9  and  C_10
REMARK    3  A    between atoms: C_10  and  C_11
REMARK                            x       y       z     vdW  Elec       q    Type
REMARK                         _______ _______ _______ _____ _____    ______ ____
ROOT
ATOM      1  C   UNL     1     125.560  -1.184  76.508  0.00  0.00    +0.049 A 
ATOM      2  S   UNL     1     125.517   0.492  76.925  0.00  0.00    -0.075 S 
ATOM      3  C   UNL     1     124.566   0.357  78.318  0.00  0.00    +0.157 A 
ATOM      4  N   UNL     1     124.255  -0.954  78.479  0.00  0.00    -0.247 NA
ATOM      5  C   UNL     1     126.154  -1.929  75.451  0.00  0.00    +0.025 A 
ATOM      6  C   UNL     1     126.945  -1.558  74.347  0.00  0.00    +0.030 A 
ATOM     14  C   UNL     1     127.218  -2.781  73.679  0.00  0.00    +0.217 A 
ATOM     17  N   UNL     1     126.628  -3.789  74.317  0.00  0.00    -0.213 NA
ATOM     18  C   UNL     1     125.968  -3.317  75.410  0.00  0.00    +0.076 A 
ATOM     19  C   UNL     1     125.193  -3.980  76.417  0.00  0.00    +0.030 A 
ATOM     20  C   UNL     1     124.619  -3.243  77.449  0.00  0.00    +0.031 A 
ATOM     21  C   UNL     1     124.805  -1.819  77.487  0.00  0.00    +0.079 A 
ENDROOT
BRANCH  14  15
ATOM     15  O   UNL     1     127.972  -2.916  72.548  0.00  0.00    -0.492 OA
ATOM     16  H   UNL     1     128.789  -3.546  72.745  0.00  0.00    +0.294 HD
ENDBRANCH  14  15
BRANCH   6   7
ATOM      7  C   UNL     1     127.386  -0.151  73.999  0.00  0.00    +0.098 C 
BRANCH   7   8
ATOM      8  C   UNL     1     128.077   0.255  72.721  0.00  0.00    +0.063 A 
ATOM      9  C   UNL     1     128.339   1.579  72.363  0.00  0.00    +0.107 A 
ATOM     10  N   UNL     1     128.981   1.555  71.176  0.00  0.00    -0.351 N 
ATOM     11  H   UNL     1     129.320   2.410  70.629  0.00  0.00    +0.166 HD
ATOM     12  C   UNL     1     129.120   0.281  70.803  0.00  0.00    +0.196 A 
ATOM     13  N   UNL     1     128.576  -0.514  71.738  0.00  0.00    -0.241 NA
ENDBRANCH   7   8
ENDBRANCH   6   7
TORSDOF 3
