REMARK  Name = 2wgj_ligand
REMARK  6 active torsions:
REMARK  status: ('A' for Active; 'I' for Inactive)
REMARK    1  A    between atoms: C17_7  and  C21_10
REMARK    2  A    between atoms: C21_10  and  C1_11
REMARK    3  A    between atoms: C21_10  and  O27_12
REMARK    4  A    between atoms: O27_12  and  C15_13
REMARK    5  A    between atoms: C14_19  and  C16_20
REMARK    6  A    between atoms: N26_23  and  C20_25
REMARK                            x       y       z     vdW  Elec       q    Type
REMARK                         _______ _______ _______ _____ _____    ______ ____
ROOT
ATOM      6  C   UNL     1      21.527  85.138   6.508  0.00  0.00    +0.136 A 
ATOM      7  C   UNL     1      22.666  85.220   7.324  0.00  0.00    +0.137 A 
ATOM      8  N   UNL     1      23.923  84.975   6.878  0.00  0.00    -0.301 NA
ATOM      9  C   UNL     1      24.084  84.625   5.584  0.00  0.00    +0.048 A 
ATOM     10  C   UNL     1      23.044  84.501   4.671  0.00  0.00    -0.031 A 
ATOM     24  N   UNL     1      22.541  85.576   8.672  0.00  0.00    -0.327 N 
ATOM     25  H   UNL     1      21.612  85.778   9.067  0.00  0.00    +0.173 HD
ATOM     26  H   UNL     1      23.378  85.635   9.269  0.00  0.00    +0.173 HD
ATOM     27  C   UNL     1      21.744  84.762   5.164  0.00  0.00    +0.032 A 
ENDROOT
BRANCH  10  11
ATOM     11  C   UNL     1      23.335  84.087   3.302  0.00  0.00    -0.003 A 
ATOM     12  C   UNL     1      24.606  84.007   2.765  0.00  0.00    +0.164 A 
ATOM     13  N   UNL     1      24.497  83.561   1.484  0.00  0.00    -0.201 N 
ATOM     22  N   UNL     1      23.213  83.319   1.137  0.00  0.00    -0.214 NA
ATOM     23  C   UNL     1      22.520  83.628   2.237  0.00  0.00    +0.072 A 
BRANCH  13  14
ATOM     14  C   UNL     1      25.595  83.351   0.536  0.00  0.00    +0.161 C 
ATOM     15  C   UNL     1      25.500  84.191  -0.751  0.00  0.00    +0.090 C 
ATOM     16  C   UNL     1      24.840  83.475  -1.928  0.00  0.00    +0.132 C 
ATOM     17  N   UNL     1      25.502  82.151  -2.159  0.00  0.00    +0.227 N 
ATOM     18  H   UNL     1      26.456  82.327  -2.435  0.00  0.00    +0.201 HD
ATOM     19  H   UNL     1      25.014  81.689  -2.911  0.00  0.00    +0.201 HD
ATOM     20  C   UNL     1      25.528  81.215  -0.984  0.00  0.00    +0.132 C 
ATOM     21  C   UNL     1      26.030  81.893   0.292  0.00  0.00    +0.090 C 
ENDBRANCH  13  14
ENDBRANCH  10  11
BRANCH   6   5
ATOM      5  O   UNL     1      20.342  85.442   7.151  0.00  0.00    -0.301 OA
BRANCH   5   4
ATOM      4  C   UNL     1      19.033  85.449   6.539  0.00  0.00    +0.193 C 
ATOM     28  C   UNL     1      18.117  86.249   7.461  0.00  0.00    +0.060 C 
BRANCH   4   3
ATOM      1 CL   UNL     1      18.319  84.569   3.546  0.00  0.00    -0.081 Cl
ATOM      2  C   UNL     1      18.188  83.586   4.968  0.00  0.00    +0.040 A 
ATOM      3  C   UNL     1      18.506  84.032   6.279  0.00  0.00    +0.016 A 
ATOM     29  C   UNL     1      18.316  83.079   7.308  0.00  0.00    +0.077 A 
ATOM     30 CL   UNL     1      18.618  83.397   8.986  0.00  0.00    -0.079 Cl
ATOM     31  C   UNL     1      17.835  81.794   7.021  0.00  0.00    +0.140 A 
ATOM     32  F   UNL     1      17.661  80.919   8.002  0.00  0.00    -0.184 F 
ATOM     33  C   UNL     1      17.535  81.381   5.741  0.00  0.00    +0.021 A 
ATOM     34  C   UNL     1      17.719  82.288   4.714  0.00  0.00    +0.004 A 
ENDBRANCH   4   3
ENDBRANCH   5   4
ENDBRANCH   6   5
TORSDOF 5
