REMARK  Name = 4AOT
REMARK  11 active torsions:
REMARK  status: ('A' for Active; 'I' for Inactive)
REMARK    1  A    between atoms: C_4  and  N_43
REMARK    2  A    between atoms: C_7  and  N_42
REMARK    3  A    between atoms: C_8  and  N_43
REMARK    4  A    between atoms: C_9  and  S_45
REMARK    5  A    between atoms: C_30  and  C_36
REMARK    6  A    between atoms: C_30  and  S_45
REMARK    7  A    between atoms: N_31  and  C_37
REMARK    8  A    between atoms: N_32  and  C_39
REMARK    9  A    between atoms: N_33  and  C_38
REMARK   10  A    between atoms: C_35  and  C_40
REMARK   11  A    between atoms: C_41  and  N_43
REMARK                            x       y       z     vdW  Elec       q    Type
REMARK                         _______ _______ _______ _____ _____    ______ ____
ROOT
ATOM      7  C   UNL     1      -1.108 -13.966  -9.360  0.00  0.00    +0.035 A 
ATOM      8  C   UNL     1      -0.321 -15.061  -9.612  0.00  0.00    +0.025 A 
ATOM      9  C   UNL     1       1.017 -15.079  -9.244  0.00  0.00    +0.025 A 
ATOM     10  C   UNL     1       1.592 -13.941  -8.664  0.00  0.00    +0.035 A 
ATOM     32  C   UNL     1       0.777 -12.839  -8.449  0.00  0.00    +0.025 A 
ATOM     33  C   UNL     1      -0.550 -12.840  -8.787  0.00  0.00    +0.025 A 
ENDROOT
BRANCH  10  11
ATOM     11  N   UNL     1       2.876 -13.787  -8.285  0.00  0.00    -0.269 N 
ATOM     12  H   UNL     1       3.075 -13.329  -7.339  0.00  0.00    +0.156 HD
ATOM     13  C   UNL     1       3.948 -14.191  -9.056  0.00  0.00    +0.308 C 
ATOM     14  N   UNL     1       5.164 -13.838  -8.541  0.00  0.00    -0.269 N 
ATOM     15  H   UNL     1       5.218 -13.377  -7.577  0.00  0.00    +0.156 HD
ATOM     31  O   UNL     1       3.825 -14.872 -10.091  0.00  0.00    -0.252 OA
BRANCH  14  16
ATOM     16  C   UNL     1       6.322 -14.071  -9.253  0.00  0.00    +0.035 A 
ATOM     17  C   UNL     1       6.413 -13.778 -10.644  0.00  0.00    +0.036 A 
ATOM     18  C   UNL     1       7.584 -13.967 -11.373  0.00  0.00    +0.039 A 
ATOM     28  C   UNL     1       8.700 -14.464 -10.691  0.00  0.00    +0.013 A 
ATOM     29  C   UNL     1       8.659 -14.717  -9.330  0.00  0.00    +0.003 A 
ATOM     30  C   UNL     1       7.479 -14.494  -8.597  0.00  0.00    +0.023 A 
BRANCH  18  19
ATOM     19  C   UNL     1       7.727 -13.710 -12.758  0.00  0.00    +0.247 C 
ATOM     20  N   UNL     1       8.626 -12.776 -13.164  0.00  0.00    -0.295 N 
ATOM     21  C   UNL     1       9.389 -11.972 -12.205  0.00  0.00    +0.123 C 
ATOM     22  C   UNL     1       9.706 -10.534 -12.631  0.00  0.00    +0.103 C 
ATOM     23  N   UNL     1       9.884 -10.407 -14.080  0.00  0.00    -0.302 NA
ATOM     24  C   UNL     1       8.818 -11.045 -14.906  0.00  0.00    +0.103 C 
ATOM     25  C   UNL     1       9.881  -8.918 -14.316  0.00  0.00    +0.105 C 
ATOM     26  C   UNL     1       8.884 -12.519 -14.643  0.00  0.00    +0.123 C 
ATOM     27  O   UNL     1       7.060 -14.368 -13.581  0.00  0.00    -0.270 OA
ENDBRANCH  18  19
ENDBRANCH  14  16
ENDBRANCH  10  11
BRANCH   7   6
ATOM      6  N   UNL     1      -2.406 -13.953  -9.742  0.00  0.00    -0.288 N 
ATOM     34  C   UNL     1      -2.732 -13.647 -11.171  0.00  0.00    +0.137 C 
BRANCH   6   5
ATOM      1  N   UNL     1      -5.565 -14.266  -7.296  0.00  0.00    -0.331 N 
ATOM      2  H   UNL     1      -6.427 -14.373  -6.671  0.00  0.00    +0.168 HD
ATOM      3  C   UNL     1      -4.324 -14.367  -6.742  0.00  0.00    +0.089 A 
ATOM      4  C   UNL     1      -3.232 -14.256  -7.550  0.00  0.00    +0.061 A 
ATOM      5  C   UNL     1      -3.431 -14.041  -8.889  0.00  0.00    +0.130 A 
ATOM     35  N   UNL     1      -4.672 -13.971  -9.379  0.00  0.00    -0.197 NA
ATOM     36  C   UNL     1      -5.729 -14.036  -8.602  0.00  0.00    +0.230 A 
ATOM     37  N   UNL     1      -6.997 -13.893  -8.990  0.00  0.00    -0.213 NA
BRANCH  37  38
ATOM     38  C   UNL     1      -7.448 -13.715 -10.233  0.00  0.00    +0.068 A 
ATOM     39  C   UNL     1      -8.775 -14.068 -10.452  0.00  0.00    +0.028 A 
ATOM     40  C   UNL     1      -9.416 -13.892 -11.663  0.00  0.00    +0.007 A 
ATOM     41  C   UNL     1      -8.723 -13.313 -12.696  0.00  0.00    -0.026 A 
ATOM     47  C   UNL     1      -7.400 -12.931 -12.486  0.00  0.00    +0.007 A 
ATOM     48  C   UNL     1      -6.766 -13.119 -11.282  0.00  0.00    +0.028 A 
BRANCH  41  42
ATOM     42  C   UNL     1      -9.321 -13.168 -13.959  0.00  0.00    +0.200 C 
BRANCH  42  43
ATOM     43  S   UNL     1      -9.985 -11.513 -14.211  0.00  0.00    -0.030 S 
ATOM     44  O   UNL     1     -10.236 -11.494 -15.713  0.00  0.00    -0.174 OA
ATOM     45  O   UNL     1      -9.055 -10.315 -13.887  0.00  0.00    -0.174 OA
ATOM     46  C   UNL     1     -11.505 -11.343 -13.337  0.00  0.00    +0.194 C 
ENDBRANCH  42  43
ENDBRANCH  41  42
ENDBRANCH  37  38
ENDBRANCH   6   5
ENDBRANCH   7   6
TORSDOF 8
