REMARK  Name = 3t9t_ligand
REMARK  9 active torsions:
REMARK  status: ('A' for Active; 'I' for Inactive)
REMARK    1  A    between atoms: C7_4  and  C3_31
REMARK    2  A    between atoms: C24_8  and  N23_17
REMARK    3  A    between atoms: C26_9  and  C25_12
REMARK    4  A    between atoms: C28_10  and  C29_13
REMARK    5  A    between atoms: C29_13  and  N30_14
REMARK    6  A    between atoms: N30_14  and  C32_15
REMARK    7  A    between atoms: N30_14  and  C31_16
REMARK    8  A    between atoms: N23_17  and  C14_18
REMARK    9  A    between atoms: N8_29  and  C2_30
REMARK                            x       y       z     vdW  Elec       q    Type
REMARK                         _______ _______ _______ _____ _____    ______ ____
ROOT
ATOM      6  N   UNL     1      -3.793   3.997   8.480  0.00  0.00    -0.254 N 
ATOM      7  H   UNL     1      -3.571   3.430   7.662  0.00  0.00    +0.216 HD
ATOM      8  C   UNL     1      -4.945   3.720   9.126  0.00  0.00    +0.159 A 
ATOM      9  C   UNL     1      -5.742   2.604   8.577  0.00  0.00    +0.148 A 
ATOM     10  C   UNL     1      -5.554   1.725   7.465  0.00  0.00    +0.055 A 
ATOM     11  N   UNL     1      -6.637   0.918   7.442  0.00  0.00    -0.318 NA
ATOM     12  C   UNL     1      -7.453   1.260   8.470  0.00  0.00    +0.240 A 
ATOM     13  N   UNL     1      -6.898   2.277   9.155  0.00  0.00    -0.199 N 
ATOM     14  C   UNL     1      -7.378   2.984  10.285  0.00  0.00    +0.099 A 
ATOM     15  C   UNL     1      -6.597   4.029  10.790  0.00  0.00    +0.032 A 
ATOM     16  C   UNL     1      -7.030   4.749  11.901  0.00  0.00    +0.020 A 
ATOM     17  C   UNL     1      -8.237   4.437  12.533  0.00  0.00    +0.144 A 
ATOM     18  F   UNL     1      -8.612   5.155  13.608  0.00  0.00    -0.197 F 
ATOM     19  C   UNL     1      -9.007   3.383  12.054  0.00  0.00    +0.096 A 
ATOM     30  C   UNL     1      -8.580   2.660  10.927  0.00  0.00    +0.035 A 
ATOM     31  N   UNL     1      -5.409   4.376  10.209  0.00  0.00    -0.307 NA
ENDROOT
BRANCH   6   3
ATOM      1  C   UNL     1      -1.921   7.139   8.449  0.00  0.00    -0.017 A 
ATOM      2  C   UNL     1      -2.846   6.150   8.092  0.00  0.00    -0.021 A 
ATOM      3  C   UNL     1      -2.903   4.964   8.823  0.00  0.00    +0.067 A 
ATOM      4  C   UNL     1      -2.033   4.733   9.893  0.00  0.00    +0.007 A 
ATOM      5  C   UNL     1      -1.105   5.720  10.230  0.00  0.00    -0.025 A 
ATOM     32  C   UNL     1      -3.787   6.400   6.933  0.00  0.00    +0.077 C 
ATOM     33  C   UNL     1      -1.054   6.914   9.517  0.00  0.00    -0.030 A 
ENDBRANCH   6   3
BRANCH  19  20
ATOM     20  N   UNL     1     -10.227   3.039  12.666  0.00  0.00    -0.230 N 
ATOM     21  C   UNL     1     -10.251   2.552  13.916  0.00  0.00    +0.204 C 
ATOM     22  O   UNL     1     -11.289   2.377  14.555  0.00  0.00    -0.390 OA
ATOM     29  C   UNL     1     -11.435   3.185  11.858  0.00  0.00    +0.206 C 
BRANCH  21  23
ATOM     23  C   UNL     1      -9.012   2.124  14.589  0.00  0.00    +0.049 C 
ATOM     24  C   UNL     1      -8.585   2.697  15.721  0.00  0.00    +0.003 C 
BRANCH  24  25
ATOM     25  C   UNL     1      -9.198   3.892  16.397  0.00  0.00    -0.023 C 
BRANCH  25  26
ATOM     26  N   UNL     1      -8.974   3.913  17.835  0.00  0.00    +0.406 NA
ATOM     27  C   UNL     1      -8.632   5.262  18.269  0.00  0.00    -0.127 C 
ATOM     28  C   UNL     1     -10.156   3.445  18.546  0.00  0.00    -0.127 C 
ENDBRANCH  25  26
ENDBRANCH  24  25
ENDBRANCH  21  23
ENDBRANCH  19  20
TORSDOF 5
