REMARK  Name = 5TQ4
REMARK  5 active torsions:
REMARK  status: ('A' for Active; 'I' for Inactive)
REMARK    1  A    between atoms: C_4  and  C_6
REMARK    2  A    between atoms: C_7  and  C_18
REMARK    3  A    between atoms: C_8  and  C_9
REMARK    4  A    between atoms: C_9  and  C_10
REMARK    5  A    between atoms: C_11  and  O_21
REMARK                            x       y       z     vdW  Elec       q    Type
REMARK                         _______ _______ _______ _____ _____    ______ ____
ROOT
ATOM      8  C   UNL     1      15.983 -13.391  27.237  0.00  0.00    -0.016 A 
ATOM      9  C   UNL     1      15.071 -14.433  27.041  0.00  0.00    +0.036 A 
ATOM     10  C   UNL     1      15.204 -15.263  25.932  0.00  0.00    +0.067 A 
ATOM     11  N   UNL     1      14.460 -16.306  25.485  0.00  0.00    -0.276 N 
ATOM     12  H   UNL     1      13.594 -16.683  25.988  0.00  0.00    +0.189 HD
ATOM     13  N   UNL     1      14.949 -16.816  24.317  0.00  0.00    -0.168 NA
ATOM     14  C   UNL     1      16.040 -16.113  23.971  0.00  0.00    +0.154 A 
ATOM     20  C   UNL     1      16.244 -15.090  25.001  0.00  0.00    +0.032 A 
ATOM     21  C   UNL     1      17.161 -14.064  25.218  0.00  0.00    +0.013 A 
ATOM     22  C   UNL     1      17.028 -13.233  26.320  0.00  0.00    +0.009 A 
ENDROOT
BRANCH   8   7
ATOM      1  C   UNL     1      16.494 -11.306  30.383  0.00  0.00    +0.049 A 
ATOM      2  C   UNL     1      15.391 -10.469  30.314  0.00  0.00    +0.117 A 
ATOM      5  C   UNL     1      14.474 -10.617  29.285  0.00  0.00    +0.046 A 
ATOM      6  C   UNL     1      14.675 -11.588  28.318  0.00  0.00    +0.012 A 
ATOM      7  C   UNL     1      15.794 -12.424  28.357  0.00  0.00    -0.014 A 
ATOM     23  C   UNL     1      16.708 -12.287  29.415  0.00  0.00    -0.036 A 
BRANCH   2   3
ATOM      3  O   UNL     1      15.229  -9.479  31.243  0.00  0.00    -0.507 OA
ATOM      4  H   UNL     1      15.167  -9.904  32.201  0.00  0.00    +0.292 HD
ENDBRANCH   2   3
BRANCH  23  24
ATOM     24  C   UNL     1      17.922 -13.179  29.544  0.00  0.00    +0.032 C 
ATOM     25  C   UNL     1      17.672 -14.455  30.317  0.00  0.00    +0.009 C 
ENDBRANCH  23  24
ENDBRANCH   8   7
BRANCH  14  15
ATOM     15  C   UNL     1      16.899 -16.357  22.753  0.00  0.00    +0.262 C 
ATOM     16  N   UNL     1      16.527 -17.329  21.929  0.00  0.00    -0.324 N 
ATOM     17  H   UNL     1      17.105 -17.538  21.053  0.00  0.00    +0.145 HD
ATOM     18  H   UNL     1      15.649 -17.903  22.141  0.00  0.00    +0.145 HD
ATOM     19  O   UNL     1      17.919 -15.683  22.560  0.00  0.00    -0.269 OA
ENDBRANCH  14  15
TORSDOF 4
