REMARK  Name = 5oth
REMARK  8 active torsions:
REMARK  status: ('A' for Active; 'I' for Inactive)
REMARK    1  A    between atoms: C8_3  and  C7_4
REMARK    2  A    between atoms: C2_9  and  C1_10
REMARK    3  A    between atoms: C11_13  and  C12_16
REMARK    4  A    between atoms: C12_16  and  N_17
REMARK    5  A    between atoms: N_17  and  C13_18
REMARK    6  A    between atoms: C13_18  and  C14_19
REMARK    7  A    between atoms: C14_19  and  C15_20
REMARK    8  A    between atoms: C17_28  and  O_29
REMARK                            x       y       z     vdW  Elec       q    Type
REMARK                         _______ _______ _______ _____ _____    ______ ____
ROOT
ATOM      1 CL   UNL     1       6.536 139.909 353.194  0.00  0.00    -0.084 Cl
ATOM      2  C   UNL     1       5.422 138.797 352.474  0.00  0.00    +0.049 A 
ATOM      3  C   UNL     1       5.318 137.534 353.019  0.00  0.00    +0.026 A 
ATOM      4  C   UNL     1       4.435 136.606 352.481  0.00  0.00    -0.033 A 
ATOM     20  C   UNL     1       3.679 136.977 351.375  0.00  0.00    +0.006 A 
ATOM     21  C   UNL     1       3.782 138.248 350.829  0.00  0.00    +0.010 A 
ATOM     22  C   UNL     1       4.653 139.192 351.380  0.00  0.00    +0.001 A 
ENDROOT
BRANCH  22  23
ATOM     23  C   UNL     1       4.657 140.591 350.854  0.00  0.00    -0.014 A 
ATOM     24  C   UNL     1       5.542 141.037 349.856  0.00  0.00    -0.040 A 
ATOM     27  C   UNL     1       5.604 142.400 349.564  0.00  0.00    +0.004 A 
ATOM     28  C   UNL     1       4.800 143.307 350.233  0.00  0.00    +0.000 A 
ATOM     29  C   UNL     1       3.915 142.867 351.193  0.00  0.00    +0.001 A 
ATOM     30  C   UNL     1       3.838 141.519 351.503  0.00  0.00    +0.009 A 
BRANCH  24  25
ATOM     25  C   UNL     1       6.468 140.091 349.126  0.00  0.00    +0.033 C 
ATOM     26  C   UNL     1       5.917 139.365 347.936  0.00  0.00    +0.009 C 
ENDBRANCH  24  25
ENDBRANCH  22  23
BRANCH   4   5
ATOM      5  C   UNL     1       4.308 135.237 353.102  0.00  0.00    +0.116 C 
BRANCH   5   6
ATOM      6  N   UNL     1       5.607 134.707 353.517  0.00  0.00    -0.190 NA
BRANCH   6   7
ATOM      7  C   UNL     1       5.529 133.373 354.104  0.00  0.00    +0.089 C 
BRANCH   7   8
ATOM      8  C   UNL     1       6.897 133.184 354.709  0.00  0.00    +0.090 C 
BRANCH   8   9
ATOM      9  C   UNL     1       7.050 131.883 355.414  0.00  0.00    +0.108 A 
ATOM     10  N   UNL     1       8.247 131.450 355.870  0.00  0.00    -0.172 NA
ATOM     11  C   UNL     1       8.043 130.213 356.442  0.00  0.00    +0.096 A 
ATOM     12  C   UNL     1       8.868 129.271 357.070  0.00  0.00    +0.100 A 
ATOM     15  C   UNL     1       8.317 128.084 357.547  0.00  0.00    +0.036 A 
ATOM     16  C   UNL     1       6.959 127.839 357.395  0.00  0.00    +0.005 A 
ATOM     17  C   UNL     1       6.135 128.765 356.773  0.00  0.00    +0.031 A 
ATOM     18  C   UNL     1       6.683 129.958 356.297  0.00  0.00    +0.091 A 
ATOM     19  N   UNL     1       6.072 131.029 355.650  0.00  0.00    -0.233 NA
BRANCH  12  13
ATOM     13  O   UNL     1      10.190 129.620 357.158  0.00  0.00    -0.347 OA
ATOM     14  C   UNL     1      11.105 128.659 357.685  0.00  0.00    +0.203 C 
ENDBRANCH  12  13
ENDBRANCH   8   9
ENDBRANCH   7   8
ENDBRANCH   6   7
ENDBRANCH   5   6
ENDBRANCH   4   5
TORSDOF 8
