REMARK  Name = 2etr_ligand
REMARK  5 active torsions:
REMARK  status: ('A' for Active; 'I' for Inactive)
REMARK    1  A    between atoms: C22_2  and  C31_3
REMARK    2  A    between atoms: C34_6  and  C41_9
REMARK    3  A    between atoms: C41_9  and  C42_10
REMARK    4  A    between atoms: C41_9  and  N43_11
REMARK    5  A    between atoms: N21_12  and  C14_13
REMARK                            x       y       z     vdW  Elec       q    Type
REMARK                         _______ _______ _______ _____ _____    ______ ____
ROOT
ATOM     11  C   UNL     1      51.876 101.922  30.311  0.00  0.00    +0.110 C 
ATOM     12  C   UNL     1      50.995 102.439  31.452  0.00  0.00    +0.026 C 
ATOM     13  C   UNL     1      51.837 102.834  32.667  0.00  0.00    +0.011 C 
ATOM     14  C   UNL     1      52.910 103.874  32.317  0.00  0.00    +0.037 C 
ATOM     21  C   UNL     1      53.739 103.422  31.104  0.00  0.00    +0.011 C 
ATOM     22  C   UNL     1      52.867 103.017  29.912  0.00  0.00    +0.026 C 
ENDROOT
BRANCH  11   2
ATOM      1  O   UNL     1      50.221 102.223  28.623  0.00  0.00    -0.383 OA
ATOM      2  C   UNL     1      51.051 101.479  29.129  0.00  0.00    +0.210 C 
ATOM      3  N   UNL     1      51.312 100.231  28.721  0.00  0.00    -0.225 N 
ATOM      4  H   UNL     1      51.861  99.671  29.341  0.00  0.00    +0.231 HD
BRANCH   3   5
ATOM      5  C   UNL     1      50.919  99.634  27.564  0.00  0.00    +0.087 A 
ATOM      6  C   UNL     1      51.021  98.246  27.478  0.00  0.00    +0.046 A 
ATOM      7  C   UNL     1      50.636  97.593  26.308  0.00  0.00    +0.071 A 
ATOM      8  N   UNL     1      50.166  98.291  25.262  0.00  0.00    -0.320 NA
ATOM      9  C   UNL     1      50.057  99.630  25.310  0.00  0.00    +0.071 A 
ATOM     10  C   UNL     1      50.432 100.334  26.456  0.00  0.00    +0.046 A 
ENDBRANCH   3   5
ENDBRANCH  11   2
BRANCH  14  15
ATOM     15  C   UNL     1      53.769 104.233  33.540  0.00  0.00    +0.061 C 
ATOM     20  C   UNL     1      54.674 103.098  34.025  0.00  0.00    +0.064 C 
BRANCH  15  16
ATOM     16  N   UNL     1      54.587 105.396  33.251  0.00  0.00    +0.221 N 
ATOM     17  H   UNL     1      55.073 105.681  34.087  0.00  0.00    +0.200 HD
ATOM     18  H   UNL     1      55.258 105.165  32.535  0.00  0.00    +0.200 HD
ATOM     19  H   UNL     1      53.999 106.149  32.931  0.00  0.00    +0.200 HD
ENDBRANCH  15  16
ENDBRANCH  14  15
TORSDOF 4
