REMARK  Name = 6Q4H
REMARK  4 active torsions:
REMARK  status: ('A' for Active; 'I' for Inactive)
REMARK    1  A    between atoms: C7_5  and  C8_6
REMARK    2  A    between atoms: C8_6  and  C9_7
REMARK    3  A    between atoms: C3_13  and  O1_17
REMARK    4  A    between atoms: C2_16  and  O1_17
REMARK                            x       y       z     vdW  Elec       q    Type
REMARK                         _______ _______ _______ _____ _____    ______ ____
ROOT
ATOM      3  O   UNL     1      -1.005  -6.195 -25.313  0.00  0.00    -0.370 OA
ENDROOT
BRANCH   3   4
ATOM      4  C   UNL     1      -0.276  -5.474 -26.218  0.00  0.00    +0.565 A 
ATOM      5  N   UNL     1       0.612  -5.995 -27.059  0.00  0.00    -0.760 NA
ATOM      6  C   UNL     1       1.261  -5.150 -27.905  0.00  0.00    +0.810 A 
ATOM      7  N   UNL     1       1.080  -3.825 -28.012  0.00  0.00    -0.730 NA
ATOM      8  C   UNL     1       0.174  -3.345 -27.153  0.00  0.00    +0.550 A 
ATOM      9  N   UNL     1      -0.233  -2.065 -26.967  0.00  0.00    -0.600 NA
ATOM     10  C   UNL     1      -1.180  -2.139 -25.984  0.00  0.00    +0.100 A 
ATOM     11  N   UNL     1      -1.354  -3.330 -25.471  0.00  0.00    -0.300 NA
ATOM     12  N   UNL     1       2.155  -5.699 -28.745  0.00  0.00    -0.750 NA
ATOM     13  C   UNL     1      -0.548  -4.130 -26.234  0.00  0.00    +0.200 A 
ENDBRANCH   3   4
BRANCH   3   2
ATOM      1  C   UNL     1      -1.038  -8.408 -26.305  0.00  0.00    -0.130 A 
ATOM      2  C   UNL     1      -0.982  -7.579 -25.224  0.00  0.00    +0.185 A 
ATOM     14  C   UNL     1      -1.024  -8.055 -23.932  0.00  0.00    -0.130 A 
ATOM     15  C   UNL     1      -1.146  -9.413 -23.714  0.00  0.00    +0.000 A 
ATOM     20  C   UNL     1      -1.206 -10.253 -24.796  0.00  0.00    -0.130 A 
ATOM     21  C   UNL     1      -1.172  -9.752 -26.077  0.00  0.00    -0.130 A 
BRANCH  15  16
ATOM     16  C   UNL     1      -1.126  -9.953 -22.305  0.00  0.00    -0.100 C 
BRANCH  16  17
ATOM     17  C   UNL     1      -2.312  -9.711 -21.414  0.00  0.00    +0.200 C 
ATOM     18  O   UNL     1      -2.380 -10.354 -20.363  0.00  0.00    -0.600 OA
ATOM     19  O   UNL     1      -3.211  -8.917 -21.743  0.00  0.00    -0.600 OA
ENDBRANCH  16  17
ENDBRANCH  15  16
ENDBRANCH   3   2
TORSDOF 4
