REMARK  Name = 5NK7
REMARK  12 active torsions:
REMARK  status: ('A' for Active; 'I' for Inactive)
REMARK    1  A    between atoms: C_7  and  N_8
REMARK    2  A    between atoms: C_9  and  C_11
REMARK    3  A    between atoms: C_16  and  N_17
REMARK    4  A    between atoms: C_22  and  C_23
REMARK    5  A    between atoms: N_25  and  C_26
REMARK    6  A    between atoms: C_32  and  C_33
REMARK    7  A    between atoms: C_40  and  N_41
REMARK    8  A    between atoms: C_42  and  C_44
REMARK    9  A    between atoms: C_49  and  N_50
REMARK   10  A    between atoms: C_55  and  C_56
REMARK   11  A    between atoms: N_58  and  C_59
REMARK   12  A    between atoms: C_65  and  C_66
REMARK                            x       y       z     vdW  Elec       q    Type
REMARK                         _______ _______ _______ _____ _____    ______ ____
ROOT
ATOM     12  N   UNL     1     -87.051 -15.225   5.253  0.00  0.00    -0.294 N 
ATOM     13  H   UNL     1     -87.278 -14.779   4.307  0.00  0.00    +0.154 HD
ATOM     14  C   UNL     1     -88.071 -15.765   5.950  0.00  0.00    +0.163 A 
ATOM     15  N   UNL     1     -89.341 -15.735   5.515  0.00  0.00    -0.232 NA
ATOM     16  C   UNL     1     -90.237 -16.324   6.343  0.00  0.00    +0.133 A 
ATOM     17  C   UNL     1     -89.693 -16.846   7.453  0.00  0.00    +0.095 A 
ATOM     30  S   UNL     1     -88.067 -16.564   7.425  0.00  0.00    -0.048 S 
ENDROOT
BRANCH  12  11
ATOM      7  C   UNL     1     -83.421 -15.205   5.040  0.00  0.00    +0.038 A 
ATOM      8  C   UNL     1     -83.053 -15.132   6.377  0.00  0.00    +0.013 A 
ATOM      9  C   UNL     1     -84.030 -15.099   7.360  0.00  0.00    +0.003 A 
ATOM     10  C   UNL     1     -85.371 -15.122   6.998  0.00  0.00    +0.023 A 
ATOM     11  C   UNL     1     -85.765 -15.206   5.662  0.00  0.00    +0.033 A 
ATOM     31  C   UNL     1     -84.768 -15.231   4.686  0.00  0.00    +0.036 A 
BRANCH   7   6
ATOM      4  N   UNL     1     -81.331 -14.517   4.407  0.00  0.00    -0.306 N 
ATOM      5  H   UNL     1     -81.313 -14.047   5.368  0.00  0.00    +0.149 HD
ATOM      6  C   UNL     1     -82.422 -15.220   4.068  0.00  0.00    +0.244 C 
ATOM     32  O   UNL     1     -82.570 -15.796   2.992  0.00  0.00    -0.270 OA
BRANCH   4   3
ATOM      1  F   UNL     1     -81.129 -12.491   2.420  0.00  0.00    -0.242 F 
ATOM      2  C   UNL     1     -80.038 -12.884   3.145  0.00  0.00    +0.200 C 
ATOM      3  C   UNL     1     -80.159 -14.354   3.536  0.00  0.00    +0.110 C 
ATOM     33  C   UNL     1     -78.914 -14.768   4.300  0.00  0.00    +0.040 C 
ATOM     34  C   UNL     1     -77.691 -14.516   3.434  0.00  0.00    +0.083 C 
ATOM     35  N   UNL     1     -77.585 -13.091   3.086  0.00  0.00    -0.313 NA
ATOM     36  H   UNL     1     -77.514 -12.511   3.982  0.00  0.00    +0.122 HD
ATOM     37  C   UNL     1     -78.773 -12.673   2.327  0.00  0.00    +0.119 C 
ENDBRANCH   4   3
ENDBRANCH   7   6
ENDBRANCH  12  11
BRANCH  17  18
ATOM     18  C   UNL     1     -90.339 -17.484   8.443  0.00  0.00    +0.256 C 
ATOM     19  N   UNL     1     -91.664 -17.690   8.271  0.00  0.00    -0.280 N 
ATOM     20  H   UNL     1     -92.154 -17.381   7.371  0.00  0.00    +0.155 HD
ATOM     29  O   UNL     1     -89.727 -17.838   9.449  0.00  0.00    -0.269 OA
BRANCH  19  21
ATOM     21  C   UNL     1     -92.354 -18.294   9.261  0.00  0.00    +0.055 A 
ATOM     22  C   UNL     1     -92.911 -17.500  10.269  0.00  0.00    -0.028 A 
ATOM     23  C   UNL     1     -92.757 -16.116  10.274  0.00  0.00    +0.046 C 
ATOM     24  C   UNL     1     -93.636 -18.104  11.295  0.00  0.00    +0.005 A 
ATOM     25  C   UNL     1     -93.804 -19.484  11.306  0.00  0.00    +0.002 A 
ATOM     26  C   UNL     1     -93.252 -20.266  10.294  0.00  0.00    +0.022 A 
ATOM     27  C   UNL     1     -92.523 -19.682   9.262  0.00  0.00    +0.062 A 
ATOM     28 CL   UNL     1     -91.854 -20.720   8.019  0.00  0.00    -0.082 Cl
ENDBRANCH  19  21
ENDBRANCH  17  18
TORSDOF 5
