REMARK  Name = WSH
REMARK  5 active torsions:
REMARK  status: ('A' for Active; 'I' for Inactive)
REMARK    1  A    between atoms: C14_15  and  C13_21
REMARK    2  A    between atoms: C7_17  and  C6_25
REMARK    3  A    between atoms: C5_22  and  O2_32
REMARK    4  A    between atoms: C4_23  and  N3_30
REMARK    5  A    between atoms: C6_25  and  O2_32
REMARK                            x       y       z     vdW  Elec       q    Type
REMARK                         _______ _______ _______ _____ _____    ______ ____
ROOT
ATOM      6  C   UNL     1     -10.692  -6.196   2.638  0.00  0.00    +0.080 C 
ATOM      7  N   UNL     1     -11.923  -6.380   2.951  0.00  0.00    -0.243 NA
ATOM      8  C   UNL     1     -12.848  -6.886   1.930  0.00  0.00    +0.259 C 
ATOM     20  C   UNL     1     -13.107  -5.776   0.933  0.00  0.00    +0.191 A 
ATOM     21  N   UNL     1     -14.189  -5.100   0.626  0.00  0.00    -0.129 NA
ATOM     22  N   UNL     1     -13.848  -4.179  -0.339  0.00  0.00    -0.133 NA
ATOM     23  C   UNL     1     -12.566  -4.312  -0.584  0.00  0.00    +0.147 A 
ATOM     24  C   UNL     1     -11.776  -3.510  -1.552  0.00  0.00    +0.074 C 
ATOM     25  N   UNL     1     -12.046  -5.323   0.195  0.00  0.00    -0.278 N 
ATOM     26  C   UNL     1     -10.751  -5.956   0.148  0.00  0.00    +0.068 A 
ATOM     27  C   UNL     1     -10.155  -6.129  -1.084  0.00  0.00    +0.018 A 
ATOM     28  C   UNL     1      -8.910  -6.712  -1.174  0.00  0.00    +0.002 A 
ATOM     29  C   UNL     1      -8.257  -7.123  -0.032  0.00  0.00    +0.000 A 
ATOM     30  C   UNL     1      -8.838  -6.960   1.201  0.00  0.00    +0.003 A 
ATOM     31  C   UNL     1     -10.087  -6.374   1.288  0.00  0.00    +0.034 A 
ENDROOT
BRANCH   6   4
ATOM      1  C   UNL     1      -8.237  -4.720   5.794  0.00  0.00    +0.000 A 
ATOM      2  C   UNL     1      -9.336  -5.487   6.082  0.00  0.00    +0.000 A 
ATOM      3  C   UNL     1     -10.128  -5.968   5.062  0.00  0.00    +0.002 A 
ATOM      4  C   UNL     1      -9.825  -5.688   3.745  0.00  0.00    +0.017 A 
ATOM      5  C   UNL     1      -8.716  -4.920   3.464  0.00  0.00    +0.002 A 
ATOM     32  C   UNL     1      -7.928  -4.438   4.483  0.00  0.00    +0.000 A 
ENDBRANCH   6   4
BRANCH   8   9
ATOM      9  N   UNL     1     -14.095  -7.168   2.591  0.00  0.00    -0.138 NA
ATOM     10  C   UNL     1     -14.258  -8.263   3.354  0.00  0.00    +0.423 C 
ATOM     11  O   UNL     1     -15.280  -8.560   3.960  0.00  0.00    -0.225 OA
BRANCH  10  12
ATOM     12  O   UNL     1     -13.120  -8.999   3.343  0.00  0.00    -0.428 OA
BRANCH  12  13
ATOM     13  C   UNL     1     -13.008 -10.099   4.230  0.00  0.00    +0.237 C 
BRANCH  13  14
ATOM     14  C   UNL     1     -11.614 -10.612   4.067  0.00  0.00    +0.021 A 
ATOM     15  C   UNL     1     -10.570  -9.718   4.132  0.00  0.00    -0.001 A 
ATOM     16  C   UNL     1      -9.278 -10.157   3.981  0.00  0.00    -0.000 A 
ATOM     17  C   UNL     1      -9.016 -11.492   3.767  0.00  0.00    -0.000 A 
ATOM     18  C   UNL     1     -10.057 -12.389   3.702  0.00  0.00    -0.000 A 
ATOM     19  C   UNL     1     -11.354 -11.945   3.848  0.00  0.00    -0.001 A 
ENDBRANCH  13  14
ENDBRANCH  12  13
ENDBRANCH  10  12
ENDBRANCH   8   9
TORSDOF 5
