REMARK  Name = 4waf_ligand
REMARK  7 active torsions:
REMARK  status: ('A' for Active; 'I' for Inactive)
REMARK    1  A    between atoms: C1_1  and  C_29
REMARK    2  A    between atoms: C11_5  and  N2_18
REMARK    3  A    between atoms: C12_6  and  N2_18
REMARK    4  A    between atoms: C15_9  and  N3_28
REMARK    5  A    between atoms: S_16  and  N2_18
REMARK    6  A    between atoms: S_16  and  C8_19
REMARK    7  A    between atoms: C5_24  and  C4_25
REMARK                            x       y       z     vdW  Elec       q    Type
REMARK                         _______ _______ _______ _____ _____    ______ ____
ROOT
ATOM      1  C   UNL     1      -2.679  12.420 -18.075  0.00  0.00    +0.129 C 
ATOM      2  C   UNL     1      -1.272  13.014 -18.169  0.00  0.00    +0.037 C 
ATOM      3  N   UNL     1      -2.700  10.993 -18.455  0.00  0.00    -0.280 N 
ATOM     14  C   UNL     1      -2.199   9.968 -17.533  0.00  0.00    +0.247 C 
ATOM     15  C   UNL     1      -2.168  10.454 -16.117  0.00  0.00    +0.108 A 
ATOM     16  N   UNL     1      -2.722  11.666 -15.801  0.00  0.00    -0.195 N 
ATOM     17  N   UNL     1      -2.554  11.946 -14.466  0.00  0.00    -0.226 NA
ATOM     18  C   UNL     1      -1.886  10.924 -13.984  0.00  0.00    +0.060 A 
ATOM     19  C   UNL     1      -1.629   9.948 -14.957  0.00  0.00    +0.004 A 
ATOM     32  C   UNL     1      -3.322  12.613 -16.707  0.00  0.00    +0.226 C 
ENDROOT
BRANCH   3   4
ATOM      4  C   UNL     1      -2.848  10.639 -19.827  0.00  0.00    +0.054 A 
ATOM      5  C   UNL     1      -3.844  11.273 -20.591  0.00  0.00    +0.020 A 
ATOM      6  C   UNL     1      -4.937  12.162 -20.330  0.00  0.00    -0.031 A 
ATOM      7  C   UNL     1      -5.485  12.465 -21.536  0.00  0.00    +0.111 A 
ATOM      8  N   UNL     1      -4.806  11.806 -22.534  0.00  0.00    -0.273 N 
ATOM      9  H   UNL     1      -5.019  11.863 -23.540  0.00  0.00    +0.229 HD
ATOM     10  C   UNL     1      -3.805  11.065 -21.978  0.00  0.00    +0.120 A 
ATOM     11  N   UNL     1      -2.920  10.277 -22.614  0.00  0.00    -0.308 NA
ATOM     12  C   UNL     1      -2.013   9.656 -21.845  0.00  0.00    +0.048 A 
ATOM     13  C   UNL     1      -1.937   9.800 -20.470  0.00  0.00    +0.014 A 
ENDBRANCH   3   4
BRANCH  19  20
ATOM     20  C   UNL     1      -1.031   8.630 -14.639  0.00  0.00    -0.042 A 
ATOM     21  C   UNL     1      -1.106   8.126 -13.338  0.00  0.00    -0.008 A 
ATOM     22  C   UNL     1      -0.634   6.863 -13.042  0.00  0.00    +0.019 A 
ATOM     23  C   UNL     1      -0.067   6.089 -14.043  0.00  0.00    +0.101 A 
ATOM     24  C   UNL     1       0.025   6.576 -15.341  0.00  0.00    +0.019 A 
ATOM     31  C   UNL     1      -0.448   7.843 -15.631  0.00  0.00    -0.008 A 
BRANCH  23  25
ATOM     25  S   UNL     1       0.586   4.510 -13.652  0.00  0.00    +0.067 S 
ATOM     29  O   UNL     1       0.352   4.274 -12.264  0.00  0.00    -0.151 OA
ATOM     30  O   UNL     1       0.082   3.574 -14.618  0.00  0.00    -0.151 OA
BRANCH  25  26
ATOM     26  N   UNL     1       2.198   4.585 -13.861  0.00  0.00    -0.241 NA
ATOM     27  C   UNL     1       3.055   4.011 -12.817  0.00  0.00    +0.150 C 
ATOM     28  C   UNL     1       2.740   4.484 -15.221  0.00  0.00    +0.150 C 
ENDBRANCH  25  26
ENDBRANCH  23  25
ENDBRANCH  19  20
TORSDOF 4
