REMARK  Name = 5OY6
REMARK  0 active torsions:
REMARK  status: ('A' for Active; 'I' for Inactive)
REMARK                            x       y       z     vdW  Elec       q    Type
REMARK                         _______ _______ _______ _____ _____    ______ ____
ROOT
ATOM      1  C   UNL     1      16.950  -5.648 -20.763  0.00  0.00    +0.045 A 
ATOM      2 CL   UNL     1      18.004  -5.508 -22.154  0.00  0.00    -0.083 Cl
ATOM      3  C   UNL     1      17.370  -5.086 -19.569  0.00  0.00    +0.028 A 
ATOM      4  C   UNL     1      16.574  -5.176 -18.434  0.00  0.00    -0.009 A 
ATOM      5  C   UNL     1      17.017  -4.598 -17.242  0.00  0.00    +0.053 C 
ATOM      6  C   UNL     1      16.734  -5.041 -15.924  0.00  0.00    +0.331 C 
ATOM      7  N   UNL     1      15.983  -6.112 -15.486  0.00  0.00    -0.043 NA
ATOM      8  C   UNL     1      15.862  -6.330 -14.164  0.00  0.00    +0.310 C 
ATOM      9  N   UNL     1      15.091  -7.436 -13.701  0.00  0.00    -0.232 N 
ATOM     10  H   UNL     1      14.794  -7.492 -12.675  0.00  0.00    +0.291 HD
ATOM     11  C   UNL     1      14.718  -8.468 -14.612  0.00  0.00    +0.251 C 
ATOM     12  C   UNL     1      13.546  -7.980 -15.428  0.00  0.00    +0.203 C 
ATOM     13  O   UNL     1      13.766  -8.438 -16.761  0.00  0.00    -0.373 OA
ATOM     14  C   UNL     1      12.818  -7.963 -17.718  0.00  0.00    +0.201 C 
ATOM     15  C   UNL     1      13.462  -8.241 -19.052  0.00  0.00    +0.257 C 
ATOM     16  O   UNL     1      13.638  -7.031 -19.763  0.00  0.00    -0.490 OA
ATOM     17  C   UNL     1      14.910  -6.397 -19.695  0.00  0.00    +0.123 A 
ATOM     18  C   UNL     1      16.495  -5.475 -13.248  0.00  0.00    +0.115 C 
ATOM     19  C   UNL     1      17.241  -4.401 -13.719  0.00  0.00    +0.104 C 
ATOM     20  N   UNL     1      17.340  -4.225 -15.075  0.00  0.00    -0.203 N 
ATOM     21  N   UNL     1      18.001  -3.234 -15.777  0.00  0.00    -0.267 N 
ATOM     22  H   UNL     1      18.567  -2.432 -15.352  0.00  0.00    +0.170 HD
ATOM     23  C   UNL     1      17.806  -3.458 -17.096  0.00  0.00    +0.099 C 
ATOM     24  C   UNL     1      15.337  -5.830 -18.500  0.00  0.00    +0.054 A 
ATOM     25  C   UNL     1      15.720  -6.302 -20.831  0.00  0.00    +0.065 A 
ENDROOT
TORSDOF 0
