REMARK  Name = 5MJA
REMARK  4 active torsions:
REMARK  status: ('A' for Active; 'I' for Inactive)
REMARK    1  A    between atoms: C_4  and  C_22
REMARK    2  A    between atoms: C_7  and  N_15
REMARK    3  A    between atoms: C_9  and  O_14
REMARK    4  A    between atoms: C_19  and  N_21
REMARK                            x       y       z     vdW  Elec       q    Type
REMARK                         _______ _______ _______ _____ _____    ______ ____
ROOT
ATOM      1  C   UNL     1       0.312  47.834 -11.209  0.00  0.00    +0.015 A 
ATOM      2  C   UNL     1       0.966  48.932 -10.736  0.00  0.00    +0.024 A 
ATOM      3  C   UNL     1       0.270  50.081 -10.348  0.00  0.00    +0.035 A 
ATOM     10  C   UNL     1      -1.111  50.093 -10.407  0.00  0.00    +0.049 A 
ATOM     11  C   UNL     1      -1.820  48.989 -10.939  0.00  0.00    +0.053 A 
ATOM     12  N   UNL     1      -3.188  49.055 -10.987  0.00  0.00    -0.345 N 
ATOM     13  H   UNL     1      -3.731  49.929 -10.692  0.00  0.00    +0.167 HD
ATOM     14  C   UNL     1      -3.794  47.950 -11.428  0.00  0.00    +0.199 A 
ATOM     15  N   UNL     1      -3.240  46.807 -11.863  0.00  0.00    -0.218 NA
ATOM     16  C   UNL     1      -1.904  46.726 -11.809  0.00  0.00    +0.164 A 
ATOM     17  N   UNL     1      -1.294  45.584 -12.228  0.00  0.00    -0.226 NA
ATOM     27  C   UNL     1      -1.101  47.829 -11.336  0.00  0.00    +0.043 A 
ENDROOT
BRANCH  17  18
ATOM     18  C   UNL     1      -1.786  44.326 -12.643  0.00  0.00    +0.088 A 
ATOM     19  C   UNL     1      -2.285  44.157 -13.943  0.00  0.00    +0.067 A 
ATOM     20 CL   UNL     1      -2.356  45.510 -15.026  0.00  0.00    -0.081 Cl
ATOM     21  C   UNL     1      -2.715  42.915 -14.394  0.00  0.00    +0.025 A 
ATOM     22  C   UNL     1      -2.666  41.823 -13.549  0.00  0.00    +0.047 A 
ATOM     23  C   UNL     1      -2.124  41.958 -12.276  0.00  0.00    +0.119 A 
ATOM     26  C   UNL     1      -1.700  43.203 -11.819  0.00  0.00    +0.074 A 
BRANCH  23  24
ATOM     24  O   UNL     1      -2.056  40.891 -11.429  0.00  0.00    -0.507 OA
ATOM     25  H   UNL     1      -1.060  40.740 -11.134  0.00  0.00    +0.292 HD
ENDBRANCH  23  24
ENDBRANCH  17  18
BRANCH   3   4
ATOM      4  N   UNL     1       1.106  51.105  -9.813  0.00  0.00    -0.284 N 
ATOM      5  H   UNL     1       2.077  50.780  -9.502  0.00  0.00    +0.155 HD
ATOM      6  C   UNL     1       0.859  52.430  -9.637  0.00  0.00    +0.232 C 
ATOM      7  O   UNL     1      -0.154  53.022 -10.026  0.00  0.00    -0.274 OA
BRANCH   6   8
ATOM      8  C   UNL     1       1.952  53.179  -8.897  0.00  0.00    +0.204 C 
ATOM      9 CL   UNL     1       3.030  52.174  -7.914  0.00  0.00    -0.116 Cl
ENDBRANCH   6   8
ENDBRANCH   3   4
TORSDOF 4
