REMARK  Name = 5FM2
REMARK  6 active torsions:
REMARK  status: ('A' for Active; 'I' for Inactive)
REMARK    1  A    between atoms: N_1  and  C_18
REMARK    2  A    between atoms: C_9  and  C_11
REMARK    3  A    between atoms: C_14  and  C_17
REMARK    4  A    between atoms: C_18  and  C_19
REMARK    5  A    between atoms: C_18  and  C_20
REMARK    6  A    between atoms: C_18  and  C_21
REMARK                            x       y       z     vdW  Elec       q    Type
REMARK                         _______ _______ _______ _____ _____    ______ ____
ROOT
ATOM      1  N   UNL     1     -21.273  15.000  -7.048  0.00  0.00    -0.240 N 
ATOM      6  N   UNL     1     -22.127  16.048  -6.677  0.00  0.00    -0.168 NA
ATOM      7  C   UNL     1     -23.380  15.677  -7.042  0.00  0.00    +0.105 A 
ATOM     15  C   UNL     1     -23.280  14.326  -7.661  0.00  0.00    +0.086 A 
ATOM     16  C   UNL     1     -24.221  13.354  -8.261  0.00  0.00    +0.131 A 
ATOM     17  N   UNL     1     -25.547  13.622  -8.330  0.00  0.00    -0.343 N 
ATOM     18  H   UNL     1     -26.215  12.909  -8.767  0.00  0.00    +0.144 HD
ATOM     19  H   UNL     1     -25.927  14.547  -7.948  0.00  0.00    +0.144 HD
ATOM     20  N   UNL     1     -23.709  12.196  -8.735  0.00  0.00    -0.220 NA
ATOM     21  C   UNL     1     -22.392  11.924  -8.670  0.00  0.00    +0.225 A 
ATOM     22  N   UNL     1     -21.477  12.757  -8.141  0.00  0.00    -0.216 NA
ATOM     23  C   UNL     1     -21.856  13.953  -7.630  0.00  0.00    +0.164 A 
ENDROOT
BRANCH   7   8
ATOM      8  C   UNL     1     -24.623  16.471  -6.839  0.00  0.00    +0.003 A 
ATOM      9  C   UNL     1     -25.630  15.970  -6.023  0.00  0.00    +0.010 A 
ATOM     10  C   UNL     1     -26.788  16.709  -5.822  0.00  0.00    +0.004 A 
ATOM     11  C   UNL     1     -26.940  17.946  -6.436  0.00  0.00    -0.050 A 
ATOM     12  C   UNL     1     -28.200  18.741  -6.215  0.00  0.00    +0.044 C 
ATOM     13  C   UNL     1     -25.930  18.448  -7.250  0.00  0.00    +0.004 A 
ATOM     14  C   UNL     1     -24.769  17.711  -7.449  0.00  0.00    +0.010 A 
ENDBRANCH   7   8
BRANCH   1   2
ATOM      2  C   UNL     1     -19.815  15.079  -6.796  0.00  0.00    +0.058 C 
ATOM      3  C   UNL     1     -19.513  16.418  -6.139  0.00  0.00    +0.036 C 
ATOM      4  C   UNL     1     -19.406  13.935  -5.875  0.00  0.00    +0.036 C 
ATOM      5  C   UNL     1     -19.077  14.984  -8.126  0.00  0.00    +0.036 C 
ENDBRANCH   1   2
TORSDOF 2
