REMARK  Name = 62G
REMARK  3 active torsions:
REMARK  status: ('A' for Active; 'I' for Inactive)
REMARK    1  A    between atoms: C13_7  and  C21_10
REMARK    2  A    between atoms: C15_8  and  C17_9
REMARK    3  A    between atoms: C17_9  and  C18_20
REMARK                            x       y       z     vdW  Elec       q    Type
REMARK                         _______ _______ _______ _____ _____    ______ ____
ROOT
ATOM      1  C   UNL     1       7.520   3.000   2.000  0.00  0.00    +0.000 C 
ENDROOT
TORSDOF 0
