REMARK  Name = 2a0c_ligand
REMARK  12 active torsions:
REMARK  status: ('A' for Active; 'I' for Inactive)
REMARK    1  A    between atoms: O27_1  and  C24_2
REMARK    2  A    between atoms: C19_7  and  C18_8
REMARK    3  A    between atoms: C18_8  and  N17_9
REMARK    4  A    between atoms: N17_9  and  C4_10
REMARK    5  A    between atoms: N7_15  and  C10_16
REMARK    6  A    between atoms: C10_16  and  C12_17
REMARK    7  A    between atoms: C10_16  and  C11_18
REMARK    8  A    between atoms: N13_22  and  C14_23
REMARK    9  A    between atoms: C14_23  and  C25_24
REMARK   10  A    between atoms: C14_23  and  C15_26
REMARK   11  A    between atoms: C25_24  and  C26_25
REMARK   12  A    between atoms: C15_26  and  O16_27
REMARK                            x       y       z     vdW  Elec       q    Type
REMARK                         _______ _______ _______ _____ _____    ______ ____
ROOT
ATOM      8  C   UNL     1       2.424   6.465  28.168  0.00  0.00    +0.122 A 
ATOM      9  N   UNL     1       2.032   7.556  27.393  0.00  0.00    -0.256 NA
ATOM     10  C   UNL     1       0.855   7.655  26.710  0.00  0.00    +0.154 A 
ATOM     11  N   UNL     1       0.623   8.697  25.982  0.00  0.00    -0.292 N 
ATOM     12  H   UNL     1       1.302   9.468  26.048  0.00  0.00    +0.185 HD
ATOM     19  N   UNL     1      -0.034   6.631  26.807  0.00  0.00    -0.265 NA
ATOM     20  C   UNL     1       0.265   5.538  27.584  0.00  0.00    +0.142 A 
ATOM     21  N   UNL     1      -0.445   4.386  27.811  0.00  0.00    -0.225 N 
ATOM     25  C   UNL     1       0.369   3.607  28.634  0.00  0.00    +0.236 A 
ATOM     26  N   UNL     1       1.498   4.212  28.917  0.00  0.00    -0.304 NA
ATOM     27  C   UNL     1       1.515   5.407  28.298  0.00  0.00    +0.092 A 
ENDROOT
BRANCH  21  22
ATOM     22  C   UNL     1      -1.809   4.059  27.248  0.00  0.00    +0.129 C 
ATOM     23  C   UNL     1      -2.932   5.114  27.375  0.00  0.00    +0.043 C 
ATOM     24  C   UNL     1      -1.637   3.709  25.781  0.00  0.00    +0.043 C 
ENDBRANCH  21  22
BRANCH   8   6
ATOM      6  N   UNL     1       3.528   6.487  28.697  0.00  0.00    -0.294 N 
ATOM      7  H   UNL     1       3.711   5.704  29.341  0.00  0.00    +0.188 HD
BRANCH   6   5
ATOM      5  C   UNL     1       4.523   7.348  28.579  0.00  0.00    +0.195 C 
BRANCH   5   4
ATOM      3  C   UNL     1       4.132   9.728  29.194  0.00  0.00    +0.091 A 
ATOM      4  C   UNL     1       4.706   8.476  29.538  0.00  0.00    +0.009 A 
ATOM     28  C   UNL     1       5.371   8.283  30.774  0.00  0.00    -0.014 A 
ATOM     29  C   UNL     1       5.497   9.375  31.679  0.00  0.00    -0.029 A 
ATOM     30  C   UNL     1       4.942  10.645  31.343  0.00  0.00    -0.025 A 
ATOM     31  C   UNL     1       4.259  10.823  30.099  0.00  0.00    +0.012 A 
BRANCH   3   1
ATOM      1  O   UNL     1       3.474   9.847  27.989  0.00  0.00    -0.337 OA
ATOM      2  H   UNL     1       3.497   9.014  27.533  0.00  0.00    +0.246 HD
ENDBRANCH   3   1
ENDBRANCH   5   4
ENDBRANCH   6   5
ENDBRANCH   8   6
BRANCH  11  13
ATOM     13  CA  UNL     1      -0.539   8.898  25.047  0.00  0.00    +0.122 C 
BRANCH  13  17
ATOM     17  C   UNL     1      -1.667   9.626  25.874  0.00  0.00    +0.027 C 
ATOM     18  C   UNL     1      -1.594  11.153  26.144  0.00  0.00    +0.006 C 
ENDBRANCH  13  17
BRANCH  13  14
ATOM     14  C   UNL     1      -1.070   7.631  24.272  0.00  0.00    +0.183 C 
BRANCH  14  15
ATOM     15  O   UNL     1      -0.206   7.036  23.299  0.00  0.00    -0.393 OA
ATOM     16  H   UNL     1      -0.640   6.287  22.907  0.00  0.00    +0.209 HD
ENDBRANCH  14  15
ENDBRANCH  13  14
ENDBRANCH  11  13
TORSDOF 9
