REMARK  Name = 2vti_ligand
REMARK  4 active torsions:
REMARK  status: ('A' for Active; 'I' for Inactive)
REMARK    1  A    between atoms: N1_1  and  C8_21
REMARK    2  A    between atoms: C2_2  and  C3_3
REMARK    3  A    between atoms: C22_14  and  S27_17
REMARK    4  A    between atoms: S27_17  and  N30_20
REMARK                            x       y       z     vdW  Elec       q    Type
REMARK                         _______ _______ _______ _____ _____    ______ ____
ROOT
ATOM      1  N   UNL     1      29.365   6.344  64.889  0.00  0.00    -0.233 N 
ATOM      2  H   UNL     1      29.593   5.521  65.409  0.00  0.00    +0.224 HD
ATOM     15  C   UNL     1      28.176   6.426  64.301  0.00  0.00    +0.267 C 
ATOM     16  O   UNL     1      27.709   7.498  63.886  0.00  0.00    -0.378 OA
ENDROOT
BRANCH  15  17
ATOM     17  C   UNL     1      27.470   5.158  64.107  0.00  0.00    +0.208 A 
ATOM     18  N   UNL     1      27.926   4.041  64.689  0.00  0.00    -0.217 N 
ATOM     19  H   UNL     1      28.732   3.956  65.325  0.00  0.00    +0.303 HD
ATOM     20  N   UNL     1      27.108   3.046  64.268  0.00  0.00    -0.272 NA
ATOM     21  C   UNL     1      26.145   3.513  63.415  0.00  0.00    +0.014 A 
ATOM     22  C   UNL     1      25.095   2.924  62.725  0.00  0.00    +0.009 A 
ATOM     23  C   UNL     1      24.270   3.694  61.927  0.00  0.00    +0.001 A 
ATOM     24  C   UNL     1      24.501   5.054  61.795  0.00  0.00    +0.001 A 
ATOM     25  C   UNL     1      25.555   5.648  62.467  0.00  0.00    +0.014 A 
ATOM     26  C   UNL     1      26.369   4.886  63.302  0.00  0.00    +0.040 A 
ENDBRANCH  15  17
BRANCH   1   3
ATOM      3  C   UNL     1      30.309   7.376  64.802  0.00  0.00    +0.065 A 
ATOM      4  C   UNL     1      31.103   7.697  65.885  0.00  0.00    +0.011 A 
ATOM      5  C   UNL     1      32.030   8.720  65.793  0.00  0.00    +0.011 A 
ATOM      6  C   UNL     1      32.155   9.429  64.611  0.00  0.00    +0.092 A 
ATOM     13  C   UNL     1      31.359   9.117  63.523  0.00  0.00    +0.011 A 
ATOM     14  C   UNL     1      30.433   8.104  63.619  0.00  0.00    +0.011 A 
BRANCH   6   7
ATOM      7  S   UNL     1      33.363  10.696  64.465  0.00  0.00    +0.059 S 
ATOM     11  O   UNL     1      33.805  11.033  65.797  0.00  0.00    -0.152 OA
ATOM     12  O   UNL     1      34.326  10.229  63.523  0.00  0.00    -0.152 OA
BRANCH   7   8
ATOM      8  N   UNL     1      32.666  12.004  63.845  0.00  0.00    -0.263 NA
ATOM      9  H   UNL     1      31.693  11.991  63.615  0.00  0.00    +0.163 HD
ATOM     10  H   UNL     1      33.205  12.832  63.689  0.00  0.00    +0.163 HD
ENDBRANCH   7   8
ENDBRANCH   6   7
ENDBRANCH   1   3
TORSDOF 4
