REMARK  Name = 3ocb_ligand
REMARK  6 active torsions:
REMARK  status: ('A' for Active; 'I' for Inactive)
REMARK    1  A    between atoms: C1_1  and  N11_12
REMARK    2  A    between atoms: N5_6  and  C21_22
REMARK    3  A    between atoms: C17_18  and  C19_20
REMARK    4  A    between atoms: C19_20  and  C20_21
REMARK    5  A    between atoms: C19_20  and  C21_22
REMARK    6  A    between atoms: C20_21  and  C22_23
REMARK                            x       y       z     vdW  Elec       q    Type
REMARK                         _______ _______ _______ _____ _____    ______ ____
ROOT
ATOM      2  N   UNL     1      13.370  -1.376  16.311  0.00  0.00    -0.284 N 
ATOM      3  C   UNL     1      13.442  -0.143  17.129  0.00  0.00    +0.163 C 
ATOM      4  C   UNL     1      12.091   0.569  17.401  0.00  0.00    +0.163 C 
ATOM      5  N   UNL     1      11.058  -0.367  17.897  0.00  0.00    -0.269 N 
ATOM      6  C   UNL     1      10.412  -0.200  19.082  0.00  0.00    +0.189 C 
ATOM     21  O   UNL     1       9.546  -0.995  19.462  0.00  0.00    -0.396 OA
ATOM     22  C   UNL     1      10.920  -1.591  17.079  0.00  0.00    +0.163 C 
ATOM     23  C   UNL     1      12.278  -2.266  16.766  0.00  0.00    +0.163 C 
ENDROOT
BRANCH   2   1
ATOM      1  C   UNL     1      14.535  -1.991  15.882  0.00  0.00    +0.121 A 
ATOM     24  N   UNL     1      14.637  -3.335  15.805  0.00  0.00    -0.273 NA
ATOM     25  C   UNL     1      15.809  -3.858  15.391  0.00  0.00    +0.148 A 
ATOM     26  N   UNL     1      16.938  -3.224  15.032  0.00  0.00    -0.277 NA
ATOM     27  C   UNL     1      16.818  -1.894  15.119  0.00  0.00    +0.136 A 
ATOM     28  N   UNL     1      17.746  -0.953  14.840  0.00  0.00    -0.267 N 
ATOM     29  H   UNL     1      18.697  -1.126  14.515  0.00  0.00    +0.232 HD
ATOM     30  C   UNL     1      17.171   0.305  15.077  0.00  0.00    +0.117 A 
ATOM     31  C   UNL     1      15.866   0.201  15.512  0.00  0.00    -0.023 A 
ATOM     32  C   UNL     1      15.667  -1.218  15.529  0.00  0.00    +0.043 A 
ENDBRANCH   2   1
BRANCH   6   7
ATOM      7  C   UNL     1      10.656   1.061  19.954  0.00  0.00    +0.159 C 
BRANCH   7   8
ATOM      8  C   UNL     1      11.265   0.711  21.329  0.00  0.00    +0.155 C 
BRANCH   8   9
ATOM      9  N   UNL     1      12.234  -0.408  21.274  0.00  0.00    +0.221 N 
ATOM     10  H   UNL     1      13.003  -0.160  20.651  0.00  0.00    +0.200 HD
ATOM     11  H   UNL     1      11.767  -1.244  20.923  0.00  0.00    +0.200 HD
ATOM     12  H   UNL     1      12.597  -0.588  22.210  0.00  0.00    +0.200 HD
ENDBRANCH   8   9
ENDBRANCH   7   8
BRANCH   7  13
ATOM     13  C   UNL     1       9.413   1.984  19.987  0.00  0.00    +0.097 C 
BRANCH  13  14
ATOM     14  C   UNL     1       9.145   2.514  18.591  0.00  0.00    -0.040 A 
ATOM     15  C   UNL     1       9.752   3.722  18.176  0.00  0.00    -0.004 A 
ATOM     16  C   UNL     1       9.524   4.216  16.874  0.00  0.00    +0.006 A 
ATOM     17  C   UNL     1       8.690   3.484  15.995  0.00  0.00    +0.033 A 
ATOM     18  C   UNL     1       8.087   2.269  16.405  0.00  0.00    +0.006 A 
ATOM     19 CL   UNL     1       8.406   4.074  14.396  0.00  0.00    -0.077 Cl
ATOM     20  C   UNL     1       8.318   1.779  17.709  0.00  0.00    -0.004 A 
ENDBRANCH  13  14
ENDBRANCH   7  13
ENDBRANCH   6   7
TORSDOF 6
