REMARK  Name = 3QX4
REMARK  5 active torsions:
REMARK  status: ('A' for Active; 'I' for Inactive)
REMARK    1  A    between atoms: N_2  and  C_7
REMARK    2  A    between atoms: N_2  and  C_12
REMARK    3  A    between atoms: N_4  and  C_10
REMARK    4  A    between atoms: C_6  and  C_11
REMARK    5  A    between atoms: C_12  and  C_13
REMARK                            x       y       z     vdW  Elec       q    Type
REMARK                         _______ _______ _______ _____ _____    ______ ____
ROOT
ATOM      6  C   UNL     1      39.464  81.267 -48.712  0.00  0.00    +0.059 A 
ATOM      7  C   UNL     1      38.482  81.289 -47.667  0.00  0.00    +0.041 A 
ATOM      8  C   UNL     1      38.865  80.854 -46.351  0.00  0.00    +0.046 A 
ATOM      9  C   UNL     1      40.186  80.403 -46.072  0.00  0.00    +0.073 A 
ATOM     10 CL   UNL     1      40.546  79.923 -44.461  0.00  0.00    -0.081 Cl
ATOM     11  C   UNL     1      41.175  80.366 -47.125  0.00  0.00    +0.145 A 
ATOM     24  C   UNL     1      40.791  80.804 -48.429  0.00  0.00    +0.049 A 
ENDROOT
BRANCH   6   4
ATOM      1  N   UNL     1      39.857  81.154 -51.045  0.00  0.00    -0.325 N 
ATOM      2  H   UNL     1      39.635  81.474 -52.042  0.00  0.00    +0.145 HD
ATOM      3  H   UNL     1      40.616  80.419 -50.875  0.00  0.00    +0.145 HD
ATOM      4  C   UNL     1      39.171  81.685 -49.988  0.00  0.00    +0.243 C 
ATOM      5  O   UNL     1      38.325  82.547 -50.191  0.00  0.00    -0.270 OA
ENDBRANCH   6   4
BRANCH  11  12
ATOM     12  N   UNL     1      42.393  79.959 -46.932  0.00  0.00    +0.058 N 
ATOM     13  O   UNL     1      42.694  79.086 -46.000  0.00  0.00    -0.126 OA
ATOM     14  O   UNL     1      43.365  80.393 -47.697  0.00  0.00    -0.126 OA
ENDBRANCH  11  12
BRANCH   7  15
ATOM     15  N   UNL     1      37.267  81.704 -47.914  0.00  0.00    -0.339 N 
ATOM     16  H   UNL     1      37.108  82.317 -48.776  0.00  0.00    +0.146 HD
BRANCH  15  17
ATOM     17  C   UNL     1      36.091  81.370 -47.061  0.00  0.00    +0.138 C 
BRANCH  17  18
ATOM     18  C   UNL     1      35.829  82.481 -46.071  0.00  0.00    -0.012 A 
ATOM     19  C   UNL     1      35.770  83.842 -46.476  0.00  0.00    +0.008 A 
ATOM     20  C   UNL     1      35.521  84.866 -45.525  0.00  0.00    +0.020 A 
ATOM     21  C   UNL     1      35.338  84.483 -44.185  0.00  0.00    +0.111 A 
ATOM     22  N   UNL     1      35.392  83.172 -43.761  0.00  0.00    -0.263 NA
ATOM     23  C   UNL     1      35.635  82.198 -44.704  0.00  0.00    +0.115 A 
ENDBRANCH  17  18
ENDBRANCH  15  17
ENDBRANCH   7  15
TORSDOF 5
