REMARK  Name = 4d0w_ligand
REMARK  4 active torsions:
REMARK  status: ('A' for Active; 'I' for Inactive)
REMARK    1  A    between atoms: C15_7  and  C11_8
REMARK    2  A    between atoms: C9_11  and  C12_12
REMARK    3  A    between atoms: C8_15  and  C1_16
REMARK    4  A    between atoms: C2_22  and  C22_23
REMARK                            x       y       z     vdW  Elec       q    Type
REMARK                         _______ _______ _______ _____ _____    ______ ____
ROOT
ATOM      3  C   UNL     1      31.868 -11.499   3.850  0.00  0.00    +0.085 A 
ATOM      4  C   UNL     1      30.637 -11.479   4.483  0.00  0.00    +0.006 A 
ATOM      5  C   UNL     1      30.356 -12.763   4.915  0.00  0.00    +0.051 A 
ATOM      6  C   UNL     1      31.425 -13.540   4.512  0.00  0.00    +0.089 A 
ATOM     20  N   UNL     1      32.346 -12.775   3.830  0.00  0.00    -0.269 N 
ATOM     21  H   UNL     1      33.220 -13.102   3.393  0.00  0.00    +0.234 HD
ENDROOT
BRANCH   3   2
ATOM      1  C   UNL     1      32.099  -9.161   3.217  0.00  0.00    +0.040 A 
ATOM      2  C   UNL     1      32.529 -10.493   3.212  0.00  0.00    +0.065 A 
ATOM     22  N   UNL     1      33.699 -10.801   2.505  0.00  0.00    -0.260 NA
ATOM     23  C   UNL     1      34.351  -9.853   1.777  0.00  0.00    +0.178 A 
ATOM     24  N   UNL     1      35.437 -10.167   1.033  0.00  0.00    -0.305 N 
ATOM     25  H   UNL     1      35.783 -11.137   1.011  0.00  0.00    +0.182 HD
ATOM     26  H   UNL     1      35.917  -9.436   0.489  0.00  0.00    +0.182 HD
ATOM     27  N   UNL     1      33.889  -8.524   1.779  0.00  0.00    -0.264 NA
ATOM     28  C   UNL     1      32.805  -8.184   2.511  0.00  0.00    +0.092 A 
ENDBRANCH   3   2
BRANCH   6   7
ATOM      7  C   UNL     1      31.655 -14.891   4.600  0.00  0.00    +0.015 A 
ATOM      8  C   UNL     1      31.387 -15.807   3.560  0.00  0.00    -0.033 A 
ATOM      9  C   UNL     1      30.834 -15.416   2.329  0.00  0.00    +0.092 C 
ATOM     10  C   UNL     1      31.716 -17.179   3.641  0.00  0.00    -0.002 A 
ATOM     11  C   UNL     1      32.339 -17.763   4.746  0.00  0.00    +0.007 A 
ATOM     12  C   UNL     1      32.607 -16.847   5.748  0.00  0.00    +0.034 A 
ATOM     13 CL   UNL     1      33.458 -17.561   7.158  0.00  0.00    -0.077 Cl
ATOM     14  C   UNL     1      32.303 -15.488   5.701  0.00  0.00    +0.019 A 
ENDBRANCH   6   7
BRANCH   5  15
ATOM     15  C   UNL     1      29.148 -13.208   5.568  0.00  0.00    +0.182 C 
ATOM     16  N   UNL     1      29.015 -14.432   5.952  0.00  0.00    -0.304 N 
ATOM     17  H   UNL     1      29.755 -15.087   5.799  0.00  0.00    +0.180 HD
ATOM     18  H   UNL     1      28.172 -14.726   6.403  0.00  0.00    +0.180 HD
ATOM     19  O   UNL     1      28.102 -12.552   5.687  0.00  0.00    -0.398 OA
ENDBRANCH   5  15
TORSDOF 3
