REMARK  Name = 4YVE
REMARK  5 active torsions:
REMARK  status: ('A' for Active; 'I' for Inactive)
REMARK    1  A    between atoms: C_1  and  O_10
REMARK    2  A    between atoms: C_2  and  O_10
REMARK    3  A    between atoms: C_6  and  C_8
REMARK    4  A    between atoms: C_8  and  C_9
REMARK    5  A    between atoms: C_12  and  C_14
REMARK                            x       y       z     vdW  Elec       q    Type
REMARK                         _______ _______ _______ _____ _____    ______ ____
ROOT
ATOM      7  C   UNL     1      51.368 104.218  31.787  0.00  0.00    +0.223 C 
ATOM      8  N   UNL     1      51.219 103.189  30.930  0.00  0.00    -0.264 N 
ATOM      9  H   UNL     1      51.318 102.209  31.348  0.00  0.00    +0.157 HD
ATOM     10  C   UNL     1      50.951 103.250  29.565  0.00  0.00    +0.165 A 
ATOM     11  S   UNL     1      50.710 104.684  28.552  0.00  0.00    -0.060 S 
ATOM     12  C   UNL     1      50.473 103.628  27.159  0.00  0.00    +0.076 A 
ATOM     13  C   UNL     1      50.597 102.338  27.549  0.00  0.00    +0.080 A 
ATOM     20  N   UNL     1      50.867 102.180  28.837  0.00  0.00    -0.225 NA
ATOM     21  O   UNL     1      51.237 105.372  31.450  0.00  0.00    -0.275 OA
ENDROOT
BRANCH  13  14
ATOM     14  C   UNL     1      50.523 101.195  26.597  0.00  0.00    +0.004 A 
ATOM     15  C   UNL     1      50.741  99.872  27.022  0.00  0.00    +0.029 A 
ATOM     16  C   UNL     1      50.710  98.853  26.080  0.00  0.00    +0.111 A 
ATOM     17  N   UNL     1      50.479  99.096  24.799  0.00  0.00    -0.263 NA
ATOM     18  C   UNL     1      50.284 100.327  24.356  0.00  0.00    +0.111 A 
ATOM     19  C   UNL     1      50.322 101.410  25.219  0.00  0.00    +0.029 A 
ENDBRANCH  13  14
BRANCH   7   6
ATOM      6  C   UNL     1      51.662 103.888  33.223  0.00  0.00    +0.131 C 
BRANCH   6   5
ATOM      3  C   UNL     1      49.053 105.678  35.342  0.00  0.00    +0.120 A 
ATOM      4  C   UNL     1      50.237 105.385  34.634  0.00  0.00    +0.049 A 
ATOM      5  C   UNL     1      50.403 104.150  34.004  0.00  0.00    -0.035 A 
ATOM     22  C   UNL     1      49.396 103.185  34.080  0.00  0.00    +0.004 A 
ATOM     23  C   UNL     1      48.217 103.457  34.772  0.00  0.00    +0.004 A 
ATOM     24  C   UNL     1      48.055 104.688  35.415  0.00  0.00    +0.045 A 
BRANCH   3   2
ATOM      1  C   UNL     1      49.318 108.111  35.439  0.00  0.00    +0.277 C 
ATOM      2  O   UNL     1      48.880 106.870  36.009  0.00  0.00    -0.495 OA
ENDBRANCH   3   2
ENDBRANCH   6   5
ENDBRANCH   7   6
TORSDOF 4
