REMARK  Name = 56Y
REMARK  6 active torsions:
REMARK  status: ('A' for Active; 'I' for Inactive)
REMARK    1  A    between atoms: C2_2  and  C3_3
REMARK    2  A    between atoms: C4_4  and  C27_11
REMARK    3  A    between atoms: C6_6  and  C11_7
REMARK    4  A    between atoms: C11_7  and  N10_16
REMARK    5  A    between atoms: C15_9  and  C10_20
REMARK    6  A    between atoms: C7_13  and  C8_14
REMARK                            x       y       z     vdW  Elec       q    Type
REMARK                         _______ _______ _______ _____ _____    ______ ____
ROOT
ATOM     12  C   UNL     1       8.559   5.818  -0.482  0.00  0.00    +0.267 C 
ATOM     13  O   UNL     1       8.094   6.056   0.615  0.00  0.00    -0.268 OA
ATOM     14  N   UNL     1       7.883   6.145  -1.608  0.00  0.00    -0.269 N 
ATOM     25  C   UNL     1       8.523   6.263  -2.922  0.00  0.00    +0.116 C 
ENDROOT
BRANCH  12  11
ATOM      3  C   UNL     1      11.130   5.578   0.091  0.00  0.00    +0.004 A 
ATOM      4  C   UNL     1      12.102   4.711  -0.396  0.00  0.00    +0.046 A 
ATOM      8  C   UNL     1      11.503   3.807  -1.393  0.00  0.00    +0.062 A 
ATOM      9  N   UNL     1      10.199   4.135  -1.482  0.00  0.00    -0.245 NA
ATOM     10  C   UNL     1      12.176   2.729  -2.198  0.00  0.00    +0.052 C 
ATOM     11  C   UNL     1       9.904   5.151  -0.640  0.00  0.00    +0.130 A 
BRANCH   4   5
ATOM      5  C   UNL     1      13.539   4.640  -0.068  0.00  0.00    +0.174 C 
ATOM      6  C   UNL     1      14.200   5.912   0.399  0.00  0.00    +0.077 C 
ATOM      7  O   UNL     1      14.132   3.585  -0.227  0.00  0.00    -0.291 OA
ENDBRANCH   4   5
BRANCH   3   2
ATOM      1  C   UNL     1      11.304   6.021   2.518  0.00  0.00    +0.005 C 
ATOM      2  C   UNL     1      11.219   6.665   1.142  0.00  0.00    +0.028 C 
ENDBRANCH   3   2
ENDBRANCH  12  11
BRANCH  14  15
ATOM     15  C   UNL     1       6.439   6.432  -1.621  0.00  0.00    +0.121 C 
BRANCH  15  16
ATOM     16  C   UNL     1       6.211   7.910  -1.827  0.00  0.00    -0.002 A 
ATOM     17  C   UNL     1       6.295   8.813  -0.765  0.00  0.00    -0.003 A 
ATOM     18  C   UNL     1       6.097  10.169  -1.002  0.00  0.00    -0.000 A 
ATOM     19  C   UNL     1       5.812  10.628  -2.288  0.00  0.00    +0.005 A 
ATOM     20  C   UNL     1       5.718   9.726  -3.346  0.00  0.00    +0.056 A 
ATOM     24  C   UNL     1       5.930   8.374  -3.099  0.00  0.00    +0.002 A 
BRANCH  20  21
ATOM     21  C   UNL     1       5.433  10.199  -4.754  0.00  0.00    +0.284 C 
ATOM     22  O   UNL     1       4.804  11.236  -4.991  0.00  0.00    -0.267 OA
ATOM     23  N   UNL     1       5.936   9.428  -5.827  0.00  0.00    -0.084 NA
ENDBRANCH  20  21
ENDBRANCH  15  16
ENDBRANCH  14  15
TORSDOF 6
