REMARK  Name = 3dkg_ligand
REMARK  4 active torsions:
REMARK  status: ('A' for Active; 'I' for Inactive)
REMARK    1  A    between atoms: C1_3  and  N1_4
REMARK    2  A    between atoms: C5_5  and  C3_7
REMARK    3  A    between atoms: C9_13  and  S1_16
REMARK    4  A    between atoms: S1_16  and  C10_17
REMARK                            x       y       z     vdW  Elec       q    Type
REMARK                         _______ _______ _______ _____ _____    ______ ____
ROOT
ATOM      1  C   UNL     1      16.187  16.527  60.118  0.00  0.00    +0.080 A 
ATOM      2  C   UNL     1      17.069  16.054  59.120  0.00  0.00    +0.177 A 
ATOM      3  N   UNL     1      17.934  16.674  58.342  0.00  0.00    -0.278 NA
ATOM      4  N   UNL     1      18.547  15.709  57.570  0.00  0.00    -0.257 NA
ATOM      5  C   UNL     1      18.017  14.534  57.872  0.00  0.00    +0.246 A 
ATOM     17  N   UNL     1      17.062  14.685  58.853  0.00  0.00    -0.095 N 
ATOM     18  N   UNL     1      16.242  13.730  59.430  0.00  0.00    -0.149 NA
ATOM     19  C   UNL     1      15.443  14.221  60.341  0.00  0.00    +0.076 A 
ATOM     26  C   UNL     1      15.367  15.663  60.738  0.00  0.00    +0.048 A 
ENDROOT
BRANCH  19  20
ATOM     20  C   UNL     1      14.533  13.304  61.018  0.00  0.00    +0.025 A 
ATOM     21  C   UNL     1      13.336  13.555  61.671  0.00  0.00    +0.176 A 
ATOM     22  N   UNL     1      12.866  12.351  62.122  0.00  0.00    -0.204 N 
ATOM     23  N   UNL     1      13.666  11.324  61.806  0.00  0.00    -0.212 NA
ATOM     24  C   UNL     1      11.646  12.102  62.862  0.00  0.00    +0.245 C 
ATOM     25  C   UNL     1      14.670  11.895  61.140  0.00  0.00    +0.078 A 
ENDBRANCH  19  20
BRANCH   5   6
ATOM      6  S   UNL     1      18.401  13.012  57.109  0.00  0.00    +0.019 S 
BRANCH   6   7
ATOM      7  C   UNL     1      19.305  12.118  58.355  0.00  0.00    +0.043 A 
ATOM      8  C   UNL     1      20.625  12.481  58.682  0.00  0.00    +0.025 A 
ATOM      9  C   UNL     1      21.329  11.757  59.664  0.00  0.00    +0.023 A 
ATOM     10  C   UNL     1      20.734  10.672  60.316  0.00  0.00    +0.043 A 
ATOM     11  N   UNL     1      21.429   9.981  61.249  0.00  0.00    -0.298 NA
ATOM     12  C   UNL     1      20.830   8.941  61.879  0.00  0.00    +0.093 A 
ATOM     13  C   UNL     1      19.543   8.521  61.617  0.00  0.00    +0.035 A 
ATOM     14  C   UNL     1      18.822   9.219  60.646  0.00  0.00    +0.037 A 
ATOM     15  C   UNL     1      19.402  10.311  59.972  0.00  0.00    +0.001 A 
ATOM     16  C   UNL     1      18.693  11.031  58.987  0.00  0.00    +0.024 A 
ENDBRANCH   6   7
ENDBRANCH   5   6
TORSDOF 3
