REMARK  Name = 4WZ
REMARK  16 active torsions:
REMARK  status: ('A' for Active; 'I' for Inactive)
REMARK    1  A    between atoms: C1_1  and  O11_36
REMARK    2  A    between atoms: C2_2  and  O12_31
REMARK    3  A    between atoms: C3_3  and  O13_26
REMARK    4  A    between atoms: C4_4  and  O14_21
REMARK    5  A    between atoms: C5_5  and  O15_15
REMARK    6  A    between atoms: C6_6  and  O16_16
REMARK    7  A    between atoms: PB5_8  and  CB5_11
REMARK    8  A    between atoms: CB5_11  and  PA5_12
REMARK    9  A    between atoms: PA5_12  and  O15_15
REMARK   10  A    between atoms: O16_16  and  PA6_17
REMARK   11  A    between atoms: O14_21  and  PA4_22
REMARK   12  A    between atoms: O13_26  and  PA3_27
REMARK   13  A    between atoms: O12_31  and  PA2_32
REMARK   14  A    between atoms: O11_36  and  PA1_37
REMARK   15  A    between atoms: PA1_37  and  CB1_40
REMARK   16  A    between atoms: CB1_40  and  PB1_41
REMARK                            x       y       z     vdW  Elec       q    Type
REMARK                         _______ _______ _______ _____ _____    ______ ____
ROOT
ATOM      1  C   UNL     1       0.739  18.786  10.565  0.00  0.00    +0.184 C 
ATOM      2  C   UNL     1       1.534  19.804  11.386  0.00  0.00    +0.186 C 
ATOM      3  C   UNL     1       0.718  20.280  12.614  0.00  0.00    +0.184 C 
ATOM     13  C   UNL     1      -0.754  20.635  12.324  0.00  0.00    +0.186 C 
ATOM     19  C   UNL     1      -1.407  19.609  11.380  0.00  0.00    +0.186 C 
ATOM     30  C   UNL     1      -0.572  19.419  10.094  0.00  0.00    +0.186 C 
ENDROOT
BRANCH   3   4
ATOM      4  O   UNL     1       1.362  21.421  13.170  0.00  0.00    -0.290 OA
BRANCH   4   5
ATOM      5  P   UNL     1       2.139  21.315  14.591  0.00  0.00    +0.377 P 
ATOM     11  O   UNL     1       1.702  20.087  15.299  0.00  0.00    -0.139 OA
ATOM     12  O   UNL     1       3.582  21.520  14.326  0.00  0.00    -0.255 OA
BRANCH   5   6
ATOM      6  C   UNL     1       1.458  22.794  15.427  0.00  0.00    +0.176 C 
BRANCH   6   7
ATOM      7  P   UNL     1       2.738  23.618  16.444  0.00  0.00    +0.130 P 
ATOM      8  O   UNL     1       2.840  22.561  17.466  0.00  0.00    -0.357 OA
ATOM      9  O   UNL     1       1.974  24.854  16.751  0.00  0.00    -0.357 OA
ATOM     10  O   UNL     1       3.799  23.718  15.428  0.00  0.00    -0.460 OA
ENDBRANCH   6   7
ENDBRANCH   5   6
ENDBRANCH   4   5
ENDBRANCH   3   4
BRANCH  13  14
ATOM     14  O   UNL     1      -1.472  20.638  13.583  0.00  0.00    -0.268 OA
BRANCH  14  15
ATOM     15  P   UNL     1      -2.408  21.852  14.073  0.00  0.00    +0.533 P 
ATOM     16  O   UNL     1      -2.234  21.846  15.533  0.00  0.00    -0.115 OA
ATOM     17  O   UNL     1      -3.753  21.493  13.586  0.00  0.00    -0.115 OA
ATOM     18  O   UNL     1      -1.810  23.037  13.404  0.00  0.00    -0.222 OA
ENDBRANCH  14  15
ENDBRANCH  13  14
BRANCH  19  20
ATOM     20  O   UNL     1      -2.774  19.986  11.084  0.00  0.00    -0.268 OA
BRANCH  20  21
ATOM     21  P   UNL     1      -3.937  18.924  11.318  0.00  0.00    +0.533 P 
ATOM     22  O   UNL     1      -4.060  18.927  12.797  0.00  0.00    -0.115 OA
ATOM     23  O   UNL     1      -3.387  17.669  10.762  0.00  0.00    -0.115 OA
ATOM     24  O   UNL     1      -5.103  19.482  10.609  0.00  0.00    -0.222 OA
ENDBRANCH  20  21
ENDBRANCH  19  20
BRANCH   2  25
ATOM     25  O   UNL     1       2.717  19.169  11.885  0.00  0.00    -0.268 OA
BRANCH  25  26
ATOM     26  P   UNL     1       4.183  19.306  11.247  0.00  0.00    +0.533 P 
ATOM     27  O   UNL     1       4.908  19.999  12.343  0.00  0.00    -0.115 OA
ATOM     28  O   UNL     1       4.565  17.883  11.075  0.00  0.00    -0.115 OA
ATOM     29  O   UNL     1       4.051  20.102  10.015  0.00  0.00    -0.222 OA
ENDBRANCH  25  26
ENDBRANCH   2  25
BRANCH  30  31
ATOM     31  O   UNL     1      -0.327  20.712   9.446  0.00  0.00    -0.268 OA
BRANCH  31  32
ATOM     32  P   UNL     1      -0.739  21.069   7.940  0.00  0.00    +0.533 P 
ATOM     33  O   UNL     1      -0.521  22.518   7.873  0.00  0.00    -0.115 OA
ATOM     34  O   UNL     1      -2.138  20.602   7.821  0.00  0.00    -0.115 OA
ATOM     35  O   UNL     1       0.239  20.284   7.133  0.00  0.00    -0.222 OA
ENDBRANCH  31  32
ENDBRANCH  30  31
BRANCH   1  36
ATOM     36  O   UNL     1       1.521  18.302   9.468  0.00  0.00    -0.290 OA
BRANCH  36  37
ATOM     37  P   UNL     1       1.725  16.723   9.266  0.00  0.00    +0.377 P 
ATOM     38  O   UNL     1       2.147  16.106  10.541  0.00  0.00    -0.139 OA
ATOM     39  O   UNL     1       0.527  16.190   8.561  0.00  0.00    -0.255 OA
BRANCH  37  40
ATOM     40  C   UNL     1       3.153  16.728   8.105  0.00  0.00    +0.176 C 
BRANCH  40  41
ATOM     41  P   UNL     1       4.216  15.311   8.317  0.00  0.00    +0.130 P 
ATOM     42  O   UNL     1       4.746  15.350   9.686  0.00  0.00    -0.357 OA
ATOM     43  O   UNL     1       3.298  14.171   8.076  0.00  0.00    -0.357 OA
ATOM     44  O   UNL     1       5.226  15.516   7.260  0.00  0.00    -0.460 OA
ENDBRANCH  40  41
ENDBRANCH  37  40
ENDBRANCH  36  37
ENDBRANCH   1  36
TORSDOF 16
