REMARK  Name = 3nnu_ligand
REMARK  6 active torsions:
REMARK  status: ('A' for Active; 'I' for Inactive)
REMARK    1  A    between atoms: C6_6  and  N42_21
REMARK    2  A    between atoms: C13_7  and  C47_24
REMARK    3  A    between atoms: C15_9  and  N36_18
REMARK    4  A    between atoms: N16_10  and  C23_12
REMARK    5  A    between atoms: C25_14  and  C56_27
REMARK    6  A    between atoms: C56_27  and  C58_28
REMARK                            x       y       z     vdW  Elec       q    Type
REMARK                         _______ _______ _______ _____ _____    ______ ____
ROOT
ATOM      9  C   UNL     1      15.834  15.243  25.933  0.00  0.00    +0.199 A 
ATOM     10  N   UNL     1      15.581  16.559  25.653  0.00  0.00    -0.147 N 
ATOM     23  N   UNL     1      15.654  16.817  24.285  0.00  0.00    -0.230 NA
ATOM     24  C   UNL     1      15.974  15.604  23.785  0.00  0.00    +0.019 A 
ATOM     30  C   UNL     1      16.091  14.589  24.726  0.00  0.00    -0.008 A 
ENDROOT
BRANCH   9   7
ATOM      3  N   UNL     1      16.499  13.434  28.910  0.00  0.00    -0.213 N 
ATOM      4  H   UNL     1      15.827  13.937  29.453  0.00  0.00    +0.227 HD
ATOM      5  C   UNL     1      16.582  13.778  27.630  0.00  0.00    +0.323 C 
ATOM      6  O   UNL     1      17.303  13.163  26.862  0.00  0.00    -0.379 OA
ATOM      7  N   UNL     1      15.835  14.809  27.228  0.00  0.00    -0.183 N 
ATOM      8  H   UNL     1      15.258  15.278  27.896  0.00  0.00    +0.234 HD
BRANCH   3   2
ATOM      1  C   UNL     1      18.619  12.339  29.457  0.00  0.00    +0.010 A 
ATOM      2  C   UNL     1      17.215  12.479  29.582  0.00  0.00    +0.082 A 
ATOM     31  C   UNL     1      16.578  11.684  30.516  0.00  0.00    +0.073 A 
ATOM     32 CL   UNL     1      14.821  11.879  30.673  0.00  0.00    -0.083 Cl
ATOM     33  C   UNL     1      17.257  10.730  31.276  0.00  0.00    +0.041 A 
ATOM     34 CL   UNL     1      16.299   9.736  32.420  0.00  0.00    -0.074 Cl
ATOM     35  C   UNL     1      18.633  10.573  31.138  0.00  0.00    -0.014 A 
ATOM     36  C   UNL     1      19.307  11.380  30.212  0.00  0.00    -0.017 A 
ENDBRANCH   3   2
ENDBRANCH   9   7
BRANCH  10  11
ATOM     11  C   UNL     1      15.333  17.575  26.515  0.00  0.00    +0.102 A 
ATOM     12  C   UNL     1      16.038  17.752  27.721  0.00  0.00    +0.018 A 
ATOM     13  C   UNL     1      15.826  18.798  28.624  0.00  0.00    -0.015 A 
ATOM     14  C   UNL     1      14.857  19.761  28.359  0.00  0.00    -0.016 A 
ATOM     15  C   UNL     1      14.130  19.635  27.171  0.00  0.00    -0.029 A 
ATOM     22  C   UNL     1      14.000  18.576  26.280  0.00  0.00    +0.028 A 
BRANCH  15  16
ATOM     16  C   UNL     1      13.060  20.661  26.848  0.00  0.00    +0.200 C 
BRANCH  16  17
ATOM     17  C   UNL     1      13.656  21.934  26.286  0.00  0.00    +0.185 C 
ATOM     18  N   UNL     1      14.592  21.790  25.363  0.00  0.00    -0.299 N 
ATOM     19  H   UNL     1      14.871  20.875  25.072  0.00  0.00    +0.182 HD
ATOM     20  H   UNL     1      15.021  22.596  24.956  0.00  0.00    +0.182 HD
ATOM     21  O   UNL     1      13.271  23.028  26.672  0.00  0.00    -0.394 OA
ENDBRANCH  16  17
ENDBRANCH  15  16
ENDBRANCH  10  11
BRANCH  24  25
ATOM     25  C   UNL     1      16.111  15.363  22.312  0.00  0.00    +0.033 A 
ATOM     26  C   UNL     1      16.396  14.116  21.770  0.00  0.00    -0.027 A 
ATOM     27  C   UNL     1      16.446  14.232  20.395  0.00  0.00    -0.034 A 
ATOM     28  C   UNL     1      16.224  15.502  19.801  0.00  0.00    +0.066 A 
ATOM     29  S   UNL     1      15.934  16.614  21.101  0.00  0.00    -0.040 S 
ENDBRANCH  24  25
TORSDOF 6
