REMARK  Name = 2q8i_ligand
REMARK  3 active torsions:
REMARK  status: ('A' for Active; 'I' for Inactive)
REMARK    1  A    between atoms: C3_3  and  O3_21
REMARK    2  A    between atoms: C5_5  and  O4_22
REMARK    3  A    between atoms: C17_17  and  C18_18
REMARK                            x       y       z     vdW  Elec       q    Type
REMARK                         _______ _______ _______ _____ _____    ______ ____
ROOT
ATOM      1  C   UNL     1     -48.834  21.520  66.002  0.00  0.00    +0.245 C 
ATOM      2  O   UNL     1     -48.964  22.017  64.902  0.00  0.00    -0.373 OA
ATOM      3  O   UNL     1     -47.591  21.078  66.516  0.00  0.00    -0.279 OA
ATOM      4  C   UNL     1     -46.427  21.382  65.731  0.00  0.00    +0.150 C 
ATOM      5  C   UNL     1     -45.741  20.036  65.419  0.00  0.00    +0.043 C 
ATOM      6  C   UNL     1     -45.488  22.252  66.560  0.00  0.00    +0.074 C 
ATOM      7  C   UNL     1     -45.185  21.657  67.961  0.00  0.00    +0.172 C 
ATOM      8  O   UNL     1     -45.038  22.757  68.842  0.00  0.00    -0.347 OA
ATOM      9  C   UNL     1     -46.274  22.075  68.977  0.00  0.00    +0.212 C 
ATOM     10  C   UNL     1     -46.286  21.307  70.284  0.00  0.00    +0.059 C 
ATOM     11  C   UNL     1     -46.919  20.130  70.440  0.00  0.00    -0.008 C 
ATOM     12  C   UNL     1     -47.643  19.445  69.354  0.00  0.00    +0.006 C 
ATOM     13  C   UNL     1     -48.586  18.524  69.577  0.00  0.00    +0.028 C 
ATOM     14  C   UNL     1     -49.271  17.895  68.381  0.00  0.00    +0.118 C 
ATOM     15  O   UNL     1     -49.456  16.700  68.334  0.00  0.00    -0.392 OA
ATOM     16  C   UNL     1     -49.726  18.681  67.168  0.00  0.00    +0.179 C 
ATOM     17  C   UNL     1     -50.360  20.025  67.462  0.00  0.00    -0.007 A 
ATOM     18  C   UNL     1     -51.520  20.086  68.278  0.00  0.00    +0.065 A 
ATOM     19 CL   UNL     1     -52.014  18.527  68.921  0.00  0.00    -0.093 Cl
ATOM     20  C   UNL     1     -52.225  21.357  68.579  0.00  0.00    +0.093 A 
ATOM     23  C   UNL     1     -51.840  22.577  68.054  0.00  0.00    +0.038 A 
ATOM     24  C   UNL     1     -50.733  22.580  67.216  0.00  0.00    +0.097 A 
ATOM     27  C   UNL     1     -49.983  21.349  66.913  0.00  0.00    +0.083 A 
ENDROOT
BRANCH  20  21
ATOM     21  O   UNL     1     -53.275  21.251  69.417  0.00  0.00    -0.333 OA
ATOM     22  H   UNL     1     -53.661  22.109  69.551  0.00  0.00    +0.250 HD
ENDBRANCH  20  21
BRANCH  24  25
ATOM     25  O   UNL     1     -50.238  23.691  66.601  0.00  0.00    -0.331 OA
ATOM     26  H   UNL     1     -49.480  23.453  66.079  0.00  0.00    +0.251 HD
ENDBRANCH  24  25
TORSDOF 2
