REMARK  Name = 5B1
REMARK  0 active torsions:
REMARK  status: ('A' for Active; 'I' for Inactive)
REMARK                            x       y       z     vdW  Elec       q    Type
REMARK                         _______ _______ _______ _____ _____    ______ ____
ROOT
ATOM      1  C   UNL     1      33.756  40.677  36.476  0.00  0.00    +0.056 A 
ATOM      2  C   UNL     1      33.158  39.596  37.132  0.00  0.00    +0.011 A 
ATOM      3  C   UNL     1      33.783  38.350  37.023  0.00  0.00    +0.035 A 
ATOM      4 BR   UNL     1      32.945  36.907  37.913  0.00  0.00    -0.049 Br
ATOM      5  C   UNL     1      34.972  38.149  36.302  0.00  0.00    +0.008 A 
ATOM      6  C   UNL     1      35.584  39.227  35.642  0.00  0.00    +0.021 A 
ATOM      7  C   UNL     1      33.449  42.051  36.326  0.00  0.00    +0.192 A 
ATOM      8  N   UNL     1      32.380  42.661  36.863  0.00  0.00    -0.105 NA
ATOM      9  N   UNL     1      34.356  42.662  35.588  0.00  0.00    -0.130 NA
ATOM     10  N   UNL     1      35.237  41.704  35.244  0.00  0.00    -0.147 NA
ATOM     11  C   UNL     1      34.940  40.472  35.755  0.00  0.00    +0.106 A 
ENDROOT
TORSDOF 0
