REMARK  Name = 6HBN
REMARK  4 active torsions:
REMARK  status: ('A' for Active; 'I' for Inactive)
REMARK    1  A    between atoms: C16_4  and  N15_22
REMARK    2  A    between atoms: C02_7  and  C03_8
REMARK    3  A    between atoms: C03_8  and  O04_23
REMARK    4  A    between atoms: C05_9  and  O04_23
REMARK                            x       y       z     vdW  Elec       q    Type
REMARK                         _______ _______ _______ _____ _____    ______ ____
ROOT
ATOM      1  C   UNL     1     -20.251  17.999 -30.309  0.00  0.00    +0.150 A 
ATOM      2  N   UNL     1     -19.575  17.462 -31.380  0.00  0.00    -0.350 N 
ATOM      6  C   UNL     1     -18.596  16.642 -30.944  0.00  0.00    +0.200 A 
ATOM      7  C   UNL     1     -17.514  15.773 -31.718  0.00  0.00    -0.100 C 
ATOM      8  C   UNL     1     -16.874  14.680 -30.833  0.00  0.00    -0.100 C 
ATOM      9  C   UNL     1     -16.526  15.115 -29.431  0.00  0.00    -0.100 C 
ATOM     10  C   UNL     1     -17.633  15.804 -28.738  0.00  0.00    +0.550 C 
ATOM     11  O   UNL     1     -17.744  15.754 -27.559  0.00  0.00    -0.550 OA
ATOM     12  C   UNL     1     -18.623  16.622 -29.528  0.00  0.00    +0.050 A 
ATOM     13  C   UNL     1     -19.677  17.484 -29.140  0.00  0.00    -0.100 A 
ATOM     14  C   UNL     1     -20.408  18.051 -27.969  0.00  0.00    +0.550 C 
ATOM     15  O   UNL     1     -20.212  17.833 -26.816  0.00  0.00    -0.550 OA
ATOM     16  C   UNL     1     -21.466  18.951 -28.556  0.00  0.00    +0.000 A 
ATOM     17  C   UNL     1     -22.445  19.743 -27.954  0.00  0.00    -0.130 A 
ATOM     18  C   UNL     1     -23.327  20.488 -28.737  0.00  0.00    -0.130 A 
ATOM     19  C   UNL     1     -23.223  20.445 -30.140  0.00  0.00    -0.130 A 
ATOM     20  C   UNL     1     -22.244  19.649 -30.746  0.00  0.00    +0.185 A 
ATOM     25  C   UNL     1     -21.353  18.895 -29.957  0.00  0.00    +0.000 A 
ENDROOT
BRANCH   2   3
ATOM      3  C   UNL     1     -19.866  17.752 -32.779  0.00  0.00    +0.000 C 
ATOM      4  C   UNL     1     -20.425  16.543 -33.521  0.00  0.00    -0.150 C 
ATOM      5  C   UNL     1     -18.662  18.385 -33.482  0.00  0.00    -0.150 C 
ENDBRANCH   2   3
BRANCH  20  21
ATOM     21  O   UNL     1     -22.155  19.609 -32.140  0.00  0.00    -0.365 OA
BRANCH  21  22
ATOM     22  C   UNL     1     -22.986  20.495 -32.843  0.00  0.00    +0.080 C 
BRANCH  22  23
ATOM     23  C   UNL     1     -22.394  20.679 -34.241  0.00  0.00    -0.100 C 
ATOM     24  C   UNL     1     -23.159  20.954 -35.279  0.00  0.00    -0.200 C 
ENDBRANCH  22  23
ENDBRANCH  21  22
ENDBRANCH  20  21
TORSDOF 4
