REMARK  Name = EE4
REMARK  10 active torsions:
REMARK  status: ('A' for Active; 'I' for Inactive)
REMARK    1  A    between atoms: C15_3  and  C12_17
REMARK    2  A    between atoms: C22_5  and  N23_34
REMARK    3  A    between atoms: C24_6  and  C26_7
REMARK    4  A    between atoms: C02_10  and  C03_11
REMARK    5  A    between atoms: C03_11  and  O04_37
REMARK    6  A    between atoms: C05_12  and  O04_37
REMARK    7  A    between atoms: C06_13  and  C07_14
REMARK    8  A    between atoms: C07_14  and  C09_15
REMARK    9  A    between atoms: C18_19  and  N17_32
REMARK   10  A    between atoms: C37_27  and  O38_41
REMARK                            x       y       z     vdW  Elec       q    Type
REMARK                         _______ _______ _______ _____ _____    ______ ____
ROOT
ATOM      1  C   UNL     1      -7.984  56.977  91.821  0.00  0.00    +0.003 A 
ATOM      2  C   UNL     1      -7.849  57.505  93.127  0.00  0.00    +0.039 A 
ATOM     18  C   UNL     1      -8.200  58.843  93.390  0.00  0.00    +0.003 A 
ATOM     19  C   UNL     1      -8.693  59.669  92.338  0.00  0.00    +0.005 A 
ATOM     20  C   UNL     1      -8.824  59.165  91.080  0.00  0.00    +0.055 A 
ATOM     41  C   UNL     1      -8.460  57.778  90.802  0.00  0.00    +0.005 A 
ENDROOT
BRANCH  20  21
ATOM     21  C   UNL     1      -9.368  60.087  89.917  0.00  0.00    +0.265 C 
ATOM     22  N   UNL     1      -9.727  61.518  90.218  0.00  0.00    -0.196 NA
ATOM     40  O   UNL     1      -9.484  59.671  88.844  0.00  0.00    -0.268 OA
BRANCH  22  23
ATOM     23  C   UNL     1     -10.205  62.344  89.203  0.00  0.00    +0.158 C 
ATOM     24  C   UNL     1     -11.494  63.037  89.693  0.00  0.00    +0.145 C 
ATOM     25  C   UNL     1     -11.261  64.360  89.699  0.00  0.00    +0.149 C 
ATOM     26  N   UNL     1      -9.710  64.618  89.349  0.00  0.00    -0.270 NA
ATOM     39  C   UNL     1      -9.163  63.465  88.949  0.00  0.00    +0.090 C 
BRANCH  24  27
ATOM     27  N   UNL     1     -12.706  62.750  88.743  0.00  0.00    -0.199 NA
ATOM     28  C   UNL     1     -13.728  61.784  89.102  0.00  0.00    +0.265 C 
ATOM     29  O   UNL     1     -13.672  61.198  90.106  0.00  0.00    -0.268 OA
BRANCH  28  30
ATOM     30  C   UNL     1     -14.865  61.582  88.159  0.00  0.00    +0.055 A 
ATOM     31  C   UNL     1     -16.010  60.834  88.545  0.00  0.00    +0.006 A 
ATOM     32  C   UNL     1     -17.080  60.671  87.646  0.00  0.00    +0.021 A 
ATOM     33  C   UNL     1     -17.008  61.276  86.337  0.00  0.00    +0.104 A 
ATOM     34  C   UNL     1     -15.875  62.018  85.959  0.00  0.00    +0.041 A 
ATOM     35  C   UNL     1     -16.141  62.463  84.606  0.00  0.00    +0.124 A 
ATOM     36  N   UNL     1     -17.348  61.996  84.241  0.00  0.00    -0.146 NA
ATOM     37  N   UNL     1     -17.867  61.287  85.282  0.00  0.00    -0.148 NA
ATOM     38  C   UNL     1     -14.798  62.183  86.869  0.00  0.00    +0.008 A 
ENDBRANCH  28  30
ENDBRANCH  24  27
ENDBRANCH  22  23
ENDBRANCH  20  21
BRANCH   2   3
ATOM      3  C   UNL     1      -7.299  56.584  94.275  0.00  0.00    +0.201 C 
ATOM     17  O   UNL     1      -6.743  55.544  93.985  0.00  0.00    -0.286 OA
BRANCH   3   4
ATOM      4  C   UNL     1      -7.441  56.974  95.737  0.00  0.00    +0.103 A 
ATOM      5  C   UNL     1      -8.387  56.358  96.511  0.00  0.00    +0.180 A 
ATOM      6  C   UNL     1      -8.519  56.701  97.837  0.00  0.00    +0.166 A 
ATOM      9  C   UNL     1      -7.679  57.676  98.384  0.00  0.00    +0.042 A 
ATOM     10  C   UNL     1      -6.714  58.302  97.596  0.00  0.00    +0.040 A 
ATOM     11  F   UNL     1      -9.185  55.412  95.947  0.00  0.00    -0.201 F 
ATOM     12  C   UNL     1      -6.586  57.968  96.298  0.00  0.00    +0.144 A 
BRANCH   6   7
ATOM      7  O   UNL     1      -9.469  56.088  98.642  0.00  0.00    -0.469 OA
ATOM      8  C   UNL     1     -10.895  56.345  98.268  0.00  0.00    +0.253 C 
ENDBRANCH   6   7
BRANCH  12  13
ATOM     13  O   UNL     1      -5.539  58.642  95.424  0.00  0.00    -0.475 OA
BRANCH  13  14
ATOM     14  C   UNL     1      -4.584  59.301  96.085  0.00  0.00    +0.205 C 
BRANCH  14  15
ATOM     15  C   UNL     1      -3.973  60.405  95.093  0.00  0.00    +0.047 C 
ATOM     16  C   UNL     1      -2.988  61.335  95.780  0.00  0.00    +0.004 C 
ENDBRANCH  14  15
ENDBRANCH  13  14
ENDBRANCH  12  13
ENDBRANCH   3   4
ENDBRANCH   2   3
TORSDOF 10
