REMARK  Name = 3QQL
REMARK  7 active torsions:
REMARK  status: ('A' for Active; 'I' for Inactive)
REMARK    1  A    between atoms: C_5  and  C_6
REMARK    2  A    between atoms: C_6  and  N_7
REMARK    3  A    between atoms: C_12  and  C_14
REMARK    4  A    between atoms: C_14  and  C_15
REMARK    5  A    between atoms: C_14  and  C_17
REMARK    6  A    between atoms: C_14  and  C_18
REMARK    7  A    between atoms: C_15  and  C_16
REMARK                            x       y       z     vdW  Elec       q    Type
REMARK                         _______ _______ _______ _____ _____    ______ ____
ROOT
ATOM      1  N   UNL     1      51.236 -66.388-102.039  0.00  0.00    -0.169 NA
ATOM      2  C   UNL     1      51.322 -65.127-101.586  0.00  0.00    +0.154 A 
ATOM      8  C   UNL     1      52.510 -65.073-100.707  0.00  0.00    +0.006 A 
ATOM      9  C   UNL     1      53.115 -63.893 -99.915  0.00  0.00    +0.043 C 
ATOM     10  C   UNL     1      53.952 -64.317 -98.614  0.00  0.00    -0.000 C 
ATOM     16  C   UNL     1      54.992 -65.464 -99.090  0.00  0.00    +0.010 C 
ATOM     17  C   UNL     1      54.337 -66.692 -99.884  0.00  0.00    +0.055 C 
ATOM     18  C   UNL     1      53.059 -66.338-100.695  0.00  0.00    +0.040 A 
ATOM     19  N   UNL     1      52.300 -67.162-101.493  0.00  0.00    -0.281 N 
ATOM     20  H   UNL     1      52.478 -68.202-101.672  0.00  0.00    +0.189 HD
ENDROOT
BRANCH  10  11
ATOM     11  C   UNL     1      54.586 -63.001 -97.826  0.00  0.00    -0.032 C 
ATOM     12  C   UNL     1      56.145 -63.056 -97.741  0.00  0.00    +0.011 C 
ATOM     13  C   UNL     1      54.223 -61.670 -98.591  0.00  0.00    +0.011 C 
BRANCH  11  14
ATOM     14  C   UNL     1      54.024 -62.941 -96.309  0.00  0.00    +0.003 C 
ATOM     15  C   UNL     1      54.412 -64.220 -95.669  0.00  0.00    +0.004 C 
ENDBRANCH  11  14
ENDBRANCH  10  11
BRANCH   2   3
ATOM      3  C   UNL     1      50.405 -64.010-101.908  0.00  0.00    +0.305 C 
ATOM      4  O   UNL     1      50.585 -62.887-101.406  0.00  0.00    -0.265 OA
BRANCH   3   5
ATOM      5  N   UNL     1      49.372 -64.214-102.751  0.00  0.00    -0.082 NA
ATOM      6  N   UNL     1      48.463 -63.158-103.093  0.00  0.00    -0.211 NA
ATOM      7  H   UNL     1      47.652 -63.347-103.765  0.00  0.00    +0.209 HD
ENDBRANCH   3   5
ENDBRANCH   2   3
TORSDOF 4
