REMARK  Name = 4RX9
REMARK  6 active torsions:
REMARK  status: ('A' for Active; 'I' for Inactive)
REMARK    1  A    between atoms: C_1  and  N_15
REMARK    2  A    between atoms: C_4  and  C_5
REMARK    3  A    between atoms: C_5  and  O_24
REMARK    4  A    between atoms: C_7  and  N_25
REMARK    5  A    between atoms: C_11  and  N_26
REMARK    6  A    between atoms: C_19  and  N_20
REMARK                            x       y       z     vdW  Elec       q    Type
REMARK                         _______ _______ _______ _____ _____    ______ ____
ROOT
ATOM      3  N   UNL     1       3.003   3.785  12.630  0.00  0.00    -0.309 N 
ATOM      4  H   UNL     1       3.675   4.585  12.401  0.00  0.00    +0.149 HD
ATOM      5  C   UNL     1       3.468   2.732  13.313  0.00  0.00    +0.217 A 
ATOM      6  N   UNL     1       2.695   1.652  13.501  0.00  0.00    -0.199 NA
ATOM      7  C   UNL     1       3.150   0.610  14.218  0.00  0.00    +0.140 A 
ATOM      8  N   UNL     1       2.419  -0.484  14.489  0.00  0.00    -0.299 N 
ATOM      9  H   UNL     1       2.958  -1.315  14.894  0.00  0.00    +0.154 HD
ATOM     23  C   UNL     1       4.430   0.685  14.733  0.00  0.00    +0.094 A 
ATOM     29  C   UNL     1       5.217   1.822  14.526  0.00  0.00    +0.131 A 
ATOM     30  N   UNL     1       4.698   2.807  13.817  0.00  0.00    -0.222 NA
ENDROOT
BRANCH   3   2
ATOM      1  C   UNL     1       0.718   4.489  13.290  0.00  0.00    +0.071 C 
ATOM      2  C   UNL     1       1.634   3.885  12.190  0.00  0.00    +0.090 C 
ATOM     31  C   UNL     1       1.564   4.704  10.886  0.00  0.00    +0.024 C 
ATOM     32  C   UNL     1       0.128   4.687  10.337  0.00  0.00    +0.002 C 
ATOM     33  C   UNL     1      -0.752   5.388  11.393  0.00  0.00    +0.002 C 
ATOM     37  C   UNL     1      -0.713   4.644  12.747  0.00  0.00    +0.020 C 
BRANCH   1  34
ATOM     34  N   UNL     1       1.207   5.825  13.660  0.00  0.00    -0.326 NA
ATOM     35  H   UNL     1       1.205   6.458  12.797  0.00  0.00    +0.118 HD
ATOM     36  H   UNL     1       0.569   6.244  14.410  0.00  0.00    +0.118 HD
ENDBRANCH   1  34
ENDBRANCH   3   2
BRANCH   8  10
ATOM     10  C   UNL     1       1.124  -0.666  14.321  0.00  0.00    +0.035 A 
ATOM     11  C   UNL     1       0.336   0.091  13.462  0.00  0.00    +0.052 A 
ATOM     12  C   UNL     1      -1.032  -0.189  13.320  0.00  0.00    +0.084 A 
ATOM     20  C   UNL     1      -1.555  -1.247  14.042  0.00  0.00    +0.029 A 
ATOM     21  C   UNL     1      -0.759  -2.019  14.863  0.00  0.00    +0.004 A 
ATOM     22  C   UNL     1       0.563  -1.705  15.013  0.00  0.00    +0.023 A 
BRANCH  12  13
ATOM     13  N   UNL     1      -1.907   0.517  12.583  0.00  0.00    -0.196 N 
ATOM     14  N   UNL     1      -1.657   1.447  11.678  0.00  0.00    -0.284 N 
ATOM     15  H   UNL     1      -0.681   1.752  11.363  0.00  0.00    +0.188 HD
ATOM     16  C   UNL     1      -2.733   1.918  11.245  0.00  0.00    +0.122 A 
ATOM     17  C   UNL     1      -3.808   1.228  11.957  0.00  0.00    +0.122 A 
ATOM     18  N   UNL     1      -3.243   0.446  12.736  0.00  0.00    -0.284 N 
ATOM     19  H   UNL     1      -3.745  -0.194  13.431  0.00  0.00    +0.188 HD
ENDBRANCH  12  13
ENDBRANCH   8  10
BRANCH  23  24
ATOM     24  C   UNL     1       4.971  -0.429  15.551  0.00  0.00    +0.217 C 
ATOM     27  N   UNL     1       6.203  -0.331  15.886  0.00  0.00    -0.267 NA
ATOM     28  H   UNL     1       6.660  -1.098  16.476  0.00  0.00    +0.190 HD
BRANCH  24  25
ATOM     25  O   UNL     1       4.225  -1.282  15.902  0.00  0.00    -0.492 OA
ATOM     26  H   UNL     1       3.463  -0.861  16.489  0.00  0.00    +0.294 HD
ENDBRANCH  24  25
ENDBRANCH  23  24
TORSDOF 6
