REMARK  Name = 2ojj_ligand
REMARK  7 active torsions:
REMARK  status: ('A' for Active; 'I' for Inactive)
REMARK    1  A    between atoms: C14_2  and  C10_23
REMARK    2  A    between atoms: C19_5  and  C20_6
REMARK    3  A    between atoms: C27_12  and  C3_17
REMARK    4  A    between atoms: O1_15  and  C2_16
REMARK    5  A    between atoms: C2_16  and  C3_17
REMARK    6  A    between atoms: C3_17  and  N5_18
REMARK    7  A    between atoms: C6_19  and  C8_21
REMARK                            x       y       z     vdW  Elec       q    Type
REMARK                         _______ _______ _______ _____ _____    ______ ____
ROOT
ATOM      1  C   UNL     1     -15.365  10.791  38.908  0.00  0.00    +0.140 A 
ATOM      2  N   UNL     1     -14.058  10.857  38.593  0.00  0.00    -0.272 N 
ATOM      3  H   UNL     1     -13.585  10.283  37.880  0.00  0.00    +0.239 HD
ATOM      4  CA  UNL     1     -13.456  11.812  39.373  0.00  0.00    +0.129 A 
ATOM      5  C   UNL     1     -14.412  12.346  40.191  0.00  0.00    -0.006 A 
ATOM     22  C   UNL     1     -15.637  11.698  39.896  0.00  0.00    +0.010 A 
ENDROOT
BRANCH  22  23
ATOM     23  C   UNL     1     -17.004  11.920  40.507  0.00  0.00    +0.083 A 
ATOM     24  N   UNL     1     -17.995  11.055  40.382  0.00  0.00    -0.219 N 
ATOM     25  H   UNL     1     -17.943  10.162  39.872  0.00  0.00    +0.253 HD
ATOM     26  N   UNL     1     -19.121  11.537  41.046  0.00  0.00    -0.223 NA
ATOM     27  C   UNL     1     -18.821  12.725  41.593  0.00  0.00    +0.068 A 
ATOM     28  C   UNL     1     -17.519  13.033  41.301  0.00  0.00    -0.000 A 
BRANCH  28  29
ATOM     29  C   UNL     1     -16.832  14.301  41.759  0.00  0.00    -0.039 A 
ATOM     30  C   UNL     1     -16.142  15.149  40.842  0.00  0.00    +0.007 A 
ATOM     31  C   UNL     1     -15.510  16.322  41.298  0.00  0.00    +0.034 A 
ATOM     32 CL   UNL     1     -14.663  17.336  40.177  0.00  0.00    -0.072 Cl
ATOM     33  C   UNL     1     -15.562  16.671  42.665  0.00  0.00    +0.003 A 
ATOM     34  C   UNL     1     -16.243  15.846  43.584  0.00  0.00    -0.008 A 
ATOM     35  C   UNL     1     -16.876  14.668  43.141  0.00  0.00    -0.008 A 
ENDBRANCH  28  29
ENDBRANCH  22  23
BRANCH   4   6
ATOM      6  C   UNL     1     -12.037  12.194  39.323  0.00  0.00    +0.220 C 
ATOM      7  O   UNL     1     -11.267  11.563  38.615  0.00  0.00    -0.391 OA
ATOM      8  N   UNL     1     -11.605  13.271  40.036  0.00  0.00    -0.271 N 
ATOM      9  H   UNL     1     -12.259  13.766  40.609  0.00  0.00    +0.187 HD
BRANCH   8  10
ATOM     10  CA  UNL     1     -10.201  13.733  39.991  0.00  0.00    +0.169 C 
BRANCH  10  14
ATOM     14  C   UNL     1     -10.142  14.950  39.073  0.00  0.00    -0.019 A 
ATOM     15  C   UNL     1      -9.181  15.017  38.039  0.00  0.00    +0.010 A 
ATOM     16  C   UNL     1      -9.135  16.146  37.182  0.00  0.00    +0.067 A 
ATOM     17 CL   UNL     1      -7.944  16.214  35.909  0.00  0.00    -0.074 Cl
ATOM     18  C   UNL     1     -10.062  17.212  37.365  0.00  0.00    +0.139 A 
ATOM     19  F   UNL     1     -10.038  18.298  36.559  0.00  0.00    -0.188 F 
ATOM     20  C   UNL     1     -11.019  17.141  38.398  0.00  0.00    +0.025 A 
ATOM     21  C   UNL     1     -11.062  16.018  39.247  0.00  0.00    -0.005 A 
ENDBRANCH  10  14
BRANCH  10  11
ATOM     11  C   UNL     1      -9.688  14.093  41.399  0.00  0.00    +0.197 C 
BRANCH  11  12
ATOM     12  O   UNL     1     -10.757  14.048  42.349  0.00  0.00    -0.391 OA
ATOM     13  H   UNL     1     -10.424  14.272  43.210  0.00  0.00    +0.210 HD
ENDBRANCH  11  12
ENDBRANCH  10  11
ENDBRANCH   8  10
ENDBRANCH   4   6
TORSDOF 7
