REMARK  Name = 3O50
REMARK  7 active torsions:
REMARK  status: ('A' for Active; 'I' for Inactive)
REMARK    1  A    between atoms: O_4  and  C_25
REMARK    2  A    between atoms: O_4  and  C_27
REMARK    3  A    between atoms: C_9  and  C_16
REMARK    4  A    between atoms: N_13  and  C_30
REMARK    5  A    between atoms: C_14  and  C_17
REMARK    6  A    between atoms: C_18  and  C_24
REMARK    7  A    between atoms: C_28  and  C_33
REMARK                            x       y       z     vdW  Elec       q    Type
REMARK                         _______ _______ _______ _____ _____    ______ ____
ROOT
ATOM      7  C   UNL     1      39.096  68.822  21.504  0.00  0.00    +0.034 A 
ATOM      8  C   UNL     1      38.293  69.972  21.110  0.00  0.00    +0.027 A 
ATOM      9  C   UNL     1      36.923  70.025  21.377  0.00  0.00    +0.048 A 
ATOM     10  C   UNL     1      36.384  68.883  22.048  0.00  0.00    +0.133 A 
ATOM     11  C   UNL     1      37.174  67.713  22.448  0.00  0.00    -0.006 A 
ATOM     12  C   UNL     1      36.619  66.556  23.125  0.00  0.00    +0.048 C 
ATOM     26  C   UNL     1      38.563  67.677  22.172  0.00  0.00    +0.030 A 
ENDROOT
BRANCH   7   5
ATOM      4  C   UNL     1      41.213  70.002  21.361  0.00  0.00    +0.248 C 
ATOM      5  N   UNL     1      40.433  68.845  21.251  0.00  0.00    -0.281 N 
ATOM      6  H   UNL     1      40.911  67.935  20.954  0.00  0.00    +0.155 HD
ATOM     27  O   UNL     1      40.800  71.144  21.616  0.00  0.00    -0.270 OA
BRANCH   4   3
ATOM      1  C   UNL     1      44.247  68.208  20.015  0.00  0.00    +0.001 A 
ATOM      2  C   UNL     1      42.909  68.637  20.231  0.00  0.00    +0.013 A 
ATOM      3  C   UNL     1      42.602  69.690  21.168  0.00  0.00    +0.038 A 
ATOM     28  C   UNL     1      43.635  70.376  21.936  0.00  0.00    +0.025 A 
ATOM     29  C   UNL     1      45.021  69.950  21.737  0.00  0.00    +0.056 A 
ATOM     34  C   UNL     1      45.281  68.881  20.782  0.00  0.00    +0.012 A 
BRANCH  29  30
ATOM     30  C   UNL     1      46.181  70.582  22.539  0.00  0.00    +0.417 C 
ATOM     31  F   UNL     1      46.021  71.895  22.510  0.00  0.00    -0.166 F 
ATOM     32  F   UNL     1      46.119  70.120  23.755  0.00  0.00    -0.166 F 
ATOM     33  F   UNL     1      47.411  70.274  22.138  0.00  0.00    -0.166 F 
ENDBRANCH  29  30
ENDBRANCH   4   3
ENDBRANCH   7   5
BRANCH  10  13
ATOM     13  O   UNL     1      35.028  69.001  22.275  0.00  0.00    -0.437 OA
BRANCH  13  14
ATOM     14  C   UNL     1      34.495  69.262  23.542  0.00  0.00    +0.230 A 
ATOM     15  C   UNL     1      33.084  69.324  23.735  0.00  0.00    +0.062 A 
ATOM     16  C   UNL     1      32.670  69.582  25.089  0.00  0.00    +0.017 A 
ATOM     17  C   UNL     1      33.601  69.760  26.157  0.00  0.00    +0.021 A 
ATOM     18  C   UNL     1      35.008  69.689  25.907  0.00  0.00    +0.114 A 
ATOM     25  N   UNL     1      35.353  69.445  24.616  0.00  0.00    -0.220 NA
BRANCH  15  19
ATOM     19  C   UNL     1      32.079  69.086  22.657  0.00  0.00    +0.079 A 
ATOM     20  C   UNL     1      32.401  69.221  21.254  0.00  0.00    +0.048 A 
ATOM     21  C   UNL     1      31.360  68.898  20.372  0.00  0.00    +0.114 A 
ATOM     22  N   UNL     1      30.152  68.493  20.824  0.00  0.00    -0.244 NA
ATOM     23  C   UNL     1      29.818  68.360  22.121  0.00  0.00    +0.221 A 
ATOM     24  N   UNL     1      30.776  68.657  23.032  0.00  0.00    -0.235 NA
ENDBRANCH  15  19
ENDBRANCH  13  14
ENDBRANCH  10  13
TORSDOF 6
