REMARK  Name = 3VS7
REMARK  3 active torsions:
REMARK  status: ('A' for Active; 'I' for Inactive)
REMARK    1  A    between atoms: C_5  and  N_6
REMARK    2  A    between atoms: C_12  and  N_13
REMARK    3  A    between atoms: C_15  and  C_16
REMARK                            x       y       z     vdW  Elec       q    Type
REMARK                         _______ _______ _______ _____ _____    ______ ____
ROOT
ATOM      3  N   UNL     1     -43.083  -1.935  16.440  0.00  0.00    -0.239 N 
ATOM      4  C   UNL     1     -41.862  -2.452  16.365  0.00  0.00    +0.164 A 
ATOM      5  C   UNL     1     -40.975  -1.469  16.789  0.00  0.00    +0.086 A 
ATOM      6  C   UNL     1     -41.730  -0.334  17.126  0.00  0.00    +0.107 A 
ATOM     16  C   UNL     1     -39.616  -1.770  16.816  0.00  0.00    +0.131 A 
ATOM     20  N   UNL     1     -39.206  -2.995  16.428  0.00  0.00    -0.220 NA
ATOM     21  C   UNL     1     -40.096  -3.912  16.027  0.00  0.00    +0.225 A 
ATOM     22  N   UNL     1     -41.410  -3.664  15.991  0.00  0.00    -0.216 NA
ATOM     23  N   UNL     1     -43.032  -0.619  16.893  0.00  0.00    -0.168 NA
ENDROOT
BRANCH   6   7
ATOM      7  C   UNL     1     -41.265   0.993  17.637  0.00  0.00    +0.022 A 
ATOM      8  C   UNL     1     -41.798   1.497  18.825  0.00  0.00    +0.123 A 
ATOM      9  N   UNL     1     -41.406   2.679  19.308  0.00  0.00    -0.235 NA
ATOM     10  C   UNL     1     -40.480   3.382  18.622  0.00  0.00    +0.160 A 
ATOM     11  N   UNL     1     -39.939   4.580  18.904  0.00  0.00    -0.236 NA
ATOM     12  C   UNL     1     -39.047   4.905  17.933  0.00  0.00    +0.114 A 
ATOM     13  C   UNL     1     -38.978   3.903  16.963  0.00  0.00    +0.031 A 
ATOM     14  C   UNL     1     -39.919   2.947  17.456  0.00  0.00    +0.021 A 
ATOM     15  C   UNL     1     -40.312   1.719  16.933  0.00  0.00    +0.023 A 
ENDBRANCH   6   7
BRANCH   3   2
ATOM      1  C   UNL     1     -45.523  -1.541  16.667  0.00  0.00    +0.035 C 
ATOM      2  C   UNL     1     -44.438  -2.455  16.111  0.00  0.00    +0.132 C 
ATOM     24  C   UNL     1     -44.664  -3.828  16.725  0.00  0.00    -0.005 C 
ATOM     25  C   UNL     1     -46.081  -3.860  17.281  0.00  0.00    -0.029 C 
ATOM     26  C   UNL     1     -46.569  -2.417  17.349  0.00  0.00    +0.029 C 
ENDBRANCH   3   2
BRANCH  16  17
ATOM     17  N   UNL     1     -38.698  -0.860  17.220  0.00  0.00    -0.343 N 
ATOM     18  H   UNL     1     -39.012   0.115  17.530  0.00  0.00    +0.144 HD
ATOM     19  H   UNL     1     -37.659  -1.116  17.229  0.00  0.00    +0.144 HD
ENDBRANCH  16  17
TORSDOF 3
