REMARK  Name = 3mvl_ligand
REMARK  9 active torsions:
REMARK  status: ('A' for Active; 'I' for Inactive)
REMARK    1  A    between atoms: C7_7  and  C16_16
REMARK    2  A    between atoms: C8_8  and  C10_10
REMARK    3  A    between atoms: N12_12  and  C13_13
REMARK    4  A    between atoms: C13_13  and  C14_14
REMARK    5  A    between atoms: C14_14  and  C15_15
REMARK    6  A    between atoms: N17_17  and  C18_18
REMARK    7  A    between atoms: C19_19  and  C30_30
REMARK    8  A    between atoms: C22_22  and  C24_24
REMARK    9  A    between atoms: N26_26  and  C27_27
REMARK                            x       y       z     vdW  Elec       q    Type
REMARK                         _______ _______ _______ _____ _____    ______ ____
ROOT
ATOM      1  N   UNL     1      -1.775  -1.940  37.331  0.00  0.00    -0.165 N 
ATOM      2  C   UNL     1      -1.299  -2.996  38.200  0.00  0.00    +0.163 A 
ATOM      3  C   UNL     1      -1.545  -4.166  37.571  0.00  0.00    +0.043 A 
ATOM     11  C   UNL     1      -2.202  -3.902  36.248  0.00  0.00    -0.021 A 
ATOM     12  C   UNL     1      -2.607  -5.005  35.301  0.00  0.00    +0.059 C 
ATOM     13  C   UNL     1      -2.325  -2.567  36.136  0.00  0.00    +0.154 A 
ATOM     14  C   UNL     1      -2.877  -1.630  35.099  0.00  0.00    +0.167 A 
ATOM     15  N   UNL     1      -3.447  -1.954  33.895  0.00  0.00    -0.248 N 
ATOM     16  H   UNL     1      -3.748  -2.914  33.728  0.00  0.00    +0.219 HD
ATOM     31  N   UNL     1      -2.801  -0.278  35.396  0.00  0.00    -0.278 NA
ATOM     32  C   UNL     1      -2.250   0.180  36.575  0.00  0.00    +0.179 A 
ATOM     33  N   UNL     1      -1.750  -0.689  37.515  0.00  0.00    -0.169 NA
ENDROOT
BRANCH  15  17
ATOM     17  C   UNL     1      -3.621  -1.013  32.909  0.00  0.00    +0.075 A 
ATOM     18  C   UNL     1      -2.482  -0.561  32.180  0.00  0.00    +0.033 A 
ATOM     19  C   UNL     1      -2.575   0.400  31.154  0.00  0.00    +0.034 A 
ATOM     27  C   UNL     1      -3.865   0.927  30.847  0.00  0.00    -0.004 A 
ATOM     28  C   UNL     1      -5.017   0.491  31.561  0.00  0.00    -0.009 A 
ATOM     29  C   UNL     1      -4.918  -0.478  32.595  0.00  0.00    -0.016 A 
ATOM     30  C   UNL     1      -6.157  -0.925  33.337  0.00  0.00    +0.083 C 
BRANCH  19  20
ATOM     20  C   UNL     1      -1.306   0.790  30.466  0.00  0.00    +0.198 C 
ATOM     21  N   UNL     1      -1.326   1.830  29.565  0.00  0.00    -0.284 N 
ATOM     22  H   UNL     1      -1.850   2.683  29.761  0.00  0.00    +0.185 HD
ATOM     26  O   UNL     1      -0.255   0.186  30.705  0.00  0.00    -0.388 OA
BRANCH  21  23
ATOM     23  C   UNL     1      -0.585   1.681  28.336  0.00  0.00    +0.097 C 
ATOM     24  C   UNL     1      -0.781   2.704  27.337  0.00  0.00    +0.030 C 
ATOM     25  C   UNL     1       0.098   3.022  28.499  0.00  0.00    +0.030 C 
ENDBRANCH  21  23
ENDBRANCH  19  20
ENDBRANCH  15  17
BRANCH   3   4
ATOM      4  C   UNL     1      -1.170  -5.488  38.203  0.00  0.00    +0.180 C 
ATOM      5  N   UNL     1      -1.047  -5.490  39.561  0.00  0.00    -0.291 N 
ATOM      6  H   UNL     1      -1.702  -4.946  40.122  0.00  0.00    +0.184 HD
ATOM     10  O   UNL     1      -0.990  -6.492  37.513  0.00  0.00    -0.399 OA
BRANCH   5   7
ATOM      7  C   UNL     1       0.007  -6.258  40.233  0.00  0.00    +0.133 C 
BRANCH   7   8
ATOM      8  C   UNL     1      -0.260  -6.314  41.739  0.00  0.00    +0.021 C 
ATOM      9  C   UNL     1      -1.440  -7.221  42.087  0.00  0.00    +0.005 C 
ENDBRANCH   7   8
ENDBRANCH   5   7
ENDBRANCH   3   4
TORSDOF 6
