REMARK  Name = 4bcj_ligand
REMARK  6 active torsions:
REMARK  status: ('A' for Active; 'I' for Inactive)
REMARK    1  A    between atoms: C01_1  and  N02_2
REMARK    2  A    between atoms: C05_5  and  C06_6
REMARK    3  A    between atoms: C07_7  and  C08_8
REMARK    4  A    between atoms: N11_11  and  C12_12
REMARK    5  A    between atoms: C14_14  and  O15_15
REMARK    6  A    between atoms: C21_21  and  C22_22
REMARK                            x       y       z     vdW  Elec       q    Type
REMARK                         _______ _______ _______ _____ _____    ______ ____
ROOT
ATOM      7  C   UNL     1      54.306 -15.136 -12.772  0.00  0.00    +0.069 A 
ATOM      8  C   UNL     1      54.105 -13.699 -12.713  0.00  0.00    +0.120 A 
ATOM     11  C   UNL     1      55.224 -12.853 -12.701  0.00  0.00    +0.132 A 
ATOM     12  N   UNL     1      56.465 -13.406 -12.714  0.00  0.00    -0.253 NA
ATOM     13  C   UNL     1      56.596 -14.781 -12.730  0.00  0.00    +0.203 A 
ATOM     14  N   UNL     1      57.933 -15.348 -12.761  0.00  0.00    -0.242 N 
ATOM     15  H   UNL     1      58.706 -14.785 -13.144  0.00  0.00    +0.220 HD
ATOM     24  N   UNL     1      55.546 -15.646 -12.749  0.00  0.00    -0.258 NA
ENDROOT
BRANCH   7   6
ATOM      1  C   UNL     1      51.198 -20.292 -12.362  0.00  0.00    +0.175 C 
ATOM      2  N   UNL     1      50.686 -19.009 -11.958  0.00  0.00    -0.280 N 
ATOM      3  H   UNL     1      49.846 -18.944 -11.366  0.00  0.00    +0.195 HD
ATOM      4  C   UNL     1      51.350 -17.850 -12.383  0.00  0.00    +0.193 A 
ATOM      5  S   UNL     1      52.950 -17.517 -12.033  0.00  0.00    +0.021 S 
ATOM      6  C   UNL     1      53.098 -16.033 -12.768  0.00  0.00    +0.069 A 
ATOM     25  C   UNL     1      51.828 -15.817 -13.353  0.00  0.00    +0.011 A 
ATOM     26  C   UNL     1      51.501 -14.589 -14.170  0.00  0.00    +0.107 C 
ATOM     27  N   UNL     1      50.880 -16.801 -13.136  0.00  0.00    -0.286 NA
ENDBRANCH   7   6
BRANCH  14  16
ATOM     16  C   UNL     1      58.214 -16.702 -12.262  0.00  0.00    +0.058 A 
ATOM     17  C   UNL     1      57.256 -17.732 -12.312  0.00  0.00    -0.004 A 
ATOM     18  C   UNL     1      57.563 -19.039 -11.817  0.00  0.00    -0.023 A 
ATOM     19  C   UNL     1      58.813 -19.290 -11.286  0.00  0.00    +0.001 A 
ATOM     20  C   UNL     1      59.785 -18.227 -11.242  0.00  0.00    +0.079 A 
ATOM     23  C   UNL     1      59.488 -16.957 -11.736  0.00  0.00    +0.036 A 
BRANCH  20  21
ATOM     21  O   UNL     1      61.053 -18.441 -10.701  0.00  0.00    -0.336 OA
ATOM     22  H   UNL     1      61.122 -19.341 -10.404  0.00  0.00    +0.248 HD
ENDBRANCH  20  21
ENDBRANCH  14  16
BRANCH   8   9
ATOM      9  C   UNL     1      52.688 -13.147 -12.619  0.00  0.00    +0.089 C 
ATOM     10  N   UNL     1      51.621 -12.732 -12.606  0.00  0.00    -0.343 NA
ENDBRANCH   8   9
TORSDOF 4
