REMARK  Name = GVK
REMARK  3 active torsions:
REMARK  status: ('A' for Active; 'I' for Inactive)
REMARK    1  A    between atoms: C5_5  and  C8_8
REMARK    2  A    between atoms: C8_8  and  C16_14
REMARK    3  A    between atoms: C19_17  and  C22_20
REMARK                            x       y       z     vdW  Elec       q    Type
REMARK                         _______ _______ _______ _____ _____    ______ ____
ROOT
ATOM     11  C   UNL     1      10.002   9.525   3.430  0.00  0.00    -0.019 A 
ATOM     12  C   UNL     1       9.361  10.019   4.565  0.00  0.00    -0.004 A 
ATOM     13  C   UNL     1       7.981  10.046   4.644  0.00  0.00    +0.001 A 
ATOM     14  C   UNL     1       7.200   9.591   3.585  0.00  0.00    +0.019 A 
ATOM     24  C   UNL     1       7.840   9.081   2.462  0.00  0.00    +0.001 A 
ATOM     25  C   UNL     1       9.218   9.059   2.381  0.00  0.00    -0.004 A 
ENDROOT
BRANCH  14  15
ATOM     15  C   UNL     1       5.712   9.584   3.679  0.00  0.00    +0.104 A 
ATOM     16  N   UNL     1       5.186   9.554   4.917  0.00  0.00    -0.222 NA
ATOM     17  C   UNL     1       3.854   9.529   5.033  0.00  0.00    +0.200 A 
ATOM     18  N   UNL     1       2.932   9.485   4.069  0.00  0.00    -0.203 NA
ATOM     19  C   UNL     1       3.488   9.484   2.851  0.00  0.00    +0.185 A 
ATOM     20  N   UNL     1       2.864   9.448   1.641  0.00  0.00    -0.203 NA
ATOM     21  C   UNL     1       3.815   9.477   0.679  0.00  0.00    +0.200 A 
ATOM     22  N   UNL     1       5.051   9.525   1.189  0.00  0.00    -0.219 NA
ATOM     23  C   UNL     1       4.846   9.527   2.579  0.00  0.00    +0.136 A 
ENDBRANCH  14  15
BRANCH  11   6
ATOM      6  C   UNL     1      11.543   9.467   3.311  0.00  0.00    +0.041 C 
ATOM      7  C   UNL     1      12.290   9.705   4.634  0.00  0.00    +0.027 C 
ATOM      8  C   UNL     1      12.144   8.560   5.616  0.00  0.00    +0.089 C 
ATOM      9  N   UNL     1      12.626   7.294   4.995  0.00  0.00    -0.218 NA
ATOM     10  C   UNL     1      11.819   6.981   3.784  0.00  0.00    +0.089 C 
ATOM     26  C   UNL     1      11.994   8.094   2.776  0.00  0.00    +0.027 C 
BRANCH   6   5
ATOM      1 CL   UNL     1      13.568  13.715  -0.455  0.00  0.00    -0.082 Cl
ATOM      2  C   UNL     1      12.993  12.495   0.622  0.00  0.00    +0.058 A 
ATOM      3  C   UNL     1      12.530  12.844   1.877  0.00  0.00    +0.011 A 
ATOM      4  C   UNL     1      12.064  11.874   2.734  0.00  0.00    -0.003 A 
ATOM      5  C   UNL     1      12.041  10.542   2.341  0.00  0.00    -0.019 A 
ATOM     27  C   UNL     1      12.518  10.200   1.079  0.00  0.00    -0.003 A 
ATOM     28  C   UNL     1      12.990  11.171   0.227  0.00  0.00    +0.011 A 
ENDBRANCH   6   5
ENDBRANCH  11   6
TORSDOF 3
