REMARK  Name = 5C8M
REMARK  7 active torsions:
REMARK  status: ('A' for Active; 'I' for Inactive)
REMARK    1  A    between atoms: C_3  and  C_7
REMARK    2  A    between atoms: C_3  and  C_8
REMARK    3  A    between atoms: C_3  and  N_13
REMARK    4  A    between atoms: C_10  and  C_11
REMARK    5  A    between atoms: N_14  and  C_15
REMARK    6  A    between atoms: C_24  and  S_27
REMARK    7  A    between atoms: S_27  and  C_30
REMARK                            x       y       z     vdW  Elec       q    Type
REMARK                         _______ _______ _______ _____ _____    ______ ____
ROOT
ATOM     14  C   UNL     1     -56.692   1.217 -26.048  0.00  0.00    +0.129 A 
ATOM     15  N   UNL     1     -55.784   0.266 -26.291  0.00  0.00    -0.199 NA
ATOM     16  C   UNL     1     -55.874  -0.547 -27.348  0.00  0.00    +0.220 A 
ATOM     17  N   UNL     1     -54.939  -1.570 -27.534  0.00  0.00    -0.299 N 
ATOM     18  C   UNL     1     -53.886  -1.592 -26.477  0.00  0.00    +0.110 C 
ATOM     19  C   UNL     1     -52.657  -2.456 -26.795  0.00  0.00    +0.045 C 
ATOM     20  C   UNL     1     -52.243  -2.158 -28.243  0.00  0.00    +0.133 C 
ATOM     25  C   UNL     1     -53.344  -2.621 -29.200  0.00  0.00    +0.045 C 
ATOM     26  C   UNL     1     -54.525  -1.673 -28.960  0.00  0.00    +0.110 C 
ATOM     27  N   UNL     1     -56.887  -0.403 -28.210  0.00  0.00    -0.223 NA
ATOM     28  C   UNL     1     -57.817   0.537 -28.054  0.00  0.00    +0.118 A 
ATOM     29  C   UNL     1     -57.753   1.375 -26.954  0.00  0.00    +0.063 A 
ENDROOT
BRANCH  14  12
ATOM      1  C   UNL     1     -54.713   1.501 -21.273  0.00  0.00    +0.107 A 
ATOM      2  N   UNL     1     -53.964   1.139 -20.202  0.00  0.00    -0.231 NA
ATOM      3  C   UNL     1     -53.151   0.176 -20.524  0.00  0.00    +0.108 A 
ATOM      4  N   UNL     1     -53.330  -0.165 -21.855  0.00  0.00    -0.325 N 
ATOM      8  C   UNL     1     -52.187  -0.406 -19.512  0.00  0.00    +0.086 C 
ATOM      9  C   UNL     1     -54.318   0.669 -22.348  0.00  0.00    +0.074 A 
ATOM     10  C   UNL     1     -54.947   0.842 -23.588  0.00  0.00    +0.071 A 
ATOM     11  C   UNL     1     -55.948   1.812 -23.727  0.00  0.00    +0.126 A 
ATOM     12  N   UNL     1     -56.609   2.060 -24.942  0.00  0.00    -0.284 N 
ATOM     13  H   UNL     1     -57.105   3.004 -25.027  0.00  0.00    +0.155 HD
ATOM     30  N   UNL     1     -56.271   2.586 -22.687  0.00  0.00    -0.238 NA
ATOM     31  C   UNL     1     -55.704   2.467 -21.495  0.00  0.00    +0.142 A 
BRANCH   4   5
ATOM      5  C   UNL     1     -52.659  -1.182 -22.695  0.00  0.00    +0.083 C 
ATOM      6  C   UNL     1     -53.001  -2.625 -22.312  0.00  0.00    +0.030 C 
ATOM      7  C   UNL     1     -51.162  -0.940 -22.918  0.00  0.00    +0.030 C 
ENDBRANCH   4   5
ENDBRANCH  14  12
BRANCH  20  21
ATOM     21  S   UNL     1     -50.556  -2.608 -28.753  0.00  0.00    -0.031 S 
ATOM     22  C   UNL     1     -49.498  -1.177 -28.376  0.00  0.00    +0.194 C 
ATOM     23  O   UNL     1     -50.600  -2.789 -30.162  0.00  0.00    -0.174 OA
ATOM     24  O   UNL     1     -50.100  -3.688 -27.947  0.00  0.00    -0.174 OA
ENDBRANCH  20  21
TORSDOF 3
