REMARK  Name = 201
REMARK  3 active torsions:
REMARK  status: ('A' for Active; 'I' for Inactive)
REMARK    1  A    between atoms: C26_11  and  C21_16
REMARK    2  A    between atoms: C24_13  and  C23_14
REMARK    3  A    between atoms: C23_14  and  C22_15
REMARK                            x       y       z     vdW  Elec       q    Type
REMARK                         _______ _______ _______ _____ _____    ______ ____
ROOT
ATOM      1  C   UNL     1       5.000   7.727  -0.916  0.00  0.00    +0.031 C 
ATOM      2  C   UNL     1       5.000   7.087   0.414  0.00  0.00    -0.026 C 
ATOM      3  C   UNL     1       4.000   6.739   1.201  0.00  0.00    -0.005 C 
ENDROOT
TORSDOF 0
