REMARK  Name = 5EI2
REMARK  7 active torsions:
REMARK  status: ('A' for Active; 'I' for Inactive)
REMARK    1  A    between atoms: C_1  and  N_26
REMARK    2  A    between atoms: C_3  and  O_6
REMARK    3  A    between atoms: C_4  and  O_10
REMARK    4  A    between atoms: C_5  and  O_6
REMARK    5  A    between atoms: C_9  and  O_10
REMARK    6  A    between atoms: C_11  and  N_12
REMARK    7  A    between atoms: C_20  and  C_23
REMARK                            x       y       z     vdW  Elec       q    Type
REMARK                         _______ _______ _______ _____ _____    ______ ____
ROOT
ATOM      6  C   UNL     1       1.801 -34.551 -12.536  0.00  0.00    +0.098 A 
ATOM      7  C   UNL     1       1.124 -33.720 -11.543  0.00  0.00    +0.077 A 
ATOM      8  N   UNL     1       0.351 -34.233 -10.546  0.00  0.00    -0.322 N 
ATOM      9  H   UNL     1       0.210 -35.287 -10.424  0.00  0.00    +0.169 HD
ATOM     10  C   UNL     1      -0.224 -33.338  -9.724  0.00  0.00    +0.229 A 
ATOM     11  N   UNL     1      -0.122 -32.000  -9.786  0.00  0.00    -0.220 NA
ATOM     12  C   UNL     1       0.634 -31.529 -10.753  0.00  0.00    +0.124 A 
ATOM     13  N   UNL     1      -0.956 -33.851  -8.703  0.00  0.00    -0.209 NA
ATOM     24  C   UNL     1       1.314 -32.327 -11.698  0.00  0.00    +0.020 A 
ATOM     25  C   UNL     1       2.110 -31.840 -12.759  0.00  0.00    +0.031 A 
ATOM     26  C   UNL     1       2.683 -32.725 -13.615  0.00  0.00    +0.112 A 
ATOM     27  N   UNL     1       2.542 -34.054 -13.518  0.00  0.00    -0.253 NA
ENDROOT
BRANCH   6   4
ATOM      1  C   UNL     1       1.072 -39.280 -11.160  0.00  0.00    +0.172 C 
ATOM      2  N   UNL     1       1.373 -38.074 -11.919  0.00  0.00    -0.274 N 
ATOM      3  C   UNL     1       1.353 -36.809 -11.482  0.00  0.00    +0.118 A 
ATOM      4  C   UNL     1       1.701 -35.995 -12.532  0.00  0.00    +0.040 A 
ATOM      5  C   UNL     1       1.923 -36.883 -13.599  0.00  0.00    +0.144 A 
ATOM     28  N   UNL     1       1.729 -38.143 -13.250  0.00  0.00    -0.179 NA
ENDBRANCH   6   4
BRANCH  13  14
ATOM     14  C   UNL     1      -1.139 -35.199  -8.433  0.00  0.00    +0.109 A 
ATOM     15  C   UNL     1      -1.214 -35.601  -7.100  0.00  0.00    +0.149 A 
ATOM     18  C   UNL     1      -1.355 -36.940  -6.779  0.00  0.00    +0.093 A 
ATOM     19  C   UNL     1      -1.429 -37.880  -7.795  0.00  0.00    +0.124 A 
ATOM     22  C   UNL     1      -1.365 -37.490  -9.122  0.00  0.00    +0.048 A 
ATOM     23  C   UNL     1      -1.220 -36.154  -9.440  0.00  0.00    +0.035 A 
BRANCH  15  16
ATOM     16  O   UNL     1      -1.144 -34.579  -6.194  0.00  0.00    -0.493 OA
ATOM     17  C   UNL     1      -1.254 -34.898  -4.807  0.00  0.00    +0.277 C 
ENDBRANCH  15  16
BRANCH  19  20
ATOM     20  O   UNL     1      -1.562 -39.176  -7.368  0.00  0.00    -0.495 OA
ATOM     21  C   UNL     1      -1.641 -40.212  -8.345  0.00  0.00    +0.277 C 
ENDBRANCH  19  20
ENDBRANCH  13  14
TORSDOF 4
