REMARK  Name = 2ycs_ligand
REMARK  8 active torsions:
REMARK  status: ('A' for Active; 'I' for Inactive)
REMARK    1  A    between atoms: NAB_1  and  CAP_2
REMARK    2  A    between atoms: CAS_5  and  CAV_8
REMARK    3  A    between atoms: CAV_8  and  CAW_9
REMARK    4  A    between atoms: NAC_10  and  NAD_11
REMARK    5  A    between atoms: NAD_11  and  CAX_12
REMARK    6  A    between atoms: CAX_12  and  NAF_13
REMARK    7  A    between atoms: CAX_12  and  NAE_14
REMARK    8  A    between atoms: CAO_16  and  CAN_17
REMARK                            x       y       z     vdW  Elec       q    Type
REMARK                         _______ _______ _______ _____ _____    ______ ____
ROOT
ATOM     15  C   UNL     1     -36.190  33.810  10.461  0.00  0.00    +0.140 A 
ATOM     16  C   UNL     1     -35.692  35.117  10.521  0.00  0.00    +0.088 A 
ATOM     17  C   UNL     1     -35.095  35.578  11.686  0.00  0.00    +0.064 A 
ATOM     18  C   UNL     1     -34.923  34.760  12.814  0.00  0.00    +0.053 A 
ATOM     31  C   UNL     1     -35.423  33.459  12.759  0.00  0.00    +0.064 A 
ATOM     32  C   UNL     1     -36.029  32.997  11.589  0.00  0.00    +0.088 A 
ENDROOT
BRANCH  15   1
ATOM      1  N   UNL     1     -36.853  33.192   9.358  0.00  0.00    -0.193 N 
ATOM      2  H   UNL     1     -37.157  32.247   9.592  0.00  0.00    +0.276 HD
ATOM      3  C   UNL     1     -37.183  33.509   8.112  0.00  0.00    +0.245 C 
ATOM     14  O   UNL     1     -36.911  34.582   7.573  0.00  0.00    -0.368 OA
BRANCH   3   4
ATOM      4  C   UNL     1     -37.907  32.326   7.506  0.00  0.00    +0.067 A 
ATOM      5  C   UNL     1     -38.585  32.314   6.285  0.00  0.00    -0.006 A 
ATOM      6  C   UNL     1     -38.802  33.270   5.308  0.00  0.00    -0.019 A 
ATOM      7  C   UNL     1     -39.545  32.920   4.167  0.00  0.00    -0.026 A 
ATOM      8  C   UNL     1     -40.061  31.636   4.003  0.00  0.00    -0.022 A 
ATOM      9  C   UNL     1     -39.846  30.678   4.986  0.00  0.00    +0.013 A 
ATOM     10  C   UNL     1     -39.105  31.025   6.117  0.00  0.00    +0.069 A 
ATOM     11  N   UNL     1     -38.754  30.293   7.197  0.00  0.00    -0.270 N 
ATOM     12  H   UNL     1     -38.997  29.313   7.344  0.00  0.00    +0.232 HD
ATOM     13  C   UNL     1     -38.030  31.054   8.058  0.00  0.00    +0.158 A 
ENDBRANCH   3   4
ENDBRANCH  15   1
BRANCH  18  19
ATOM     19  C   UNL     1     -34.268  35.301  14.069  0.00  0.00    +0.129 C 
ATOM     20  N   UNL     1     -34.492  34.709  15.245  0.00  0.00    -0.111 NA
ATOM     30  C   UNL     1     -33.369  36.522  14.088  0.00  0.00    +0.154 C 
BRANCH  20  21
ATOM     21  N   UNL     1     -33.998  35.147  16.321  0.00  0.00    -0.195 N 
ATOM     22  H   UNL     1     -33.388  35.965  16.328  0.00  0.00    +0.246 HD
BRANCH  21  23
ATOM     23  C   UNL     1     -34.302  34.503  17.448  0.00  0.00    +0.165 C 
BRANCH  23  24
ATOM     24  N   UNL     1     -33.821  34.859  18.631  0.00  0.00    -0.352 NA
ATOM     25  H   UNL     1     -34.082  34.335  19.466  0.00  0.00    +0.166 HD
ATOM     26  H   UNL     1     -33.190  35.657  18.706  0.00  0.00    +0.166 HD
ENDBRANCH  23  24
BRANCH  23  27
ATOM     27  N   UNL     1     -35.105  33.464  17.383  0.00  0.00    -0.352 NA
ATOM     28  H   UNL     1     -35.351  32.956  18.232  0.00  0.00    +0.166 HD
ATOM     29  H   UNL     1     -35.482  33.166  16.483  0.00  0.00    +0.166 HD
ENDBRANCH  23  27
ENDBRANCH  21  23
ENDBRANCH  20  21
ENDBRANCH  18  19
TORSDOF 7
