REMARK  Name = 2wev_ligand
REMARK  4 active torsions:
REMARK  status: ('A' for Active; 'I' for Inactive)
REMARK    1  A    between atoms: C1A_4  and  C6A_5
REMARK    2  A    between atoms: C5A_7  and  C4_8
REMARK    3  A    between atoms: N7_14  and  C1B_15
REMARK    4  A    between atoms: C3B_18  and  N7B_19
REMARK                            x       y       z     vdW  Elec       q    Type
REMARK                         _______ _______ _______ _____ _____    ______ ____
ROOT
ATOM      7  C   UNL     1       4.580  49.435   2.134  0.00  0.00    +0.208 A 
ATOM      8  C   UNL     1       5.462  50.514   2.258  0.00  0.00    +0.188 A 
ATOM      9  C   UNL     1       4.952  51.735   2.704  0.00  0.00    +0.197 A 
ATOM     10  N   UNL     1       3.649  51.842   3.046  0.00  0.00    -0.177 NA
ATOM     11  C   UNL     1       2.834  50.774   2.917  0.00  0.00    +0.269 A 
ATOM     12  N   UNL     1       1.571  50.885   3.400  0.00  0.00    -0.227 N 
ATOM     13  H   UNL     1       1.411  51.615   4.108  0.00  0.00    +0.223 HD
ATOM     23  N   UNL     1       3.296  49.589   2.488  0.00  0.00    -0.185 NA
ENDROOT
BRANCH   7   6
ATOM      1  N   UNL     1       4.548  45.143  -0.497  0.00  0.00    -0.232 N 
ATOM      2  H   UNL     1       3.567  44.862  -0.636  0.00  0.00    +0.238 HD
ATOM      3  H   UNL     1       5.307  44.595  -0.927  0.00  0.00    +0.238 HD
ATOM      4  C   UNL     1       4.838  46.224   0.245  0.00  0.00    +0.329 A 
ATOM      5  S   UNL     1       3.726  47.164   0.972  0.00  0.00    +0.214 S 
ATOM      6  C   UNL     1       4.934  48.103   1.532  0.00  0.00    +0.278 A 
ATOM     24  C   UNL     1       6.150  47.675   1.176  0.00  0.00    +0.217 A 
ATOM     25  C   UNL     1       7.494  48.239   1.481  0.00  0.00    +0.263 C 
ATOM     26  N   UNL     1       6.079  46.600   0.424  0.00  0.00    -0.108 NA
ENDBRANCH   7   6
BRANCH  12  14
ATOM     14  C   UNL     1       0.503  50.139   3.050  0.00  0.00    +0.078 A 
ATOM     15  C   UNL     1       0.606  48.890   2.427  0.00  0.00    +0.059 A 
ATOM     16  C   UNL     1      -0.536  48.152   2.118  0.00  0.00    +0.076 A 
ATOM     17  C   UNL     1      -1.802  48.659   2.418  0.00  0.00    +0.022 A 
ATOM     18  C   UNL     1      -1.886  49.897   3.035  0.00  0.00    -0.001 A 
ATOM     22  C   UNL     1      -0.740  50.633   3.353  0.00  0.00    +0.029 A 
BRANCH  16  19
ATOM     19  N   UNL     1      -0.392  46.827   1.792  0.00  0.00    -0.219 N 
ATOM     20  O   UNL     1       0.620  46.206   2.128  0.00  0.00    -0.489 OA
ATOM     21  O   UNL     1      -1.402  46.171   1.586  0.00  0.00    -0.489 OA
ENDBRANCH  16  19
ENDBRANCH  12  14
TORSDOF 3
