REMARK  Name = 3ot8_ligand
REMARK  6 active torsions:
REMARK  status: ('A' for Active; 'I' for Inactive)
REMARK    1  A    between atoms: C01_1  and  C12_12
REMARK    2  A    between atoms: C07_7  and  C11_11
REMARK    3  A    between atoms: C09_9  and  N10_10
REMARK    4  A    between atoms: N10_10  and  C23_23
REMARK    5  A    between atoms: N20_20  and  C22_22
REMARK    6  A    between atoms: C26_26  and  C28_28
REMARK                            x       y       z     vdW  Elec       q    Type
REMARK                         _______ _______ _______ _____ _____    ______ ____
ROOT
ATOM      1  C   UNL     1      14.462  -0.552  10.062  0.00  0.00    -0.014 A 
ATOM      8  C   UNL     1      14.837   0.460   9.133  0.00  0.00    +0.045 A 
ATOM      9  N   UNL     1      16.102   0.422   8.798  0.00  0.00    -0.215 NA
ATOM     10  N   UNL     1      16.591  -0.658   9.529  0.00  0.00    -0.112 N 
ATOM     11  C   UNL     1      17.915  -1.153   9.538  0.00  0.00    +0.249 A 
ATOM     20  C   UNL     1      18.196  -2.160  10.370  0.00  0.00    +0.074 A 
ATOM     21  C   UNL     1      17.077  -2.725  11.137  0.00  0.00    +0.019 A 
ATOM     30  N   UNL     1      15.863  -2.299  11.133  0.00  0.00    -0.296 NA
ATOM     31  C   UNL     1      15.605  -1.224  10.308  0.00  0.00    +0.148 A 
ENDROOT
BRANCH  21  22
ATOM     22  C   UNL     1      17.419  -3.862  12.103  0.00  0.00    +0.106 C 
ATOM     23  C   UNL     1      16.802  -5.186  11.757  0.00  0.00    +0.033 C 
ATOM     24  C   UNL     1      17.087  -6.214  12.890  0.00  0.00    +0.054 C 
ATOM     25  C   UNL     1      16.579  -5.682  14.239  0.00  0.00    +0.130 C 
ATOM     26  N   UNL     1      17.282  -4.448  14.550  0.00  0.00    +0.229 N 
ATOM     27  H   UNL     1      18.289  -4.610  14.549  0.00  0.00    +0.202 HD
ATOM     28  H   UNL     1      17.011  -4.115  15.475  0.00  0.00    +0.202 HD
ATOM     29  C   UNL     1      16.929  -3.436  13.522  0.00  0.00    +0.152 C 
ENDBRANCH  21  22
BRANCH   1   2
ATOM      2  C   UNL     1      13.182  -0.732  10.732  0.00  0.00    -0.031 A 
ATOM      3  C   UNL     1      12.769  -1.794  11.518  0.00  0.00    +0.132 A 
ATOM      4  N   UNL     1      11.521  -1.466  11.964  0.00  0.00    -0.217 N 
ATOM      5  C   UNL     1      10.618  -2.281  12.823  0.00  0.00    +0.238 C 
ATOM      6  N   UNL     1      11.121  -0.246  11.541  0.00  0.00    -0.221 NA
ATOM      7  C   UNL     1      12.145   0.190  10.828  0.00  0.00    +0.058 A 
ENDBRANCH   1   2
BRANCH  11  12
ATOM     12  N   UNL     1      18.800  -0.513   8.742  0.00  0.00    -0.192 N 
ATOM     13  H   UNL     1      18.493   0.399   8.405  0.00  0.00    +0.241 HD
BRANCH  12  14
ATOM     14  C   UNL     1      20.026  -0.891   8.323  0.00  0.00    +0.154 A 
ATOM     15  C   UNL     1      20.880  -0.153   7.518  0.00  0.00    +0.019 A 
ATOM     16  C   UNL     1      22.085  -0.858   7.267  0.00  0.00    -0.013 A 
ATOM     17  C   UNL     1      23.211  -0.360   6.439  0.00  0.00    +0.114 C 
ATOM     18  N   UNL     1      22.189  -2.068   7.839  0.00  0.00    -0.311 NA
ATOM     19  S   UNL     1      20.797  -2.358   8.697  0.00  0.00    +0.022 S 
ENDBRANCH  12  14
ENDBRANCH  11  12
TORSDOF 4
