REMARK  Name = 5AUY
REMARK  6 active torsions:
REMARK  status: ('A' for Active; 'I' for Inactive)
REMARK    1  A    between atoms: O_1  and  C_2
REMARK    2  A    between atoms: C_6  and  O_7
REMARK    3  A    between atoms: C_9  and  O_10
REMARK    4  A    between atoms: C_14  and  C_15
REMARK    5  A    between atoms: C_18  and  O_19
REMARK    6  A    between atoms: C_21  and  O_22
REMARK                            x       y       z     vdW  Elec       q    Type
REMARK                         _______ _______ _______ _____ _____    ______ ____
ROOT
ATOM      3  C   UNL     1     -22.274   2.562 -10.620  0.00  0.00    +0.208 C 
ATOM      4  C   UNL     1     -22.098   3.206  -9.395  0.00  0.00    +0.184 C 
ATOM     15  O   UNL     1     -23.084   4.074  -8.996  0.00  0.00    -0.451 OA
ATOM     16  C   UNL     1     -24.216   4.293  -9.734  0.00  0.00    +0.146 A 
ATOM     17  C   UNL     1     -25.201   5.159  -9.267  0.00  0.00    +0.092 A 
ATOM     18  C   UNL     1     -26.356   5.379 -10.009  0.00  0.00    +0.124 A 
ATOM     21  C   UNL     1     -26.532   4.736 -11.222  0.00  0.00    +0.091 A 
ATOM     22  C   UNL     1     -25.542   3.874 -11.673  0.00  0.00    +0.135 A 
ATOM     25  C   UNL     1     -24.377   3.637 -10.946  0.00  0.00    +0.109 A 
ATOM     26  C   UNL     1     -23.397   2.763 -11.416  0.00  0.00    +0.238 C 
ATOM     27  O   UNL     1     -23.536   2.177 -12.494  0.00  0.00    -0.283 OA
ENDROOT
BRANCH   4   5
ATOM      5  C   UNL     1     -21.008   3.112  -8.506  0.00  0.00    +0.063 A 
ATOM      6  C   UNL     1     -20.110   2.038  -8.392  0.00  0.00    +0.131 A 
ATOM      9  C   UNL     1     -19.066   2.042  -7.468  0.00  0.00    +0.091 A 
ATOM     10  C   UNL     1     -18.900   3.136  -6.629  0.00  0.00    +0.120 A 
ATOM     13  C   UNL     1     -19.782   4.202  -6.720  0.00  0.00    +0.046 A 
ATOM     14  C   UNL     1     -20.823   4.194  -7.646  0.00  0.00    +0.019 A 
BRANCH   6   7
ATOM      7  O   UNL     1     -20.272   0.974  -9.220  0.00  0.00    -0.506 OA
ATOM      8  H   UNL     1     -21.220   0.551  -9.065  0.00  0.00    +0.292 HD
ENDBRANCH   6   7
BRANCH  10  11
ATOM     11  O   UNL     1     -17.883   3.169  -5.714  0.00  0.00    -0.507 OA
ATOM     12  H   UNL     1     -17.265   3.995  -5.907  0.00  0.00    +0.292 HD
ENDBRANCH  10  11
ENDBRANCH   4   5
BRANCH   3   1
ATOM      1  O   UNL     1     -21.305   1.702 -11.058  0.00  0.00    -0.501 OA
ATOM      2  H   UNL     1     -21.717   0.744 -11.184  0.00  0.00    +0.292 HD
ENDBRANCH   3   1
BRANCH  18  19
ATOM     19  O   UNL     1     -27.314   6.227  -9.551  0.00  0.00    -0.506 OA
ATOM     20  H   UNL     1     -27.447   7.009 -10.239  0.00  0.00    +0.292 HD
ENDBRANCH  18  19
BRANCH  22  23
ATOM     23  O   UNL     1     -25.671   3.219 -12.856  0.00  0.00    -0.506 OA
ATOM     24  H   UNL     1     -24.880   3.487 -13.493  0.00  0.00    +0.292 HD
ENDBRANCH  22  23
TORSDOF 6
