REMARK  Name = 4at4_ligand
REMARK  5 active torsions:
REMARK  status: ('A' for Active; 'I' for Inactive)
REMARK    1  A    between atoms: C4_1  and  NBF_6
REMARK    2  A    between atoms: CBB_8  and  CAZ_9
REMARK    3  A    between atoms: CAX_14  and  NAT_15
REMARK    4  A    between atoms: NAU_18  and  CAY_19
REMARK    5  A    between atoms: CBA_24  and  CBG_25
REMARK                            x       y       z     vdW  Elec       q    Type
REMARK                         _______ _______ _______ _____ _____    ______ ____
ROOT
ATOM     12  C   UNL     1      53.258  29.275  18.537  0.00  0.00    -0.044 A 
ATOM     13  C   UNL     1      54.437  28.474  18.583  0.00  0.00    -0.015 A 
ATOM     14  C   UNL     1      55.588  28.959  19.227  0.00  0.00    +0.008 A 
ATOM     15  C   UNL     1      55.587  30.281  19.828  0.00  0.00    +0.067 A 
ATOM     33  C   UNL     1      54.392  31.080  19.778  0.00  0.00    +0.008 A 
ATOM     34  C   UNL     1      53.226  30.579  19.124  0.00  0.00    -0.015 A 
ENDROOT
BRANCH  12  11
ATOM      1  C   UNL     1      52.906  28.696  15.323  0.00  0.00    +0.126 A 
ATOM      5  N   UNL     1      52.521  28.314  14.022  0.00  0.00    -0.264 NA
ATOM      6  C   UNL     1      51.310  27.640  13.913  0.00  0.00    +0.161 A 
ATOM      7  N   UNL     1      50.408  27.315  14.924  0.00  0.00    -0.277 NA
ATOM      8  C   UNL     1      50.821  27.703  16.180  0.00  0.00    +0.110 A 
ATOM      9  S   UNL     1      49.908  27.412  17.600  0.00  0.00    -0.018 S 
ATOM     10  C   UNL     1      51.098  28.173  18.559  0.00  0.00    +0.082 A 
ATOM     11  C   UNL     1      52.156  28.644  17.869  0.00  0.00    -0.015 A 
ATOM     35  C   UNL     1      52.053  28.398  16.469  0.00  0.00    +0.053 A 
BRANCH   1   2
ATOM      2  N   UNL     1      54.099  29.355  15.409  0.00  0.00    -0.314 N 
ATOM      3  H   UNL     1      54.446  29.674  16.325  0.00  0.00    +0.183 HD
ATOM      4  H   UNL     1      54.652  29.533  14.558  0.00  0.00    +0.183 HD
ENDBRANCH   1   2
ENDBRANCH  12  11
BRANCH  15  16
ATOM     16  N   UNL     1      56.742  30.818  20.500  0.00  0.00    -0.215 N 
ATOM     17  H   UNL     1      56.574  31.650  21.030  0.00  0.00    +0.227 HD
ATOM     18  C   UNL     1      58.081  30.350  20.527  0.00  0.00    +0.317 C 
ATOM     19  N   UNL     1      58.945  31.141  21.311  0.00  0.00    -0.207 N 
ATOM     20  H   UNL     1      58.658  32.074  21.530  0.00  0.00    +0.226 HD
ATOM     32  O   UNL     1      58.469  29.357  19.943  0.00  0.00    -0.380 OA
BRANCH  19  21
ATOM     21  C   UNL     1      60.197  30.695  21.808  0.00  0.00    +0.132 A 
ATOM     22  C   UNL     1      60.483  30.846  23.213  0.00  0.00    +0.190 A 
ATOM     23  F   UNL     1      59.576  31.391  24.008  0.00  0.00    -0.163 F 
ATOM     24  C   UNL     1      61.732  30.423  23.763  0.00  0.00    +0.061 A 
ATOM     25  C   UNL     1      62.699  29.835  22.899  0.00  0.00    +0.029 A 
ATOM     26  C   UNL     1      62.418  29.682  21.511  0.00  0.00    +0.026 A 
ATOM     31  C   UNL     1      61.192  30.111  20.963  0.00  0.00    +0.053 A 
BRANCH  26  27
ATOM     27  C   UNL     1      63.461  29.053  20.608  0.00  0.00    +0.366 C 
ATOM     28  F   UNL     1      64.240  28.164  21.211  0.00  0.00    -0.227 F 
ATOM     29  F   UNL     1      62.927  28.379  19.579  0.00  0.00    -0.227 F 
ATOM     30  F   UNL     1      64.310  29.894  20.038  0.00  0.00    -0.227 F 
ENDBRANCH  26  27
ENDBRANCH  19  21
ENDBRANCH  15  16
TORSDOF 5
