REMARK  Name = TF3
REMARK  8 active torsions:
REMARK  status: ('A' for Active; 'I' for Inactive)
REMARK    1  A    between atoms: C1_1  and  O1_4
REMARK    2  A    between atoms: O1_4  and  C6_8
REMARK    3  A    between atoms: C6_8  and  C8_10
REMARK    4  A    between atoms: C7_9  and  C9_11
REMARK    5  A    between atoms: C9_11  and  C12_14
REMARK    6  A    between atoms: N1_17  and  C16_20
REMARK    7  A    between atoms: C15_19  and  C17_21
REMARK    8  A    between atoms: C16_20  and  C18_22
REMARK                            x       y       z     vdW  Elec       q    Type
REMARK                         _______ _______ _______ _____ _____    ______ ____
ROOT
ATOM      1  C   UNL     1      36.989  35.503  90.144  0.00  0.00    +0.149 A 
ATOM      2  C   UNL     1      36.819  36.682  90.933  0.00  0.00    +0.091 A 
ATOM      3  C   UNL     1      35.682  36.868  91.753  0.00  0.00    +0.011 A 
ATOM      4  C   UNL     1      34.665  35.867  91.813  0.00  0.00    -0.012 A 
ATOM     12  C   UNL     1      34.815  34.684  91.032  0.00  0.00    -0.001 A 
ATOM     13 CL   UNL     1      38.023  37.945  90.906  0.00  0.00    -0.079 Cl
ATOM     14  C   UNL     1      35.956  34.501  90.212  0.00  0.00    +0.037 A 
ENDROOT
BRANCH   4   5
ATOM      5  C   UNL     1      33.442  36.069  92.693  0.00  0.00    +0.113 C 
BRANCH   5   6
ATOM      6  C   UNL     1      33.704  35.666  94.143  0.00  0.00    +0.246 C 
ATOM      7  N   UNL     1      34.547  36.512  94.789  0.00  0.00    -0.203 NA
ATOM     11  O   UNL     1      33.178  34.667  94.625  0.00  0.00    -0.273 OA
BRANCH   7   8
ATOM      8  C   UNL     1      34.946  36.324  96.192  0.00  0.00    +0.136 C 
BRANCH   8   9
ATOM      9  C   UNL     1      36.253  35.517  96.272  0.00  0.00    +0.133 C 
ATOM     10  N   UNL     1      36.862  35.547  97.607  0.00  0.00    -0.129 NA
ENDBRANCH   8   9
ENDBRANCH   7   8
ENDBRANCH   5   6
ENDBRANCH   4   5
BRANCH   1  15
ATOM     15  O   UNL     1      38.158  35.407  89.354  0.00  0.00    -0.470 OA
BRANCH  15  16
ATOM     16  C   UNL     1      38.355  34.243  88.560  0.00  0.00    +0.232 C 
BRANCH  16  17
ATOM     17  C   UNL     1      39.645  34.324  87.783  0.00  0.00    +0.021 A 
ATOM     18  C   UNL     1      40.382  35.532  87.720  0.00  0.00    -0.001 A 
ATOM     19  C   UNL     1      41.582  35.600  86.991  0.00  0.00    -0.004 A 
ATOM     20  C   UNL     1      42.088  34.463  86.299  0.00  0.00    -0.022 A 
ATOM     21  C   UNL     1      41.346  33.247  86.362  0.00  0.00    -0.004 A 
ATOM     25  C   UNL     1      40.142  33.180  87.095  0.00  0.00    -0.001 A 
BRANCH  20  22
ATOM     22  C   UNL     1      43.385  34.575  85.517  0.00  0.00    +0.022 C 
ATOM     23  C   UNL     1      44.136  33.240  85.465  0.00  0.00    +0.005 C 
ATOM     24  C   UNL     1      43.086  35.098  84.110  0.00  0.00    +0.005 C 
ENDBRANCH  20  22
ENDBRANCH  16  17
ENDBRANCH  15  16
ENDBRANCH   1  15
TORSDOF 8
