REMARK  Name = 3tl5_ligand
REMARK  7 active torsions:
REMARK  status: ('A' for Active; 'I' for Inactive)
REMARK    1  A    between atoms: C1_1  and  C2_2
REMARK    2  A    between atoms: C3_3  and  C24_24
REMARK    3  A    between atoms: C8_8  and  C17_17
REMARK    4  A    between atoms: C24_24  and  N25_25
REMARK    5  A    between atoms: C31_31  and  C33_33
REMARK    6  A    between atoms: C33_33  and  C35_34
REMARK    7  A    between atoms: C33_33  and  O36_35
REMARK                            x       y       z     vdW  Elec       q    Type
REMARK                         _______ _______ _______ _____ _____    ______ ____
ROOT
ATOM      1  C   UNL     1      21.020  65.790  19.215  0.00  0.00    +0.048 C 
ATOM      2  C   UNL     1      20.086  64.902  19.967  0.00  0.00    -0.032 A 
ATOM      3  C   UNL     1      20.479  63.545  20.396  0.00  0.00    +0.033 A 
ATOM      4  N   UNL     1      21.695  62.930  20.167  0.00  0.00    -0.305 NA
ATOM      5  C   UNL     1      21.946  61.668  20.582  0.00  0.00    +0.091 A 
ATOM     15  N   UNL     1      20.992  60.999  21.273  0.00  0.00    -0.269 NA
ATOM     16  C   UNL     1      19.778  61.538  21.542  0.00  0.00    +0.134 A 
ATOM     17  N   UNL     1      18.825  60.748  22.285  0.00  0.00    -0.286 N 
ATOM     18  C   UNL     1      19.209  59.638  23.053  0.00  0.00    +0.164 C 
ATOM     19  C   UNL     1      18.213  59.338  24.122  0.00  0.00    +0.184 C 
ATOM     20  O   UNL     1      16.934  59.205  23.603  0.00  0.00    -0.376 OA
ATOM     21  C   UNL     1      16.588  60.294  22.776  0.00  0.00    +0.184 C 
ATOM     22  C   UNL     1      17.577  60.585  21.698  0.00  0.00    +0.164 C 
ATOM     23  C   UNL     1      19.482  62.859  21.104  0.00  0.00    +0.096 A 
ATOM     24  S   UNL     1      18.120  63.921  21.206  0.00  0.00    -0.029 S 
ATOM     25  C   UNL     1      18.762  65.266  20.357  0.00  0.00    +0.004 A 
ENDROOT
BRANCH   5   6
ATOM      6  C   UNL     1      23.299  60.996  20.329  0.00  0.00    +0.049 A 
ATOM      7  C   UNL     1      24.037  61.231  19.167  0.00  0.00    +0.122 A 
ATOM      8  N   UNL     1      25.224  60.601  19.021  0.00  0.00    -0.248 NA
ATOM      9  C   UNL     1      25.711  59.779  19.960  0.00  0.00    +0.195 A 
ATOM     10  N   UNL     1      26.981  59.148  19.755  0.00  0.00    -0.301 N 
ATOM     11  H   UNL     1      27.510  59.331  18.902  0.00  0.00    +0.184 HD
ATOM     12  H   UNL     1      27.356  58.516  20.462  0.00  0.00    +0.184 HD
ATOM     13  N   UNL     1      25.022  59.534  21.082  0.00  0.00    -0.248 NA
ATOM     14  C   UNL     1      23.828  60.121  21.289  0.00  0.00    +0.122 A 
ENDBRANCH   5   6
BRANCH  25  26
ATOM     26  C   UNL     1      18.026  66.579  20.113  0.00  0.00    -0.017 C 
BRANCH  26  27
ATOM     27  N   UNL     1      17.514  66.688  18.947  0.00  0.00    +0.412 NA
ATOM     28  C   UNL     1      16.763  65.609  18.591  0.00  0.00    -0.081 C 
ATOM     29  C   UNL     1      16.289  65.774  17.169  0.00  0.00    +0.116 C 
ATOM     30  N   UNL     1      15.673  66.927  16.919  0.00  0.00    -0.275 N 
ATOM     31  C   UNL     1      14.573  66.990  15.982  0.00  0.00    +0.207 C 
ATOM     36  O   UNL     1      14.208  65.955  15.445  0.00  0.00    -0.394 OA
ATOM     37  C   UNL     1      16.144  68.016  17.543  0.00  0.00    +0.116 C 
ATOM     38  C   UNL     1      16.703  67.782  18.921  0.00  0.00    -0.081 C 
BRANCH  31  32
ATOM     32  C   UNL     1      13.875  68.307  15.717  0.00  0.00    +0.224 C 
ATOM     35  C   UNL     1      12.513  68.145  15.103  0.00  0.00    +0.062 C 
BRANCH  32  33
ATOM     33  O   UNL     1      14.648  69.123  14.916  0.00  0.00    -0.372 OA
ATOM     34  H   UNL     1      15.518  69.225  15.310  0.00  0.00    +0.213 HD
ENDBRANCH  32  33
ENDBRANCH  31  32
ENDBRANCH  26  27
ENDBRANCH  25  26
TORSDOF 5
