REMARK  Name = 5EYM
REMARK  11 active torsions:
REMARK  status: ('A' for Active; 'I' for Inactive)
REMARK    1  A    between atoms: N_5  and  C_26
REMARK    2  A    between atoms: N_5  and  C_30
REMARK    3  A    between atoms: C_6  and  C_26
REMARK    4  A    between atoms: C_11  and  C_32
REMARK    5  A    between atoms: C_13  and  C_15
REMARK    6  A    between atoms: N_16  and  C_17
REMARK    7  A    between atoms: C_17  and  C_18
REMARK    8  A    between atoms: C_19  and  C_20
REMARK    9  A    between atoms: C_32  and  N_33
REMARK   10  A    between atoms: N_33  and  C_34
REMARK   11  A    between atoms: N_33  and  C_35
REMARK                            x       y       z     vdW  Elec       q    Type
REMARK                         _______ _______ _______ _____ _____    ______ ____
ROOT
ATOM      1  C   UNL     1     -62.933 -30.545  76.907  0.00  0.00    +0.012 A 
ATOM      2  C   UNL     1     -61.546 -30.496  76.831  0.00  0.00    +0.017 A 
ATOM      3  C   UNL     1     -60.774 -31.663  76.784  0.00  0.00    +0.027 A 
ATOM      4  C   UNL     1     -61.393 -32.913  76.826  0.00  0.00    +0.040 A 
ATOM      5  C   UNL     1     -62.780 -32.945  76.902  0.00  0.00    +0.043 A 
ATOM      6  N   UNL     1     -63.593 -34.097  76.943  0.00  0.00    -0.281 N 
ATOM      7  H   UNL     1     -63.269 -35.117  76.928  0.00  0.00    +0.155 HD
ATOM      8  C   UNL     1     -64.898 -33.636  77.007  0.00  0.00    +0.251 C 
ATOM      9  C   UNL     1     -64.940 -32.177  77.014  0.00  0.00    +0.068 C 
ATOM     10  C   UNL     1     -66.081 -31.449  77.075  0.00  0.00    +0.051 C 
ATOM     29  O   UNL     1     -65.877 -34.348  77.060  0.00  0.00    -0.270 OA
ATOM     38  C   UNL     1     -63.540 -31.792  76.940  0.00  0.00    +0.010 A 
ENDROOT
BRANCH  10  11
ATOM     11  C   UNL     1     -66.060 -29.972  77.078  0.00  0.00    -0.003 A 
ATOM     12  C   UNL     1     -66.098 -29.277  78.276  0.00  0.00    +0.010 A 
ATOM     13  C   UNL     1     -66.098 -27.891  78.281  0.00  0.00    +0.001 A 
ATOM     14  C   UNL     1     -66.058 -27.197  77.086  0.00  0.00    +0.000 A 
ATOM     15  C   UNL     1     -66.022 -27.889  75.887  0.00  0.00    +0.001 A 
ATOM     16  C   UNL     1     -66.025 -29.275  75.885  0.00  0.00    +0.010 A 
ENDBRANCH  10  11
BRANCH  10  17
ATOM     17  N   UNL     1     -67.260 -32.193  77.148  0.00  0.00    -0.313 N 
ATOM     18  H   UNL     1     -67.074 -33.246  77.173  0.00  0.00    +0.152 HD
BRANCH  17  19
ATOM     19  C   UNL     1     -68.646 -31.890  77.197  0.00  0.00    +0.031 A 
ATOM     20  C   UNL     1     -69.149 -30.594  77.154  0.00  0.00    +0.023 A 
ATOM     21  C   UNL     1     -70.521 -30.381  77.189  0.00  0.00    +0.007 A 
ATOM     22  C   UNL     1     -71.407 -31.454  77.252  0.00  0.00    -0.033 A 
ATOM     27  C   UNL     1     -70.910 -32.739  77.281  0.00  0.00    +0.007 A 
ATOM     28  C   UNL     1     -69.545 -32.951  77.247  0.00  0.00    +0.023 A 
BRANCH  22  23
ATOM     23  C   UNL     1     -72.907 -31.285  77.298  0.00  0.00    +0.119 C 
BRANCH  23  24
ATOM     24  N   UNL     1     -73.308 -29.877  77.432  0.00  0.00    -0.304 NA
ATOM     25  C   UNL     1     -73.432 -29.199  76.124  0.00  0.00    +0.105 C 
ATOM     26  C   UNL     1     -74.577 -29.800  78.173  0.00  0.00    +0.105 C 
ENDBRANCH  23  24
ENDBRANCH  22  23
ENDBRANCH  17  19
ENDBRANCH  10  17
BRANCH   3  30
ATOM     30  C   UNL     1     -59.354 -31.483  76.715  0.00  0.00    -0.057 C 
ATOM     31  C   UNL     1     -58.158 -31.293  76.649  0.00  0.00    -0.003 C 
BRANCH  31  32
ATOM     32  C   UNL     1     -56.752 -31.032  76.581  0.00  0.00    +0.289 C 
ATOM     33  N   UNL     1     -55.823 -31.995  76.918  0.00  0.00    -0.305 N 
ATOM     34  H   UNL     1     -56.189 -32.950  77.233  0.00  0.00    +0.150 HD
ATOM     37  O   UNL     1     -56.374 -29.931  76.232  0.00  0.00    -0.261 OA
BRANCH  33  35
ATOM     35  C   UNL     1     -54.366 -31.803  76.875  0.00  0.00    +0.101 C 
ATOM     36  C   UNL     1     -53.862 -31.675  75.456  0.00  0.00    +0.024 C 
ENDBRANCH  33  35
ENDBRANCH  31  32
ENDBRANCH   3  30
TORSDOF 8
