REMARK  Name = 4FKL
REMARK  3 active torsions:
REMARK  status: ('A' for Active; 'I' for Inactive)
REMARK    1  A    between atoms: C_1  and  C_2
REMARK    2  A    between atoms: C_5  and  C_6
REMARK    3  A    between atoms: C_7  and  C_8
REMARK                            x       y       z     vdW  Elec       q    Type
REMARK                         _______ _______ _______ _____ _____    ______ ____
ROOT
ATOM      6  C   UNL     1       0.591   6.989  27.919  0.00  0.00    +0.084 A 
ATOM      7  C   UNL     1       1.597   7.115  28.893  0.00  0.00    +0.049 A 
ATOM      8  C   UNL     1       1.993   6.037  29.676  0.00  0.00    +0.116 A 
ATOM      9  N   UNL     1       1.446   4.840  29.447  0.00  0.00    -0.223 NA
ATOM     10  C   UNL     1       0.443   4.729  28.525  0.00  0.00    +0.213 A 
ATOM     11  N   UNL     1      -0.123   3.589  28.299  0.00  0.00    -0.328 N 
ATOM     12  H   UNL     1       0.147   2.733  28.882  0.00  0.00    +0.145 HD
ATOM     13  H   UNL     1      -0.861   3.501  27.529  0.00  0.00    +0.145 HD
ATOM     14  N   UNL     1       0.033   5.766  27.729  0.00  0.00    -0.214 NA
ENDROOT
BRANCH   6   5
ATOM      1  C   UNL     1      -0.800  11.793  25.937  0.00  0.00    +0.074 C 
ATOM      2  C   UNL     1      -0.438  10.357  26.257  0.00  0.00    +0.076 A 
ATOM      3  N   UNL     1      -0.533   9.404  25.353  0.00  0.00    -0.249 NA
ATOM      4  C   UNL     1      -0.201   8.161  25.810  0.00  0.00    +0.055 A 
ATOM      5  C   UNL     1       0.180   8.128  27.164  0.00  0.00    +0.060 A 
ATOM     15  C   UNL     1      -0.256   7.099  24.817  0.00  0.00    +0.067 C 
ATOM     16  S   UNL     1       0.106   9.759  27.765  0.00  0.00    -0.071 S 
ENDBRANCH   6   5
TORSDOF 1
