REMARK  Name = 1YVJ
REMARK  5 active torsions:
REMARK  status: ('A' for Active; 'I' for Inactive)
REMARK    1  A    between atoms: C_1  and  O_2
REMARK    2  A    between atoms: O_2  and  C_3
REMARK    3  A    between atoms: C_4  and  N_5
REMARK    4  A    between atoms: N_5  and  C_6
REMARK    5  A    between atoms: C_10  and  C_11
REMARK                            x       y       z     vdW  Elec       q    Type
REMARK                         _______ _______ _______ _____ _____    ______ ____
ROOT
ATOM      3  C   UNL     1       6.193 -10.143  -5.651  0.00  0.00    +0.187 C 
ATOM      4  C   UNL     1       6.120 -11.434  -4.787  0.00  0.00    +0.174 C 
ATOM      5  N   UNL     1       6.393 -12.569  -5.726  0.00  0.00    -0.307 N 
ATOM      6  C   UNL     1       7.614 -13.142  -6.055  0.00  0.00    +0.077 A 
ATOM      7  C   UNL     1       8.940 -12.778  -5.512  0.00  0.00    +0.077 A 
ATOM      8  C   UNL     1      10.063 -13.497  -5.995  0.00  0.00    +0.018 A 
ATOM      9  C   UNL     1       9.958 -14.526  -6.952  0.00  0.00    +0.051 A 
ATOM     10  C   UNL     1      10.949 -15.356  -7.577  0.00  0.00    +0.245 C 
ATOM     11  O   UNL     1      12.127 -15.397  -7.268  0.00  0.00    -0.270 OA
ATOM     12  N   UNL     1      10.333 -16.089  -8.557  0.00  0.00    -0.307 N 
ATOM     13  H   UNL     1      10.853 -16.623  -9.325  0.00  0.00    +0.149 HD
ATOM     14  C   UNL     1       8.854 -16.051  -8.423  0.00  0.00    +0.141 C 
ATOM     15  C   UNL     1       8.706 -14.891  -7.477  0.00  0.00    -0.008 A 
ATOM     16  C   UNL     1      11.058 -12.872  -5.241  0.00  0.00    -0.018 A 
ATOM     17  C   UNL     1      12.576 -13.178  -5.289  0.00  0.00    +0.037 C 
ATOM     18  C   UNL     1      13.396 -12.030  -4.691  0.00  0.00    +0.005 C 
ATOM     19  C   UNL     1      12.745 -11.442  -3.434  0.00  0.00    +0.006 C 
ATOM     20  C   UNL     1      11.389 -10.808  -3.757  0.00  0.00    +0.054 C 
ATOM     21  C   UNL     1      10.545 -11.852  -4.386  0.00  0.00    +0.026 A 
ATOM     22  N   UNL     1       9.165 -11.794  -4.559  0.00  0.00    -0.316 N 
ATOM     23  C   UNL     1       8.282 -10.897  -3.794  0.00  0.00    +0.224 C 
ATOM     24  C   UNL     1       8.149  -9.488  -4.356  0.00  0.00    +0.076 C 
ATOM     25  C   UNL     1       7.470 -14.192  -7.042  0.00  0.00    +0.015 A 
ATOM     26  C   UNL     1       6.135 -14.218  -7.284  0.00  0.00    +0.008 A 
ATOM     27  C   UNL     1       5.437 -15.092  -8.199  0.00  0.00    +0.010 A 
ATOM     28  C   UNL     1       4.024 -15.006  -8.345  0.00  0.00    +0.001 A 
ATOM     29  C   UNL     1       3.352 -14.026  -7.551  0.00  0.00    +0.002 A 
ATOM     30  C   UNL     1       4.039 -13.146  -6.632  0.00  0.00    +0.026 A 
ATOM     31  C   UNL     1       5.466 -13.261  -6.509  0.00  0.00    +0.053 A 
ATOM     32  C   UNL     1       4.800 -11.376  -3.997  0.00  0.00    +0.069 C 
ATOM     33  O   UNL     1       6.973 -11.523  -3.697  0.00  0.00    -0.328 OA
ATOM     34  C   UNL     1       6.725  -9.142  -4.695  0.00  0.00    +0.091 C 
ENDROOT
BRANCH  34  35
ATOM     35  N   UNL     1       6.637  -7.820  -5.319  0.00  0.00    -0.314 NA
ATOM     36  H   UNL     1       5.599  -7.633  -5.502  0.00  0.00    +0.122 HD
ATOM     37  C   UNL     1       7.168  -6.629  -4.610  0.00  0.00    +0.101 C 
ENDBRANCH  34  35
BRANCH   3   2
ATOM      1  C   UNL     1       6.626 -10.476  -8.069  0.00  0.00    +0.194 C 
ATOM      2  O   UNL     1       7.162 -10.186  -6.747  0.00  0.00    -0.374 OA
ENDBRANCH   3   2
TORSDOF 2
