REMARK  Name = 2ym4_ligand
REMARK  9 active torsions:
REMARK  status: ('A' for Active; 'I' for Inactive)
REMARK    1  A    between atoms: C01_1  and  C02_2
REMARK    2  A    between atoms: C02_2  and  O03_3
REMARK    3  A    between atoms: O03_3  and  C04_4
REMARK    4  A    between atoms: C04_4  and  C06_6
REMARK    5  A    between atoms: C12_12  and  C13_13
REMARK    6  A    between atoms: C17_17  and  C18_18
REMARK    7  A    between atoms: C22_22  and  N23_23
REMARK    8  A    between atoms: C27_27  and  C28_28
REMARK    9  A    between atoms: C28_28  and  N29_29
REMARK                            x       y       z     vdW  Elec       q    Type
REMARK                         _______ _______ _______ _____ _____    ______ ____
ROOT
ATOM      5  C   UNL     1      17.485  -0.673   9.450  0.00  0.00    +0.096 A 
ATOM      6  C   UNL     1      16.415  -1.083  10.275  0.00  0.00    +0.087 A 
ATOM     18  C   UNL     1      15.208  -0.288  10.296  0.00  0.00    +0.072 A 
ATOM     19  C   UNL     1      13.918  -0.296  10.943  0.00  0.00    +0.071 A 
ATOM     28  N   UNL     1      13.200   0.768  10.538  0.00  0.00    -0.198 NA
ATOM     29  N   UNL     1      13.955   1.487   9.661  0.00  0.00    -0.201 N 
ATOM     30  H   UNL     1      13.672   2.348   9.194  0.00  0.00    +0.251 HD
ATOM     31  C   UNL     1      15.171   0.848   9.514  0.00  0.00    +0.151 A 
ATOM     32  N   UNL     1      16.239   1.225   8.726  0.00  0.00    -0.292 NA
ATOM     33  C   UNL     1      17.362   0.493   8.689  0.00  0.00    +0.086 A 
ENDROOT
BRANCH   6   7
ATOM      7  N   UNL     1      16.528  -2.299  11.062  0.00  0.00    -0.289 N 
ATOM      8  C   UNL     1      17.691  -2.343  11.852  0.00  0.00    +0.175 C 
ATOM      9  C   UNL     1      17.852  -3.644  12.581  0.00  0.00    +0.186 C 
ATOM     15  O   UNL     1      17.597  -4.763  11.767  0.00  0.00    -0.367 OA
ATOM     16  C   UNL     1      16.419  -4.671  11.015  0.00  0.00    +0.185 C 
ATOM     17  C   UNL     1      16.389  -3.415  10.216  0.00  0.00    +0.166 C 
BRANCH   9  10
ATOM     10  C   UNL     1      16.966  -3.666  13.794  0.00  0.00    +0.161 C 
BRANCH  10  11
ATOM     11  N   UNL     1      17.023  -2.384  14.449  0.00  0.00    +0.220 N 
ATOM     12  H   UNL     1      16.703  -1.660  13.805  0.00  0.00    +0.200 HD
ATOM     13  H   UNL     1      17.984  -2.190  14.731  0.00  0.00    +0.200 HD
ATOM     14  H   UNL     1      16.422  -2.398  15.273  0.00  0.00    +0.200 HD
ENDBRANCH  10  11
ENDBRANCH   9  10
ENDBRANCH   6   7
BRANCH  19  20
ATOM     20  C   UNL     1      13.446  -1.241  11.827  0.00  0.00    +0.003 A 
ATOM     21  C   UNL     1      12.089  -1.303  12.096  0.00  0.00    +0.053 A 
ATOM     22  C   UNL     1      11.601  -2.257  12.984  0.00  0.00    +0.096 A 
ATOM     25  C   UNL     1      12.462  -3.146  13.599  0.00  0.00    +0.043 A 
ATOM     26  C   UNL     1      13.816  -3.086  13.329  0.00  0.00    +0.013 A 
ATOM     27  C   UNL     1      14.305  -2.133  12.445  0.00  0.00    +0.023 A 
BRANCH  22  23
ATOM     23  C   UNL     1      10.148  -2.326  13.278  0.00  0.00    +0.101 C 
ATOM     24  N   UNL     1       9.041  -2.381  13.505  0.00  0.00    -0.328 NA
ENDBRANCH  22  23
ENDBRANCH  19  20
BRANCH   5   4
ATOM      4  C   UNL     1      18.782  -1.394   9.322  0.00  0.00    +0.253 C 
ATOM     34  O   UNL     1      18.835  -2.609   9.266  0.00  0.00    -0.368 OA
BRANCH   4   3
ATOM      3  O   UNL     1      19.937  -0.648   9.214  0.00  0.00    -0.281 OA
BRANCH   3   2
ATOM      1  C   UNL     1      21.295   0.478   7.497  0.00  0.00    +0.039 C 
ATOM      2  C   UNL     1      20.687  -0.762   8.066  0.00  0.00    +0.194 C 
ENDBRANCH   3   2
ENDBRANCH   4   3
ENDBRANCH   5   4
TORSDOF 8
