REMARK  Name = 1uv5_ligand
REMARK  1 active torsions:
REMARK  status: ('A' for Active; 'I' for Inactive)
REMARK    1  A    between atoms: N24_20  and  O39_21
REMARK                            x       y       z     vdW  Elec       q    Type
REMARK                         _______ _______ _______ _____ _____    ______ ____
ROOT
ATOM      1  C   UNL     1      94.405  70.408   9.094  0.00  0.00    +0.024 A 
ATOM      2  C   UNL     1      94.026  71.665   8.717  0.00  0.00    -0.006 A 
ATOM      3  C   UNL     1      95.075  72.591   8.194  0.00  0.00    -0.022 A 
ATOM      4  C   UNL     1      96.378  72.190   8.095  0.00  0.00    -0.015 A 
ATOM      5  C   UNL     1      96.774  70.813   8.520  0.00  0.00    +0.015 A 
ATOM      6  C   UNL     1      95.808  69.982   8.983  0.00  0.00    +0.072 A 
ATOM      7  N   UNL     1      95.911  68.670   9.422  0.00  0.00    -0.263 N 
ATOM      8  H   UNL     1      96.790  68.135   9.475  0.00  0.00    +0.220 HD
ATOM      9  C   UNL     1      94.633  68.168   9.788  0.00  0.00    +0.105 C 
ATOM     10  C   UNL     1      94.491  66.914  10.166  0.00  0.00    +0.063 C 
ATOM     11  C   UNL     1      93.330  66.063  10.474  0.00  0.00    -0.010 A 
ATOM     12  C   UNL     1      91.882  66.290  10.440  0.00  0.00    -0.026 A 
ATOM     13  C   UNL     1      91.028  65.280  10.691  0.00  0.00    -0.027 A 
ATOM     14  C   UNL     1      91.507  63.922  10.967  0.00  0.00    -0.009 A 
ATOM     15 BR   UNL     1      90.240  62.548  11.200  0.00  0.00    -0.061 Br
ATOM     16  C   UNL     1      92.846  63.680  11.024  0.00  0.00    +0.011 A 
ATOM     17  C   UNL     1      93.774  64.793  10.747  0.00  0.00    +0.065 A 
ATOM     18  N   UNL     1      95.164  64.712  10.730  0.00  0.00    -0.244 N 
ATOM     19  H   UNL     1      95.718  63.907  10.943  0.00  0.00    +0.223 HD
ATOM     20  C   UNL     1      95.643  65.996  10.351  0.00  0.00    +0.201 C 
ATOM     21  O   UNL     1      96.836  66.277  10.201  0.00  0.00    -0.398 OA
ATOM     22  C   UNL     1      93.677  69.251   9.602  0.00  0.00    +0.129 C 
ATOM     23  N   UNL     1      92.440  69.155   9.870  0.00  0.00    -0.117 NA
ENDROOT
BRANCH  23  24
ATOM     24  O   UNL     1      91.456  70.023   9.782  0.00  0.00    -0.229 OA
ATOM     25  H   UNL     1      90.647  69.615  10.068  0.00  0.00    +0.297 HD
ENDBRANCH  23  24
TORSDOF 1
