REMARK  Name = 4k9y_ligand
REMARK  9 active torsions:
REMARK  status: ('A' for Active; 'I' for Inactive)
REMARK    1  A    between atoms: N8_8  and  C14_14
REMARK    2  A    between atoms: C11_11  and  N32_32
REMARK    3  A    between atoms: N16_16  and  C22_22
REMARK    4  A    between atoms: C17_17  and  N29_29
REMARK    5  A    between atoms: C19_19  and  C21_21
REMARK    6  A    between atoms: C21_21  and  C33_33
REMARK    7  A    between atoms: C21_21  and  C34_34
REMARK    8  A    between atoms: C21_21  and  C35_35
REMARK    9  A    between atoms: C25_25  and  C28_28
REMARK                            x       y       z     vdW  Elec       q    Type
REMARK                         _______ _______ _______ _____ _____    ______ ____
ROOT
ATOM     15  N   UNL     1     -24.449 -28.204   3.490  0.00  0.00    -0.217 N 
ATOM     16  H   UNL     1     -24.990 -27.559   2.950  0.00  0.00    +0.224 HD
ATOM     17  C   UNL     1     -23.095 -28.079   3.435  0.00  0.00    +0.322 C 
ATOM     18  O   UNL     1     -22.335 -28.805   4.072  0.00  0.00    -0.379 OA
ATOM     19  N   UNL     1     -22.632 -27.128   2.615  0.00  0.00    -0.180 N 
ATOM     20  H   UNL     1     -23.301 -26.550   2.147  0.00  0.00    +0.234 HD
ENDROOT
BRANCH  15  14
ATOM     11  C   UNL     1     -26.644 -31.132   5.510  0.00  0.00    +0.086 A 
ATOM     12  C   UNL     1     -27.283 -29.984   5.041  0.00  0.00    +0.014 A 
ATOM     13  C   UNL     1     -26.533 -29.010   4.379  0.00  0.00    +0.004 A 
ATOM     14  C   UNL     1     -25.147 -29.154   4.234  0.00  0.00    +0.061 A 
ATOM     37  C   UNL     1     -24.514 -30.323   4.674  0.00  0.00    +0.004 A 
ATOM     38  C   UNL     1     -25.263 -31.274   5.348  0.00  0.00    +0.014 A 
BRANCH  11  10
ATOM      1  C   UNL     1     -28.992 -30.879   9.253  0.00  0.00    +0.153 A 
ATOM      2  N   UNL     1     -29.201 -32.054   9.836  0.00  0.00    -0.270 NA
ATOM      3  C   UNL     1     -28.823 -33.212   9.275  0.00  0.00    +0.130 A 
ATOM      4  N   UNL     1     -28.993 -34.405   9.954  0.00  0.00    -0.315 N 
ATOM      5  H   UNL     1     -28.616 -35.279   9.561  0.00  0.00    +0.182 HD
ATOM      6  H   UNL     1     -29.496 -34.419  10.853  0.00  0.00    +0.182 HD
ATOM      7  C   UNL     1     -28.137 -33.170   8.043  0.00  0.00    +0.107 A 
ATOM      8  N   UNL     1     -27.586 -34.095   7.212  0.00  0.00    -0.294 NA
ATOM      9  C   UNL     1     -27.043 -33.482   6.195  0.00  0.00    +0.257 A 
ATOM     10  N   UNL     1     -27.256 -32.121   6.295  0.00  0.00    -0.186 N 
ATOM     39  C   UNL     1     -27.911 -31.890   7.474  0.00  0.00    +0.172 A 
ATOM     40  N   UNL     1     -28.357 -30.796   8.098  0.00  0.00    -0.270 NA
ENDBRANCH  11  10
ENDBRANCH  15  14
BRANCH  19  21
ATOM     21  C   UNL     1     -21.283 -26.889   2.370  0.00  0.00    +0.219 A 
ATOM     22  C   UNL     1     -20.291 -27.829   2.337  0.00  0.00    +0.003 A 
ATOM     23  C   UNL     1     -19.107 -27.184   1.988  0.00  0.00    -0.004 A 
ATOM     28  N   UNL     1     -19.405 -25.934   1.724  0.00  0.00    -0.167 NA
ATOM     29  N   UNL     1     -20.762 -25.708   1.937  0.00  0.00    -0.107 N 
BRANCH  29  30
ATOM     30  C   UNL     1     -21.430 -24.480   1.716  0.00  0.00    +0.123 A 
ATOM     31  C   UNL     1     -22.425 -23.992   2.580  0.00  0.00    +0.033 A 
ATOM     32  C   UNL     1     -23.082 -22.799   2.271  0.00  0.00    -0.006 A 
ATOM     33  C   UNL     1     -22.687 -22.068   1.141  0.00  0.00    -0.049 A 
ATOM     34  C   UNL     1     -23.374 -20.763   0.786  0.00  0.00    +0.083 C 
ATOM     35  C   UNL     1     -21.674 -22.540   0.301  0.00  0.00    -0.006 A 
ATOM     36  C   UNL     1     -21.072 -23.758   0.578  0.00  0.00    +0.033 A 
ENDBRANCH  29  30
BRANCH  23  24
ATOM     24  C   UNL     1     -17.752 -27.827   1.793  0.00  0.00    -0.046 C 
ATOM     25  C   UNL     1     -17.244 -28.597   3.014  0.00  0.00    -0.047 C 
ATOM     26  C   UNL     1     -16.737 -26.757   1.386  0.00  0.00    -0.047 C 
ATOM     27  C   UNL     1     -17.842 -28.812   0.628  0.00  0.00    -0.047 C 
ENDBRANCH  23  24
ENDBRANCH  19  21
TORSDOF 5
