REMARK  Name = 4F7J
REMARK  10 active torsions:
REMARK  status: ('A' for Active; 'I' for Inactive)
REMARK    1  A    between atoms: N_3  and  C_4
REMARK    2  A    between atoms: C_4  and  C_5
REMARK    3  A    between atoms: C_5  and  O_6
REMARK    4  A    between atoms: N_7  and  C_8
REMARK    5  A    between atoms: C_10  and  C_11
REMARK    6  A    between atoms: C_11  and  C_12
REMARK    7  A    between atoms: C_11  and  C_13
REMARK    8  A    between atoms: C_11  and  C_14
REMARK    9  A    between atoms: N_16  and  C_17
REMARK   10  A    between atoms: C_21  and  C_22
REMARK                            x       y       z     vdW  Elec       q    Type
REMARK                         _______ _______ _______ _____ _____    ______ ____
ROOT
ATOM      5  C   UNL     1      -3.857 -21.378 153.086  0.00  0.00    +0.130 A 
ATOM      6  N   UNL     1      -3.054 -20.791 153.996  0.00  0.00    -0.218 N 
ATOM     14  N   UNL     1      -3.708 -20.008 154.735  0.00  0.00    -0.169 NA
ATOM     15  C   UNL     1      -5.004 -20.028 154.394  0.00  0.00    +0.071 A 
ATOM     20  C   UNL     1      -5.132 -20.900 153.339  0.00  0.00    +0.069 A 
ENDROOT
BRANCH   6   7
ATOM      7  C   UNL     1      -1.593 -20.911 154.184  0.00  0.00    +0.067 A 
ATOM      8  C   UNL     1      -0.701 -20.816 153.107  0.00  0.00    +0.028 A 
ATOM      9  C   UNL     1       0.667 -20.890 153.317  0.00  0.00    +0.005 A 
ATOM     10  C   UNL     1       1.163 -21.046 154.613  0.00  0.00    -0.050 A 
ATOM     11  C   UNL     1       0.279 -21.119 155.688  0.00  0.00    +0.005 A 
ATOM     12  C   UNL     1       2.654 -21.138 154.863  0.00  0.00    +0.044 C 
ATOM     13  C   UNL     1      -1.088 -21.048 155.476  0.00  0.00    +0.028 A 
ENDBRANCH   6   7
BRANCH   5   3
ATOM      1  O   UNL     1      -5.216 -22.211 150.648  0.00  0.00    -0.253 OA
ATOM      2  C   UNL     1      -4.098 -22.599 150.899  0.00  0.00    +0.305 C 
ATOM      3  N   UNL     1      -3.416 -22.268 152.062  0.00  0.00    -0.254 N 
ATOM      4  H   UNL     1      -2.461 -22.728 152.205  0.00  0.00    +0.158 HD
ATOM     21  N   UNL     1      -3.446 -23.445 150.024  0.00  0.00    -0.297 N 
ATOM     22  H   UNL     1      -2.466 -23.767 150.306  0.00  0.00    +0.150 HD
BRANCH  21  23
ATOM     23  C   UNL     1      -3.965 -23.947 148.743  0.00  0.00    +0.133 C 
BRANCH  23  24
ATOM     24  C   UNL     1      -2.934 -23.759 147.629  0.00  0.00    +0.174 C 
BRANCH  24  25
ATOM     25  O   UNL     1      -1.693 -23.238 148.114  0.00  0.00    -0.394 OA
ATOM     26  H   UNL     1      -1.857 -22.303 148.564  0.00  0.00    +0.209 HD
ENDBRANCH  24  25
ENDBRANCH  23  24
ENDBRANCH  21  23
ENDBRANCH   5   3
BRANCH  15  16
ATOM     16  C   UNL     1      -6.088 -19.205 155.083  0.00  0.00    +0.006 C 
ATOM     17  C   UNL     1      -5.426 -18.298 156.127  0.00  0.00    +0.017 C 
ATOM     18  C   UNL     1      -7.115 -20.117 155.756  0.00  0.00    +0.017 C 
ATOM     19  C   UNL     1      -6.811 -18.330 154.048  0.00  0.00    +0.017 C 
ENDBRANCH  15  16
TORSDOF 6
