REMARK  Name = 5OY4
REMARK  4 active torsions:
REMARK  status: ('A' for Active; 'I' for Inactive)
REMARK    1  A    between atoms: C_1  and  C_17
REMARK    2  A    between atoms: C_4  and  O_19
REMARK    3  A    between atoms: C_6  and  C_7
REMARK    4  A    between atoms: C_20  and  O_21
REMARK                            x       y       z     vdW  Elec       q    Type
REMARK                         _______ _______ _______ _____ _____    ______ ____
ROOT
ATOM      1  C   UNL     1     102.135  24.345  -9.336  0.00  0.00    +0.073 A 
ATOM     12  C   UNL     1     103.515  24.122  -9.531  0.00  0.00    +0.029 A 
ATOM     13  C   UNL     1     104.255  24.993 -10.319  0.00  0.00    +0.017 A 
ATOM     14  C   UNL     1     103.584  26.069 -10.883  0.00  0.00    +0.060 A 
ATOM     15  C   UNL     1     102.218  26.214 -10.633  0.00  0.00    +0.158 A 
ATOM     16  N   UNL     1     101.819  27.332 -11.296  0.00  0.00    -0.258 N 
ATOM     17  H   UNL     1     100.814  27.700 -11.289  0.00  0.00    +0.191 HD
ATOM     18  N   UNL     1     102.855  27.942 -11.980  0.00  0.00    -0.156 NA
ATOM     19  C   UNL     1     103.925  27.195 -11.740  0.00  0.00    +0.156 A 
ATOM     20  N   UNL     1     105.183  27.476 -12.261  0.00  0.00    -0.269 N 
ATOM     21  H   UNL     1     105.209  27.841 -13.266  0.00  0.00    +0.156 HD
ATOM     22  C   UNL     1     106.396  27.338 -11.632  0.00  0.00    +0.215 C 
ATOM     23  O   UNL     1     106.503  26.928 -10.480  0.00  0.00    -0.276 OA
ATOM     24  C   UNL     1     107.592  27.723 -12.452  0.00  0.00    +0.109 C 
ATOM     25  N   UNL     1     101.464  25.401  -9.883  0.00  0.00    -0.228 NA
ENDROOT
BRANCH   1   2
ATOM      2  C   UNL     1     101.312  23.445  -8.490  0.00  0.00    +0.004 A 
ATOM      3  C   UNL     1     100.229  23.970  -7.774  0.00  0.00    +0.059 A 
ATOM      4  C   UNL     1      99.445  23.158  -6.972  0.00  0.00    +0.159 A 
ATOM      7  C   UNL     1      99.732  21.792  -6.869  0.00  0.00    +0.158 A 
ATOM     10  C   UNL     1     100.810  21.258  -7.573  0.00  0.00    +0.050 A 
ATOM     11  C   UNL     1     101.591  22.078  -8.372  0.00  0.00    +0.014 A 
BRANCH   4   5
ATOM      5  O   UNL     1      98.397  23.696  -6.291  0.00  0.00    -0.503 OA
ATOM      6  H   UNL     1      97.506  23.231  -6.595  0.00  0.00    +0.292 HD
ENDBRANCH   4   5
BRANCH   7   8
ATOM      8  O   UNL     1      98.934  21.042  -6.069  0.00  0.00    -0.503 OA
ATOM      9  H   UNL     1      98.480  20.285  -6.637  0.00  0.00    +0.292 HD
ENDBRANCH   7   8
ENDBRANCH   1   2
TORSDOF 3
