REMARK  Name = 4MNF
REMARK  6 active torsions:
REMARK  status: ('A' for Active; 'I' for Inactive)
REMARK    1  A    between atoms: C_6  and  C_7
REMARK    2  A    between atoms: N_9  and  C_18
REMARK    3  A    between atoms: C_11  and  C_12
REMARK    4  A    between atoms: C_18  and  C_19
REMARK    5  A    between atoms: C_19  and  O_20
REMARK    6  A    between atoms: N_24  and  O_25
REMARK                            x       y       z     vdW  Elec       q    Type
REMARK                         _______ _______ _______ _____ _____    ______ ____
ROOT
ATOM      3  C   UNL     1       6.840  16.535 -46.995  0.00  0.00    -0.002 C 
ATOM      4  C   UNL     1       8.169  16.419 -47.465  0.00  0.00    +0.054 C 
ATOM     11  N   UNL     1       8.400  15.134 -47.605  0.00  0.00    -0.277 N 
ATOM     12  H   UNL     1       9.325  14.711 -47.938  0.00  0.00    +0.167 HD
ATOM     13  N   UNL     1       7.265  14.398 -47.257  0.00  0.00    -0.223 NA
ATOM     18  C   UNL     1       6.313  15.281 -46.882  0.00  0.00    +0.143 C 
ENDROOT
BRANCH   3   2
ATOM      1  C   UNL     1       5.205  17.752 -45.638  0.00  0.00    +0.009 A 
ATOM      2  C   UNL     1       6.126  17.773 -46.676  0.00  0.00    -0.018 A 
ATOM     19  C   UNL     1       6.372  18.935 -47.408  0.00  0.00    +0.012 A 
ATOM     20  C   UNL     1       5.701  20.089 -47.089  0.00  0.00    -0.037 A 
ATOM     21  C   UNL     1       5.766  21.465 -47.694  0.00  0.00    +0.042 C 
ATOM     22  C   UNL     1       4.721  22.301 -46.945  0.00  0.00    +0.064 C 
ATOM     23  C   UNL     1       4.168  21.396 -45.876  0.00  0.00    +0.088 C 
ATOM     24  N   UNL     1       3.338  21.703 -44.945  0.00  0.00    -0.091 NA
ATOM     27  C   UNL     1       4.766  20.069 -46.051  0.00  0.00    +0.003 A 
ATOM     28  C   UNL     1       4.526  18.896 -45.320  0.00  0.00    +0.010 A 
BRANCH  24  25
ATOM     25  O   UNL     1       2.831  23.017 -44.845  0.00  0.00    -0.409 OA
ATOM     26  H   UNL     1       3.625  23.689 -44.703  0.00  0.00    +0.328 HD
ENDBRANCH  24  25
ENDBRANCH   3   2
BRANCH   4   5
ATOM      5  C   UNL     1       9.205  17.443 -47.733  0.00  0.00    +0.000 A 
ATOM      6  C   UNL     1      10.051  17.308 -48.842  0.00  0.00    +0.029 A 
ATOM      7  C   UNL     1      11.044  18.238 -49.062  0.00  0.00    +0.111 A 
ATOM      8  N   UNL     1      11.214  19.248 -48.232  0.00  0.00    -0.263 NA
ATOM      9  C   UNL     1      10.446  19.409 -47.163  0.00  0.00    +0.111 A 
ATOM     10  C   UNL     1       9.438  18.515 -46.866  0.00  0.00    +0.029 A 
ENDBRANCH   4   5
BRANCH  13  14
ATOM     14  C   UNL     1       7.175  12.934 -47.325  0.00  0.00    +0.133 C 
BRANCH  14  15
ATOM     15  C   UNL     1       6.497  12.390 -46.071  0.00  0.00    +0.173 C 
BRANCH  15  16
ATOM     16  O   UNL     1       7.137  12.906 -44.904  0.00  0.00    -0.394 OA
ATOM     17  H   UNL     1       8.147  12.618 -44.902  0.00  0.00    +0.209 HD
ENDBRANCH  15  16
ENDBRANCH  14  15
ENDBRANCH  13  14
TORSDOF 6
