REMARK  Name = 6SF
REMARK  3 active torsions:
REMARK  status: ('A' for Active; 'I' for Inactive)
REMARK    1  A    between atoms: C7_4  and  C6_11
REMARK    2  A    between atoms: C5_8  and  O_10
REMARK    3  A    between atoms: O_10  and  C6_11
REMARK                            x       y       z     vdW  Elec       q    Type
REMARK                         _______ _______ _______ _____ _____    ______ ____
ROOT
ATOM      1  C   UNL     1      19.517  37.454  -1.290  0.00  0.00    +0.015 A 
ATOM      2  C   UNL     1      19.080  36.682  -0.226  0.00  0.00    +0.038 A 
ATOM      3  C   UNL     1      19.570  36.928   1.052  0.00  0.00    +0.140 A 
ATOM      8  C   UNL     1      20.492  37.942   1.268  0.00  0.00    +0.049 A 
ATOM      9  C   UNL     1      20.921  38.705   0.200  0.00  0.00    +0.071 A 
ATOM     10 CL   UNL     1      22.072  39.965   0.492  0.00  0.00    -0.081 Cl
ATOM     11  C   UNL     1      20.437  38.464  -1.078  0.00  0.00    +0.068 A 
ATOM     12 CL   UNL     1      20.969  39.417  -2.418  0.00  0.00    -0.081 Cl
ENDROOT
BRANCH   3   4
ATOM      4  O   UNL     1      19.104  36.134   2.072  0.00  0.00    -0.474 OA
BRANCH   4   5
ATOM      5  C   UNL     1      19.588  36.358   3.411  0.00  0.00    +0.226 C 
BRANCH   5   6
ATOM      6  C   UNL     1      18.902  35.328   4.347  0.00  0.00    +0.157 C 
ATOM      7  N   UNL     1      17.455  35.462   4.132  0.00  0.00    -0.127 NA
ENDBRANCH   5   6
ENDBRANCH   4   5
ENDBRANCH   3   4
TORSDOF 3
