REMARK  Name = 4mha_ligand
REMARK  11 active torsions:
REMARK  status: ('A' for Active; 'I' for Inactive)
REMARK    1  A    between atoms: C01_1  and  C02_2
REMARK    2  A    between atoms: C02_2  and  C03_3
REMARK    3  A    between atoms: C03_3  and  C04_4
REMARK    4  A    between atoms: C04_4  and  N05_5
REMARK    5  A    between atoms: C09_9  and  C10_10
REMARK    6  A    between atoms: N12_12  and  C13_13
REMARK    7  A    between atoms: C13_13  and  C14_14
REMARK    8  A    between atoms: C17_17  and  S20_20
REMARK    9  A    between atoms: S20_20  and  N23_23
REMARK   10  A    between atoms: N25_25  and  C26_26
REMARK   11  A    between atoms: C29_29  and  O30_30
REMARK                            x       y       z     vdW  Elec       q    Type
REMARK                         _______ _______ _______ _____ _____    ______ ____
ROOT
ATOM      5  N   UNL     1       3.597   0.068  20.302  0.00  0.00    -0.290 N 
ATOM      6  H   UNL     1       4.149  -0.799  20.234  0.00  0.00    +0.188 HD
ATOM      7  C   UNL     1       3.351   0.857  19.092  0.00  0.00    +0.178 A 
ATOM      8  N   UNL     1       4.199   1.897  18.775  0.00  0.00    -0.236 NA
ATOM      9  C   UNL     1       4.000   2.648  17.674  0.00  0.00    +0.135 A 
ATOM     10  N   UNL     1       4.911   3.739  17.361  0.00  0.00    -0.296 N 
ATOM     11  H   UNL     1       5.669   3.584  16.682  0.00  0.00    +0.187 HD
ATOM     20  C   UNL     1       2.892   2.355  16.824  0.00  0.00    +0.104 A 
ATOM     38  C   UNL     1       2.050   1.288  17.177  0.00  0.00    +0.111 A 
ATOM     39  N   UNL     1       2.291   0.556  18.307  0.00  0.00    -0.266 NA
ENDROOT
BRANCH  10  12
ATOM     12  C   UNL     1       4.774   5.021  17.978  0.00  0.00    +0.098 C 
ATOM     13  C   UNL     1       4.417   4.841  19.451  0.00  0.00    +0.031 C 
ATOM     14  C   UNL     1       4.500   6.138  20.231  0.00  0.00    +0.034 C 
ATOM     15  C   UNL     1       5.834   6.834  20.043  0.00  0.00    +0.115 C 
ATOM     18  C   UNL     1       6.145   7.057  18.570  0.00  0.00    +0.034 C 
ATOM     19  C   UNL     1       6.081   5.771  17.777  0.00  0.00    +0.031 C 
BRANCH  15  16
ATOM     16  O   UNL     1       5.800   8.089  20.708  0.00  0.00    -0.392 OA
ATOM     17  H   UNL     1       5.606   7.954  21.628  0.00  0.00    +0.210 HD
ENDBRANCH  15  16
ENDBRANCH  10  12
BRANCH  20  21
ATOM     21  C   UNL     1       2.610   3.175  15.548  0.00  0.00    +0.203 C 
ATOM     22  N   UNL     1       1.665   2.649  14.568  0.00  0.00    -0.277 N 
ATOM     23  H   UNL     1       1.224   1.769  14.744  0.00  0.00    +0.187 HD
ATOM     37  O   UNL     1       3.171   4.237  15.369  0.00  0.00    -0.393 OA
BRANCH  22  24
ATOM     24  C   UNL     1       1.349   3.355  13.359  0.00  0.00    +0.200 C 
BRANCH  24  25
ATOM     25  C   UNL     1       1.792   2.522  12.133  0.00  0.00    -0.021 A 
ATOM     26  C   UNL     1       0.871   2.188  11.146  0.00  0.00    -0.001 A 
ATOM     27  C   UNL     1       1.277   1.435  10.044  0.00  0.00    +0.020 A 
ATOM     28  C   UNL     1       2.589   1.026   9.936  0.00  0.00    +0.101 A 
ATOM     35  C   UNL     1       3.507   1.363  10.921  0.00  0.00    +0.020 A 
ATOM     36  C   UNL     1       3.099   2.113  12.025  0.00  0.00    -0.001 A 
BRANCH  28  29
ATOM     29  S   UNL     1       3.110   0.069   8.535  0.00  0.00    +0.063 S 
ATOM     33  O   UNL     1       2.537   0.567   7.323  0.00  0.00    -0.151 OA
ATOM     34  O   UNL     1       4.508   0.246   8.278  0.00  0.00    -0.151 OA
BRANCH  29  30
ATOM     30  N   UNL     1       2.741  -1.526   8.768  0.00  0.00    -0.262 NA
ATOM     31  H   UNL     1       2.288  -1.817   9.611  0.00  0.00    +0.163 HD
ATOM     32  H   UNL     1       2.971  -2.200   8.066  0.00  0.00    +0.163 HD
ENDBRANCH  29  30
ENDBRANCH  28  29
ENDBRANCH  24  25
ENDBRANCH  22  24
ENDBRANCH  20  21
BRANCH   5   4
ATOM      4  C   UNL     1       3.084   0.477  21.582  0.00  0.00    +0.137 C 
BRANCH   4   3
ATOM      3  C   UNL     1       3.280   1.987  21.865  0.00  0.00    +0.025 C 
BRANCH   3   2
ATOM      1  C   UNL     1       4.553   3.305  23.614  0.00  0.00    +0.004 C 
ATOM      2  C   UNL     1       4.642   2.313  22.450  0.00  0.00    -0.001 C 
ENDBRANCH   3   2
ENDBRANCH   4   3
ENDBRANCH   5   4
TORSDOF 10
