REMARK  Name = 2ZIA
REMARK  8 active torsions:
REMARK  status: ('A' for Active; 'I' for Inactive)
REMARK    1  A    between atoms: N_1  and  C_9
REMARK    2  A    between atoms: C_10  and  O_11
REMARK    3  A    between atoms: C_12  and  O_15
REMARK    4  A    between atoms: C_13  and  C_16
REMARK    5  A    between atoms: C_16  and  O_17
REMARK    6  A    between atoms: O_17  and  P_18
REMARK    7  A    between atoms: P_18  and  O_21
REMARK    8  A    between atoms: O_21  and  P_22
REMARK                            x       y       z     vdW  Elec       q    Type
REMARK                         _______ _______ _______ _____ _____    ______ ____
ROOT
ATOM      2  C   UNL     1       1.949   9.208  47.226  0.00  0.00    +0.255 C 
ATOM      3  O   UNL     1       0.999   8.218  46.870  0.00  0.00    -0.346 OA
ATOM      4  C   UNL     1       0.148   8.766  45.855  0.00  0.00    +0.178 C 
ATOM     15  C   UNL     1       0.574  10.191  45.547  0.00  0.00    +0.178 C 
ATOM     18  C   UNL     1       2.003  10.166  46.067  0.00  0.00    +0.195 C 
ENDROOT
BRANCH   2   1
ATOM      1  N   UNL     1       3.219   8.573  47.544  0.00  0.00    -0.272 N 
ATOM     21  C   UNL     1       3.797   7.751  46.629  0.00  0.00    +0.098 C 
ATOM     22  C   UNL     1       5.010   7.129  46.927  0.00  0.00    +0.088 C 
ATOM     23  C   UNL     1       5.598   7.396  48.178  0.00  0.00    +0.254 C 
ATOM     24  O   UNL     1       6.666   6.874  48.457  0.00  0.00    -0.268 OA
ATOM     25  N   UNL     1       5.034   8.226  49.111  0.00  0.00    -0.275 N 
ATOM     26  H   UNL     1       5.505   8.411  50.054  0.00  0.00    +0.173 HD
ATOM     27  C   UNL     1       3.839   8.807  48.780  0.00  0.00    +0.331 C 
ATOM     28  O   UNL     1       3.327   9.530  49.582  0.00  0.00    -0.246 OA
ENDBRANCH   2   1
BRANCH  15  16
ATOM     16  O   UNL     1      -0.151  11.015  46.391  0.00  0.00    -0.386 OA
ATOM     17  H   UNL     1      -0.119  10.631  47.368  0.00  0.00    +0.210 HD
ENDBRANCH  15  16
BRANCH  18  19
ATOM     19  O   UNL     1       2.334  11.434  46.505  0.00  0.00    -0.385 OA
ATOM     20  H   UNL     1       1.612  11.768  47.191  0.00  0.00    +0.210 HD
ENDBRANCH  18  19
BRANCH   4   5
ATOM      5  C   UNL     1       0.164   7.938  44.549  0.00  0.00    +0.202 C 
BRANCH   5   6
ATOM      6  O   UNL     1       1.579   7.913  44.028  0.00  0.00    -0.325 OA
BRANCH   6   7
ATOM      7  P   UNL     1       1.737   8.236  42.486  0.00  0.00    +0.215 P 
ATOM     13  O   UNL     1       3.114   8.343  42.117  0.00  0.00    -0.517 OA
ATOM     14  O   UNL     1       0.945   9.316  41.862  0.00  0.00    -0.437 OA
BRANCH   7   8
ATOM      8  O   UNL     1       1.225   6.818  41.860  0.00  0.00    -0.314 OA
BRANCH   8   9
ATOM      9  P   UNL     1       0.993   6.274  40.332  0.00  0.00    -0.007 P 
ATOM     10  O   UNL     1       1.399   4.885  40.433  0.00  0.00    -0.637 OA
ATOM     11  O   UNL     1      -0.480   6.196  40.138  0.00  0.00    -0.577 OA
ATOM     12  O   UNL     1       1.680   7.149  39.386  0.00  0.00    -0.577 OA
ENDBRANCH   8   9
ENDBRANCH   7   8
ENDBRANCH   6   7
ENDBRANCH   5   6
ENDBRANCH   4   5
TORSDOF 8
