REMARK  Name = YDJ
REMARK  4 active torsions:
REMARK  status: ('A' for Active; 'I' for Inactive)
REMARK    1  A    between atoms: C3_3  and  C7_8
REMARK    2  A    between atoms: C9_10  and  N3_22
REMARK    3  A    between atoms: C10_11  and  C11_13
REMARK    4  A    between atoms: N1_15  and  C12_16
REMARK                            x       y       z     vdW  Elec       q    Type
REMARK                         _______ _______ _______ _____ _____    ______ ____
ROOT
ATOM      7  C   UNL     1      -3.378  -8.023   2.710  0.00  0.00    +0.031 A 
ATOM      8  C   UNL     1      -2.291  -7.226   2.218  0.00  0.00    +0.024 A 
ATOM      9  C   UNL     1      -2.732  -6.631   0.841  0.00  0.00    +0.086 A 
ATOM     10  C   UNL     1      -4.073  -7.066   0.539  0.00  0.00    +0.100 A 
ATOM     24  S   UNL     1      -4.590  -8.007   1.687  0.00  0.00    -0.081 S 
ENDROOT
BRANCH   7   6
ATOM      1  C   UNL     1      -1.993  -9.145   6.056  0.00  0.00    +0.002 A 
ATOM      2  C   UNL     1      -2.808 -10.220   6.331  0.00  0.00    +0.030 A 
ATOM      3  C   UNL     1      -3.797 -10.576   5.427  0.00  0.00    +0.140 A 
ATOM      4  F   UNL     1      -4.630 -11.627   5.649  0.00  0.00    -0.204 F 
ATOM      5  C   UNL     1      -3.984  -9.865   4.266  0.00  0.00    +0.030 A 
ATOM      6  C   UNL     1      -3.188  -8.766   4.015  0.00  0.00    +0.008 A 
ATOM     25  C   UNL     1      -2.169  -8.427   4.886  0.00  0.00    +0.001 A 
ENDBRANCH   7   6
BRANCH   9  20
ATOM     20  N   UNL     1      -1.999  -5.762  -0.024  0.00  0.00    -0.159 NA
ATOM     21  C   UNL     1      -0.688  -5.278   0.328  0.00  0.00    +0.363 C 
ATOM     22  O   UNL     1      -0.162  -5.596   1.345  0.00  0.00    -0.247 OA
ATOM     23  N   UNL     1      -0.048  -4.405  -0.629  0.00  0.00    -0.068 NA
ENDBRANCH   9  20
BRANCH  10  11
ATOM     11  C   UNL     1      -4.663  -6.608  -0.783  0.00  0.00    +0.272 C 
ATOM     12  N   UNL     1      -5.849  -7.230  -1.222  0.00  0.00    -0.197 NA
ATOM     19  O   UNL     1      -4.121  -5.796  -1.479  0.00  0.00    -0.268 OA
BRANCH  12  13
ATOM     13  C   UNL     1      -6.441  -6.906  -2.502  0.00  0.00    +0.135 C 
ATOM     14  C   UNL     1      -7.042  -5.520  -2.574  0.00  0.00    +0.115 C 
ATOM     15  N   UNL     1      -7.663  -5.407  -3.858  0.00  0.00    -0.211 NA
ATOM     16  C   UNL     1      -8.931  -6.060  -3.776  0.00  0.00    +0.115 C 
ATOM     17  C   UNL     1      -8.836  -7.507  -3.333  0.00  0.00    -0.010 C 
ATOM     18  C   UNL     1      -7.533  -7.976  -2.696  0.00  0.00    -0.007 C 
ENDBRANCH  12  13
ENDBRANCH  10  11
TORSDOF 4
