REMARK  Name = 2p3g_ligand
REMARK  2 active torsions:
REMARK  status: ('A' for Active; 'I' for Inactive)
REMARK    1  A    between atoms: C12_14  and  C13_15
REMARK    2  A    between atoms: C2_16  and  C4_17
REMARK                            x       y       z     vdW  Elec       q    Type
REMARK                         _______ _______ _______ _____ _____    ______ ____
ROOT
ATOM      9  C   UNL     1      83.358 261.189 107.788  0.00  0.00    +0.007 A 
ATOM     10  C   UNL     1      83.847 261.541 106.551  0.00  0.00    +0.029 A 
ATOM     11  C   UNL     1      82.971 261.901 105.562  0.00  0.00    +0.079 A 
ATOM     12  N   UNL     1      81.650 261.932 105.722  0.00  0.00    -0.305 NA
ATOM     13  C   UNL     1      81.182 261.595 106.929  0.00  0.00    +0.043 A 
ATOM     21  C   UNL     1      81.992 261.223 107.986  0.00  0.00    +0.037 A 
ENDROOT
BRANCH   9   8
ATOM      1  N   UNL     1      87.762 260.157 111.641  0.00  0.00    -0.290 N 
ATOM      2  H   UNL     1      88.648 259.849 111.987  0.00  0.00    +0.184 HD
ATOM      3  C   UNL     1      87.668 260.479 110.300  0.00  0.00    +0.175 C 
ATOM      4  C   UNL     1      86.293 260.498 109.898  0.00  0.00    +0.041 A 
ATOM      5  C   UNL     1      85.264 260.090 110.706  0.00  0.00    +0.072 A 
ATOM      6  N   UNL     1      84.089 260.264 110.026  0.00  0.00    -0.271 N 
ATOM      7  H   UNL     1      83.156 260.024 110.390  0.00  0.00    +0.235 HD
ATOM      8  C   UNL     1      84.335 260.805 108.788  0.00  0.00    +0.064 A 
ATOM     22  C   UNL     1      85.399 259.569 112.061  0.00  0.00    +0.133 C 
ATOM     23  C   UNL     1      85.705 260.945 108.695  0.00  0.00    -0.019 A 
ATOM     24  O   UNL     1      88.597 260.745 109.539  0.00  0.00    -0.404 OA
ATOM     25  C   UNL     1      86.655 260.238 112.580  0.00  0.00    +0.153 C 
ENDBRANCH   9   8
BRANCH  13  14
ATOM     14  C   UNL     1      79.736 261.653 106.973  0.00  0.00    +0.031 A 
ATOM     15  C   UNL     1      78.954 260.777 107.696  0.00  0.00    +0.145 A 
ATOM     16  F   UNL     1      79.522 259.828 108.441  0.00  0.00    -0.180 F 
ATOM     17  C   UNL     1      77.579 260.836 107.691  0.00  0.00    +0.036 A 
ATOM     18  C   UNL     1      76.948 261.791 106.930  0.00  0.00    +0.000 A 
ATOM     19  C   UNL     1      77.706 262.678 106.198  0.00  0.00    -0.004 A 
ATOM     20  C   UNL     1      79.080 262.605 106.223  0.00  0.00    +0.010 A 
ENDBRANCH  13  14
TORSDOF 2
