REMARK  Name = 5XGM
REMARK  4 active torsions:
REMARK  status: ('A' for Active; 'I' for Inactive)
REMARK    1  A    between atoms: N_14  and  C_15
REMARK    2  A    between atoms: N_25  and  C_26
REMARK    3  A    between atoms: C_26  and  C_27
REMARK    4  A    between atoms: C_27  and  C_28
REMARK                            x       y       z     vdW  Elec       q    Type
REMARK                         _______ _______ _______ _____ _____    ______ ____
ROOT
ATOM      1  O   UNL     1     -53.955   2.071 -21.384  0.00  0.00    -0.268 OA
ATOM      2  C   UNL     1     -53.356   1.668 -22.374  0.00  0.00    +0.269 C 
ATOM      3  C   UNL     1     -52.206   1.000 -22.337  0.00  0.00    +0.058 A 
ATOM      4  C   UNL     1     -51.444   0.600 -21.320  0.00  0.00    +0.022 A 
ATOM      5  C   UNL     1     -50.317  -0.060 -21.558  0.00  0.00    +0.075 A 
ATOM      6  C   UNL     1     -49.946  -0.323 -22.798  0.00  0.00    +0.075 A 
ATOM      7  N   UNL     1     -48.887  -0.954 -23.284  0.00  0.00    -0.337 N 
ATOM     12  C   UNL     1     -48.977  -0.953 -24.606  0.00  0.00    +0.050 A 
ATOM     13  C   UNL     1     -48.171  -1.456 -25.534  0.00  0.00    +0.026 A 
ATOM     14  C   UNL     1     -48.477  -1.328 -26.878  0.00  0.00    +0.002 A 
ATOM     15  C   UNL     1     -49.642  -0.669 -27.227  0.00  0.00    +0.001 A 
ATOM     16  C   UNL     1     -50.445  -0.166 -26.214  0.00  0.00    +0.010 A 
ATOM     17  C   UNL     1     -50.100  -0.317 -24.937  0.00  0.00    +0.008 A 
ATOM     18  C   UNL     1     -50.699   0.071 -23.814  0.00  0.00    +0.019 A 
ATOM     19  N   UNL     1     -49.746  -0.347 -20.399  0.00  0.00    -0.341 N 
ATOM     20  C   UNL     1     -48.476  -1.075 -20.238  0.00  0.00    +0.149 C 
ATOM     21  C   UNL     1     -50.513   0.131 -19.432  0.00  0.00    +0.050 A 
ATOM     22  C   UNL     1     -50.368   0.098 -18.114  0.00  0.00    +0.026 A 
ATOM     23  C   UNL     1     -51.315   0.683 -17.293  0.00  0.00    +0.002 A 
ATOM     24  C   UNL     1     -52.406   1.292 -17.879  0.00  0.00    +0.001 A 
ATOM     25  C   UNL     1     -52.504   1.292 -19.259  0.00  0.00    +0.010 A 
ATOM     26  C   UNL     1     -51.565   0.720 -20.001  0.00  0.00    +0.008 A 
ATOM     27  C   UNL     1     -51.827   0.734 -23.588  0.00  0.00    +0.013 A 
ATOM     28  C   UNL     1     -52.768   1.242 -24.469  0.00  0.00    +0.110 C 
ATOM     29  N   UNL     1     -53.772   1.866 -23.609  0.00  0.00    -0.184 NA
ENDROOT
BRANCH   7   8
ATOM      8  C   UNL     1     -47.793  -1.561 -22.500  0.00  0.00    +0.137 C 
BRANCH   8   9
ATOM      9  C   UNL     1     -47.501  -2.982 -22.998  0.00  0.00    +0.140 C 
BRANCH   9  10
ATOM     10  C   UNL     1     -47.521  -3.928 -21.872  0.00  0.00    +0.064 C 
ATOM     11  N   UNL     1     -47.535  -4.653 -21.005  0.00  0.00    -0.197 NA
ENDBRANCH   9  10
ENDBRANCH   8   9
ENDBRANCH   7   8
TORSDOF 3
