REMARK  Name = 4an9_ligand
REMARK  4 active torsions:
REMARK  status: ('A' for Active; 'I' for Inactive)
REMARK    1  A    between atoms: C5_1  and  N8_7
REMARK    2  A    between atoms: N8_7  and  C9_8
REMARK    3  A    between atoms: C14_9  and  C15_14
REMARK    4  A    between atoms: C19_17  and  O21_19
REMARK                            x       y       z     vdW  Elec       q    Type
REMARK                         _______ _______ _______ _____ _____    ______ ____
ROOT
ATOM      4  C   UNL     1     -26.513 -22.367  -4.049  0.00  0.00    +0.112 A 
ATOM      5  C   UNL     1     -25.940 -23.288  -3.208  0.00  0.00    +0.191 A 
ATOM      6  F   UNL     1     -26.362 -24.551  -3.345  0.00  0.00    -0.191 F 
ATOM      7  C   UNL     1     -24.964 -22.919  -2.270  0.00  0.00    +0.161 A 
ATOM      8  F   UNL     1     -24.393 -23.824  -1.425  0.00  0.00    -0.184 F 
ATOM      9  C   UNL     1     -24.569 -21.580  -2.197  0.00  0.00    +0.014 A 
ATOM     10  C   UNL     1     -25.124 -20.625  -3.046  0.00  0.00    +0.002 A 
ATOM     11  C   UNL     1     -26.071 -21.015  -3.973  0.00  0.00    +0.066 A 
ENDROOT
BRANCH  11  12
ATOM     12  C   UNL     1     -26.658 -19.961  -4.869  0.00  0.00    +0.197 C 
ATOM     13  O   UNL     1     -26.996 -20.431  -5.967  0.00  0.00    -0.393 OA
ATOM     14  N   UNL     1     -26.815 -18.634  -4.461  0.00  0.00    -0.270 N 
ATOM     15  C   UNL     1     -27.377 -17.428  -5.124  0.00  0.00    +0.170 C 
ATOM     16  C   UNL     1     -27.093 -16.721  -3.800  0.00  0.00    +0.159 C 
ATOM     19  C   UNL     1     -26.482 -17.986  -3.191  0.00  0.00    +0.170 C 
BRANCH  16  17
ATOM     17  O   UNL     1     -28.246 -16.331  -3.024  0.00  0.00    -0.388 OA
ATOM     18  H   UNL     1     -28.632 -15.538  -3.403  0.00  0.00    +0.210 HD
ENDBRANCH  16  17
ENDBRANCH  11  12
BRANCH   4   2
ATOM      2  N   UNL     1     -27.448 -22.836  -4.954  0.00  0.00    -0.270 N 
ATOM      3  H   UNL     1     -27.305 -22.558  -5.925  0.00  0.00    +0.209 HD
BRANCH   2   1
ATOM      1  C   UNL     1     -28.553 -23.634  -4.712  0.00  0.00    +0.096 A 
ATOM     20  C   UNL     1     -29.422 -23.985  -5.752  0.00  0.00    +0.156 A 
ATOM     21  F   UNL     1     -29.208 -23.565  -7.014  0.00  0.00    -0.191 F 
ATOM     22  C   UNL     1     -30.540 -24.765  -5.534  0.00  0.00    +0.032 A 
ATOM     23  C   UNL     1     -30.863 -25.250  -4.283  0.00  0.00    -0.005 A 
ATOM     24  I   UNL     1     -32.584 -26.495  -4.005  0.00  0.00    -0.061 I 
ATOM     25  C   UNL     1     -30.003 -24.920  -3.236  0.00  0.00    -0.007 A 
ATOM     26  C   UNL     1     -28.873 -24.117  -3.441  0.00  0.00    +0.014 A 
ENDBRANCH   2   1
ENDBRANCH   4   2
TORSDOF 4
