REMARK  Name = 6FW
REMARK  3 active torsions:
REMARK  status: ('A' for Active; 'I' for Inactive)
REMARK    1  A    between atoms: C17_4  and  S18_24
REMARK    2  A    between atoms: C05_15  and  N07_17
REMARK    3  A    between atoms: S18_24  and  C19_25
REMARK                            x       y       z     vdW  Elec       q    Type
REMARK                         _______ _______ _______ _____ _____    ______ ____
ROOT
ATOM      1  H   UNK     1      22.060   9.000   3.000  0.00  0.00    +0.000 HD
ENDROOT
TORSDOF 0
