REMARK  Name = 3vhk_ligand
REMARK  7 active torsions:
REMARK  status: ('A' for Active; 'I' for Inactive)
REMARK    1  A    between atoms: C2_10  and  C1_15
REMARK    2  A    between atoms: C17_11  and  C21_17
REMARK    3  A    between atoms: C15_12  and  O14_22
REMARK    4  A    between atoms: C9_13  and  C13_18
REMARK    5  A    between atoms: C10_14  and  C12_16
REMARK    6  A    between atoms: C21_17  and  O22_21
REMARK    7  A    between atoms: C13_18  and  O14_22
REMARK                            x       y       z     vdW  Elec       q    Type
REMARK                         _______ _______ _______ _____ _____    ______ ____
ROOT
ATOM      5  C   UNL     1     -27.899  26.734  14.299  0.00  0.00    +0.188 A 
ATOM      6  O   UNL     1     -28.864  26.311  13.438  0.00  0.00    -0.235 OA
ATOM      7  C   UNL     1     -29.911  26.042  14.257  0.00  0.00    +0.117 A 
ATOM      8  C   UNL     1     -31.137  25.554  13.610  0.00  0.00    +0.121 C 
ATOM      9  C   UNL     1     -29.535  26.310  15.556  0.00  0.00    +0.043 A 
ATOM     21  N   UNL     1     -28.239  26.755  15.570  0.00  0.00    -0.310 NA
ENDROOT
BRANCH   5   4
ATOM      1  C   UNL     1     -24.282  27.860  12.508  0.00  0.00    -0.001 A 
ATOM      2  C   UNL     1     -24.282  26.995  13.580  0.00  0.00    +0.000 A 
ATOM      3  C   UNL     1     -25.467  26.619  14.171  0.00  0.00    +0.013 A 
ATOM      4  C   UNL     1     -26.657  27.108  13.685  0.00  0.00    +0.032 A 
ATOM     22  C   UNL     1     -26.656  27.969  12.611  0.00  0.00    +0.013 A 
ATOM     23  C   UNL     1     -25.472  28.348  12.021  0.00  0.00    +0.000 A 
ENDBRANCH   5   4
BRANCH   9  10
ATOM     10  C   UNL     1     -30.310  26.183  16.801  0.00  0.00    +0.239 C 
BRANCH  10  11
ATOM     11  O   UNL     1     -29.759  26.984  17.840  0.00  0.00    -0.313 OA
BRANCH  11  12
ATOM     12  C   UNL     1     -30.417  26.649  19.013  0.00  0.00    +0.086 A 
ATOM     13  C   UNL     1     -30.938  25.387  19.208  0.00  0.00    +0.018 A 
ATOM     14  C   UNL     1     -31.584  25.092  20.389  0.00  0.00    -0.027 A 
ATOM     18  C   UNL     1     -31.700  26.061  21.364  0.00  0.00    -0.023 A 
ATOM     19  C   UNL     1     -31.176  27.320  21.167  0.00  0.00    -0.020 A 
ATOM     20  C   UNL     1     -30.531  27.616  19.987  0.00  0.00    +0.009 A 
BRANCH  14  15
ATOM     15  C   UNL     1     -32.151  23.734  20.598  0.00  0.00    +0.220 C 
BRANCH  15  16
ATOM     16  O   UNL     1     -31.597  23.195  21.787  0.00  0.00    -0.383 OA
ATOM     17  H   UNL     1     -31.951  22.326  21.934  0.00  0.00    +0.213 HD
ENDBRANCH  15  16
ENDBRANCH  14  15
ENDBRANCH  11  12
ENDBRANCH  10  11
ENDBRANCH   9  10
TORSDOF 6
