REMARK  Name = 5H3Q
REMARK  12 active torsions:
REMARK  status: ('A' for Active; 'I' for Inactive)
REMARK    1  A    between atoms: C_8  and  C_9
REMARK    2  A    between atoms: N_11  and  C_12
REMARK    3  A    between atoms: C_12  and  C_13
REMARK    4  A    between atoms: C_13  and  O_14
REMARK    5  A    between atoms: O_14  and  C_15
REMARK    6  A    between atoms: C_17  and  N_18
REMARK    7  A    between atoms: N_21  and  C_22
REMARK    8  A    between atoms: C_23  and  C_24
REMARK    9  A    between atoms: C_25  and  O_26
REMARK   10  A    between atoms: O_26  and  C_27
REMARK   11  A    between atoms: C_27  and  C_28
REMARK   12  A    between atoms: N_30  and  C_31
REMARK                            x       y       z     vdW  Elec       q    Type
REMARK                         _______ _______ _______ _____ _____    ______ ____
ROOT
ATOM      5  N   UNL     1      54.514  23.637  -4.428  0.00  0.00    -0.294 N 
ATOM      6  H   UNL     1      53.784  23.059  -3.901  0.00  0.00    +0.151 HD
ATOM      7  C   UNL     1      54.102  24.323  -5.512  0.00  0.00    +0.305 C 
ATOM      8  N   UNL     1      52.824  24.119  -5.913  0.00  0.00    -0.254 N 
ATOM      9  H   UNL     1      52.162  23.565  -5.280  0.00  0.00    +0.158 HD
ATOM     25  O   UNL     1      54.859  25.161  -6.006  0.00  0.00    -0.253 OA
ENDROOT
BRANCH   8  10
ATOM     10  C   UNL     1      52.369  24.589  -7.073  0.00  0.00    +0.136 A 
ATOM     11  N   UNL     1      52.983  24.256  -8.277  0.00  0.00    -0.215 N 
ATOM     18  N   UNL     1      52.304  24.814  -9.263  0.00  0.00    -0.127 NA
ATOM     19  C   UNL     1      51.273  25.452  -8.731  0.00  0.00    +0.239 A 
ATOM     23  C   UNL     1      51.259  25.239  -7.399  0.00  0.00    +0.052 A 
ATOM     24  C   UNL     1      50.235  25.859  -6.475  0.00  0.00    +0.053 C 
BRANCH  11  12
ATOM     12  C   UNL     1      54.119  23.549  -8.530  0.00  0.00    +0.068 A 
ATOM     13  C   UNL     1      55.008  23.978  -9.495  0.00  0.00    +0.028 A 
ATOM     14  C   UNL     1      56.162  23.226  -9.746  0.00  0.00    +0.002 A 
ATOM     15  C   UNL     1      56.476  22.060  -9.048  0.00  0.00    +0.000 A 
ATOM     16  C   UNL     1      55.570  21.590  -8.135  0.00  0.00    +0.002 A 
ATOM     17  C   UNL     1      54.422  22.338  -7.905  0.00  0.00    +0.028 A 
ENDBRANCH  11  12
BRANCH  19  20
ATOM     20  O   UNL     1      50.366  26.140  -9.496  0.00  0.00    -0.475 OA
BRANCH  20  21
ATOM     21  C   UNL     1      50.811  26.110 -10.896  0.00  0.00    +0.227 C 
ATOM     22  C   UNL     1      50.265  27.348 -11.637  0.00  0.00    +0.048 C 
ENDBRANCH  20  21
ENDBRANCH  19  20
ENDBRANCH   8  10
BRANCH   5   4
ATOM      3  C   UNL     1      56.050  23.454  -2.391  0.00  0.00    +0.055 C 
ATOM      4  C   UNL     1      55.875  23.623  -3.921  0.00  0.00    +0.097 C 
ATOM     26  C   UNL     1      56.536  22.263  -4.467  0.00  0.00    +0.107 C 
ATOM     27  N   UNL     1      56.912  21.484  -3.283  0.00  0.00    -0.298 NA
ATOM     32  C   UNL     1      57.221  22.489  -2.237  0.00  0.00    +0.094 C 
BRANCH   3   2
ATOM      1  C   UNL     1      55.650  25.872  -2.164  0.00  0.00    +0.045 A 
ATOM      2  C   UNL     1      56.369  24.720  -1.806  0.00  0.00    -0.038 A 
ATOM     33  C   UNL     1      57.396  24.849  -0.845  0.00  0.00    +0.007 A 
ATOM     34  C   UNL     1      57.668  26.087  -0.263  0.00  0.00    +0.041 A 
ATOM     35  C   UNL     1      56.908  27.212  -0.651  0.00  0.00    +0.158 A 
ATOM     36  F   UNL     1      57.121  28.335  -0.108  0.00  0.00    -0.203 F 
ATOM     37  C   UNL     1      55.912  27.113  -1.576  0.00  0.00    +0.159 A 
ATOM     38  F   UNL     1      55.253  28.267  -1.966  0.00  0.00    -0.203 F 
ENDBRANCH   3   2
BRANCH  27  28
ATOM     28  C   UNL     1      58.034  20.499  -3.456  0.00  0.00    +0.112 C 
BRANCH  28  29
ATOM     29  C   UNL     1      57.696  19.436  -4.473  0.00  0.00    +0.174 C 
BRANCH  29  30
ATOM     30  O   UNL     1      56.733  18.508  -4.005  0.00  0.00    -0.382 OA
ATOM     31  C   UNL     1      56.171  17.639  -4.968  0.00  0.00    +0.193 C 
ENDBRANCH  29  30
ENDBRANCH  28  29
ENDBRANCH  27  28
ENDBRANCH   5   4
TORSDOF 9
