REMARK  Name = 1K0
REMARK  6 active torsions:
REMARK  status: ('A' for Active; 'I' for Inactive)
REMARK    1  A    between atoms: O1_1  and  C2_3
REMARK    2  A    between atoms: C4_5  and  O2_8
REMARK    3  A    between atoms: O3_10  and  C13_20
REMARK    4  A    between atoms: O3_10  and  C14_21
REMARK    5  A    between atoms: C8_13  and  C9_16
REMARK    6  A    between atoms: C14_21  and  C15_22
REMARK                            x       y       z     vdW  Elec       q    Type
REMARK                         _______ _______ _______ _____ _____    ______ ____
ROOT
ATOM      3  C   UNL     1      13.379  20.958  -6.752  0.00  0.00    +0.143 A 
ATOM      4  C   UNL     1      12.948  21.651  -5.643  0.00  0.00    +0.056 A 
ATOM      5  C   UNL     1      11.701  21.413  -5.139  0.00  0.00    +0.094 A 
ATOM      6  N   UNL     1      11.290  22.152  -4.012  0.00  0.00    -0.226 NA
ATOM      7  C   UNL     1      10.105  21.913  -3.490  0.00  0.00    +0.165 A 
ATOM     20  N   UNL     1       9.249  20.972  -3.993  0.00  0.00    -0.189 NA
ATOM     21  C   UNL     1       9.580  20.150  -5.064  0.00  0.00    +0.285 A 
ATOM     22  O   UNL     1       8.787  19.252  -5.363  0.00  0.00    -0.265 OA
ATOM     23  C   UNL     1      10.826  20.416  -5.689  0.00  0.00    +0.110 A 
ATOM     24  C   UNL     1      11.309  19.761  -6.855  0.00  0.00    +0.148 A 
ATOM     27  C   UNL     1      12.551  20.023  -7.359  0.00  0.00    +0.074 A 
ENDROOT
BRANCH   7   8
ATOM      8  C   UNL     1       9.668  22.669  -2.280  0.00  0.00    +0.035 A 
ATOM      9  C   UNL     1      10.665  23.321  -1.534  0.00  0.00    +0.002 A 
ATOM     10  C   UNL     1      10.355  23.973  -0.344  0.00  0.00    +0.012 A 
ATOM     11  C   UNL     1      11.384  24.651   0.460  0.00  0.00    +0.034 C 
ATOM     12  C   UNL     1       9.033  24.014   0.023  0.00  0.00    +0.131 A 
ATOM     17  C   UNL     1       8.013  23.383  -0.722  0.00  0.00    +0.012 A 
ATOM     18  C   UNL     1       6.566  23.471  -0.294  0.00  0.00    +0.034 C 
ATOM     19  C   UNL     1       8.403  22.777  -1.907  0.00  0.00    +0.002 A 
BRANCH  12  13
ATOM     13  O   UNL     1       8.657  24.666   1.193  0.00  0.00    -0.473 OA
BRANCH  13  14
ATOM     14  C   UNL     1       8.793  23.856   2.378  0.00  0.00    +0.241 C 
BRANCH  14  15
ATOM     15  C   UNL     1       8.499  24.673   3.617  0.00  0.00    +0.229 C 
ATOM     16  O   UNL     1       7.162  25.036   3.529  0.00  0.00    -0.216 OA
ENDBRANCH  14  15
ENDBRANCH  13  14
ENDBRANCH  12  13
ENDBRANCH   7   8
BRANCH   3   1
ATOM      1  O   UNL     1      14.583  21.110  -7.315  0.00  0.00    -0.471 OA
ATOM      2  C   UNL     1      15.512  22.030  -6.702  0.00  0.00    +0.253 C 
ENDBRANCH   3   1
BRANCH  24  25
ATOM     25  O   UNL     1      10.428  18.903  -7.471  0.00  0.00    -0.471 OA
ATOM     26  C   UNL     1      10.791  18.411  -8.773  0.00  0.00    +0.253 C 
ENDBRANCH  24  25
TORSDOF 6
