REMARK  Name = A5W
REMARK  3 active torsions:
REMARK  status: ('A' for Active; 'I' for Inactive)
REMARK    1  A    between atoms: C12_3  and  C13_4
REMARK    2  A    between atoms: C7_10  and  C6_13
REMARK    3  A    between atoms: C1_16  and  O_19
REMARK                            x       y       z     vdW  Elec       q    Type
REMARK                         _______ _______ _______ _____ _____    ______ ____
ROOT
ATOM      5  C   UNL     1     -10.247  10.860 -15.758  0.00  0.00    +0.225 C 
ATOM      6  O   UNL     1      -9.164  10.288 -15.871  0.00  0.00    -0.275 OA
ATOM      7  N   UNL     1     -10.545  11.888 -16.566  0.00  0.00    -0.280 N 
ATOM      8  C   UNL     1     -11.866  12.507 -16.705  0.00  0.00    +0.094 C 
ATOM      9  C   UNL     1     -12.309  12.463 -18.144  0.00  0.00    +0.026 C 
ATOM     10  C   UNL     1     -11.311  13.149 -19.074  0.00  0.00    +0.029 C 
ATOM     11  C   UNL     1      -9.939  12.516 -18.849  0.00  0.00    +0.026 C 
ATOM     20  C   UNL     1      -9.533  12.544 -17.400  0.00  0.00    +0.094 C 
ENDROOT
BRANCH  10  12
ATOM     12  C   UNL     1     -11.351  14.667 -19.051  0.00  0.00    +0.012 A 
ATOM     13  C   UNL     1     -10.835  15.410 -18.001  0.00  0.00    -0.001 A 
ATOM     14  C   UNL     1     -10.882  16.796 -18.000  0.00  0.00    -0.000 A 
ATOM     15  C   UNL     1     -11.441  17.464 -19.066  0.00  0.00    +0.003 A 
ATOM     16  C   UNL     1     -11.956  16.758 -20.133  0.00  0.00    +0.037 A 
ATOM     17  C   UNL     1     -11.917  15.369 -20.124  0.00  0.00    +0.135 A 
BRANCH  17  18
ATOM     18  O   UNL     1     -12.433  14.589 -21.213  0.00  0.00    -0.472 OA
ATOM     19  C   UNL     1     -12.865  15.285 -22.386  0.00  0.00    +0.253 C 
ENDBRANCH  17  18
ENDBRANCH  10  12
BRANCH   5   4
ATOM      1  C   UNL     1     -11.477  11.346 -13.498  0.00  0.00    +0.009 C 
ATOM      2  C   UNL     1     -11.567  10.082 -12.632  0.00  0.00    +0.001 C 
ATOM      3  C   UNL     1     -10.760   9.349 -13.713  0.00  0.00    +0.009 C 
ATOM      4  C   UNL     1     -11.216  10.429 -14.705  0.00  0.00    +0.077 C 
ENDBRANCH   5   4
TORSDOF 3
