REMARK  Name = 5NKC
REMARK  12 active torsions:
REMARK  status: ('A' for Active; 'I' for Inactive)
REMARK    1  A    between atoms: C_2  and  C_4
REMARK    2  A    between atoms: C_9  and  C_11
REMARK    3  A    between atoms: C_16  and  N_17
REMARK    4  A    between atoms: C_22  and  C_23
REMARK    5  A    between atoms: N_25  and  C_26
REMARK    6  A    between atoms: C_32  and  C_33
REMARK    7  A    between atoms: C_35  and  C_37
REMARK    8  A    between atoms: C_42  and  C_44
REMARK    9  A    between atoms: C_49  and  N_50
REMARK   10  A    between atoms: C_55  and  C_56
REMARK   11  A    between atoms: N_58  and  C_59
REMARK   12  A    between atoms: C_65  and  C_66
REMARK                            x       y       z     vdW  Elec       q    Type
REMARK                         _______ _______ _______ _____ _____    ______ ____
ROOT
ATOM     13  N   UNL     1     -86.861 -12.618   5.143  0.00  0.00    -0.294 N 
ATOM     14  H   UNL     1     -87.060 -12.201   4.178  0.00  0.00    +0.154 HD
ATOM     15  C   UNL     1     -87.908 -13.127   5.825  0.00  0.00    +0.163 A 
ATOM     16  N   UNL     1     -89.166 -13.077   5.335  0.00  0.00    -0.232 NA
ATOM     17  C   UNL     1     -90.122 -13.653   6.132  0.00  0.00    +0.133 A 
ATOM     18  C   UNL     1     -89.656 -14.161   7.297  0.00  0.00    +0.095 A 
ATOM     31  S   UNL     1     -87.977 -13.896   7.343  0.00  0.00    -0.048 S 
ENDROOT
BRANCH  13  12
ATOM      8  C   UNL     1     -83.255 -12.193   4.909  0.00  0.00    +0.039 A 
ATOM      9  C   UNL     1     -82.868 -12.386   6.235  0.00  0.00    +0.013 A 
ATOM     10  C   UNL     1     -83.806 -12.681   7.214  0.00  0.00    +0.003 A 
ATOM     11  C   UNL     1     -85.160 -12.767   6.893  0.00  0.00    +0.023 A 
ATOM     12  C   UNL     1     -85.575 -12.591   5.581  0.00  0.00    +0.034 A 
ATOM     32  C   UNL     1     -84.620 -12.296   4.607  0.00  0.00    +0.036 A 
BRANCH   8   7
ATOM      3  C   UNL     1     -80.428 -14.545   2.305  0.00  0.00    +0.053 C 
ATOM      4  C   UNL     1     -79.528 -13.340   2.216  0.00  0.00    +0.030 C 
ATOM      5  C   UNL     1     -80.540 -12.218   2.301  0.00  0.00    +0.109 C 
ATOM      6  N   UNL     1     -81.497 -12.725   3.333  0.00  0.00    -0.297 N 
ATOM      7  C   UNL     1     -82.313 -11.838   3.915  0.00  0.00    +0.247 C 
ATOM     33  O   UNL     1     -82.224 -10.652   3.575  0.00  0.00    -0.270 OA
ATOM     34  C   UNL     1     -81.279 -14.179   3.509  0.00  0.00    +0.117 C 
BRANCH   3   2
ATOM      1  O   UNL     1     -82.358 -15.365   1.255  0.00  0.00    -0.549 OA
ATOM      2  C   UNL     1     -81.340 -14.661   1.089  0.00  0.00    +0.046 C 
ATOM     35  O   UNL     1     -81.008 -14.078   0.025  0.00  0.00    -0.549 OA
ENDBRANCH   3   2
ENDBRANCH   8   7
ENDBRANCH  13  12
BRANCH  18  19
ATOM     19  C   UNL     1     -90.304 -14.804   8.329  0.00  0.00    +0.257 C 
ATOM     20  N   UNL     1     -91.622 -15.141   8.220  0.00  0.00    -0.280 N 
ATOM     21  H   UNL     1     -92.149 -14.927   7.314  0.00  0.00    +0.155 HD
ATOM     30  O   UNL     1     -89.646 -15.080   9.331  0.00  0.00    -0.269 OA
BRANCH  20  22
ATOM     22  C   UNL     1     -92.291 -15.761   9.274  0.00  0.00    +0.055 A 
ATOM     23  C   UNL     1     -92.860 -14.974  10.283  0.00  0.00    -0.028 A 
ATOM     24  C   UNL     1     -92.742 -13.579  10.272  0.00  0.00    +0.045 C 
ATOM     25  C   UNL     1     -93.555 -15.584  11.329  0.00  0.00    +0.005 A 
ATOM     26  C   UNL     1     -93.711 -16.971  11.369  0.00  0.00    +0.002 A 
ATOM     27  C   UNL     1     -93.167 -17.769  10.361  0.00  0.00    +0.022 A 
ATOM     28  C   UNL     1     -92.461 -17.153   9.315  0.00  0.00    +0.062 A 
ATOM     29 CL   UNL     1     -91.801 -18.178   8.063  0.00  0.00    -0.082 Cl
ENDBRANCH  20  22
ENDBRANCH  18  19
TORSDOF 5
