REMARK  Name = 5AAD
REMARK  6 active torsions:
REMARK  status: ('A' for Active; 'I' for Inactive)
REMARK    1  A    between atoms: C_3  and  C_4
REMARK    2  A    between atoms: N_6  and  C_7
REMARK    3  A    between atoms: C_7  and  C_8
REMARK    4  A    between atoms: C_18  and  C_19
REMARK    5  A    between atoms: N_21  and  C_22
REMARK    6  A    between atoms: C_24  and  C_25
REMARK                            x       y       z     vdW  Elec       q    Type
REMARK                         _______ _______ _______ _____ _____    ______ ____
ROOT
ATOM      1 CL   UNL     1      -6.373  28.733  75.967  0.00  0.00    -0.081 Cl
ATOM      2  C   UNL     1      -5.445  30.008  76.559  0.00  0.00    +0.069 A 
ATOM      3  C   UNL     1      -4.816  30.929  75.611  0.00  0.00    +0.133 A 
ATOM      4  N   UNL     1      -4.035  31.975  76.091  0.00  0.00    -0.234 NA
ATOM      5  C   UNL     1      -3.876  32.145  77.409  0.00  0.00    +0.159 A 
ATOM      6  N   UNL     1      -3.180  33.080  78.135  0.00  0.00    -0.323 N 
ATOM      7  H   UNL     1      -2.608  33.891  77.734  0.00  0.00    +0.169 HD
ATOM      8  C   UNL     1      -3.359  32.771  79.551  0.00  0.00    +0.139 A 
ATOM     17  N   UNL     1      -4.117  31.692  79.728  0.00  0.00    -0.226 NA
ATOM     18  C   UNL     1      -4.471  31.270  78.388  0.00  0.00    +0.117 A 
ATOM     19  C   UNL     1      -5.252  30.146  77.916  0.00  0.00    +0.034 A 
ENDROOT
BRANCH   8   9
ATOM      9  C   UNL     1      -2.733  33.578  80.625  0.00  0.00    +0.028 C 
ATOM     10  C   UNL     1      -2.833  33.474  82.021  0.00  0.00    +0.024 C 
ATOM     11  C   UNL     1      -3.629  32.504  82.780  0.00  0.00    +0.062 C 
ATOM     12  N   UNL     1      -2.059  34.449  82.528  0.00  0.00    -0.282 N 
ATOM     13  H   UNL     1      -1.898  34.661  83.564  0.00  0.00    +0.166 HD
ATOM     14  N   UNL     1      -1.478  35.166  81.387  0.00  0.00    -0.228 NA
ATOM     15  C   UNL     1      -0.582  36.285  81.451  0.00  0.00    +0.128 C 
ATOM     16  C   UNL     1      -1.873  34.651  80.268  0.00  0.00    +0.145 C 
ENDBRANCH   8   9
BRANCH  19  20
ATOM     20  C   UNL     1      -5.933  29.329  79.001  0.00  0.00    +0.023 A 
ATOM     21  C   UNL     1      -5.669  29.261  80.385  0.00  0.00    +0.143 A 
ATOM     22  N   UNL     1      -6.684  28.446  80.975  0.00  0.00    -0.179 NA
ATOM     23  N   UNL     1      -7.567  28.075  79.931  0.00  0.00    -0.267 N 
ATOM     31  C   UNL     1      -7.145  28.644  78.760  0.00  0.00    +0.117 A 
BRANCH  23  24
ATOM     24  C   UNL     1      -8.810  27.249  79.969  0.00  0.00    +0.178 C 
BRANCH  24  25
ATOM     25  C   UNL     1      -8.528  25.792  80.328  0.00  0.00    -0.026 A 
ATOM     26  C   UNL     1      -9.347  24.750  79.880  0.00  0.00    +0.005 A 
ATOM     27  C   UNL     1      -9.047  23.431  80.288  0.00  0.00    +0.000 A 
ATOM     28  C   UNL     1      -7.933  23.183  81.131  0.00  0.00    +0.000 A 
ATOM     29  C   UNL     1      -7.127  24.268  81.576  0.00  0.00    +0.000 A 
ATOM     30  C   UNL     1      -7.422  25.562  81.177  0.00  0.00    +0.005 A 
ENDBRANCH  24  25
ENDBRANCH  23  24
ENDBRANCH  19  20
TORSDOF 4
