REMARK  Name = AFM
REMARK  7 active torsions:
REMARK  status: ('A' for Active; 'I' for Inactive)
REMARK    1  A    between atoms: C10_1  and  O09_16
REMARK    2  A    between atoms: C24_6  and  C25_26
REMARK    3  A    between atoms: C28_7  and  C27_28
REMARK    4  A    between atoms: C05_12  and  C06_13
REMARK    5  A    between atoms: C07_14  and  C08_15
REMARK    6  A    between atoms: C08_15  and  O09_16
REMARK    7  A    between atoms: N26_27  and  C27_28
REMARK                            x       y       z     vdW  Elec       q    Type
REMARK                         _______ _______ _______ _____ _____    ______ ____
ROOT
ATOM     11  C   UNL     1     -18.976  29.218  18.837  0.00  0.00    +0.065 C 
ATOM     12  C   UNL     1     -19.507  30.390  19.678  0.00  0.00    +0.093 C 
ATOM     13  N   UNL     1     -18.805  31.698  19.523  0.00  0.00    -0.218 NA
ATOM     14  C   UNL     1     -18.352  32.003  18.133  0.00  0.00    +0.089 C 
ATOM     15  C   UNL     1     -17.719  30.817  17.396  0.00  0.00    +0.023 C 
ATOM     16  C   UNL     1     -18.576  29.594  17.446  0.00  0.00    +0.029 C 
ENDROOT
BRANCH  16  17
ATOM     17  C   UNL     1     -17.755  28.395  16.807  0.00  0.00    -0.022 A 
ATOM     18  C   UNL     1     -16.594  27.937  17.406  0.00  0.00    +0.003 A 
ATOM     19  C   UNL     1     -15.881  26.887  16.839  0.00  0.00    +0.082 A 
ATOM     29  C   UNL     1     -16.319  26.299  15.670  0.00  0.00    +0.144 A 
ATOM     30  F   UNL     1     -15.614  25.275  15.114  0.00  0.00    -0.204 F 
ATOM     31  C   UNL     1     -17.477  26.748  15.065  0.00  0.00    +0.029 A 
ATOM     32  C   UNL     1     -18.191  27.793  15.634  0.00  0.00    -0.002 A 
BRANCH  19  20
ATOM     20  C   UNL     1     -14.599  26.387  17.502  0.00  0.00    +0.267 C 
ATOM     21  N   UNL     1     -14.387  26.596  18.927  0.00  0.00    -0.195 NA
ATOM     28  O   UNL     1     -13.779  25.835  16.854  0.00  0.00    -0.268 OA
BRANCH  21  22
ATOM     22  C   UNL     1     -13.161  26.125  19.558  0.00  0.00    +0.163 C 
BRANCH  22  23
ATOM     23  C   UNL     1     -13.324  24.674  20.003  0.00  0.00    +0.104 A 
ATOM     24  C   UNL     1     -12.333  23.852  20.475  0.00  0.00    +0.041 A 
ATOM     25  C   UNL     1     -12.912  22.624  20.765  0.00  0.00    +0.124 A 
ATOM     26  N   UNL     1     -14.212  22.715  20.473  0.00  0.00    -0.147 NA
ATOM     27  N   UNL     1     -14.437  23.985  20.009  0.00  0.00    -0.150 NA
ENDBRANCH  22  23
ENDBRANCH  21  22
ENDBRANCH  19  20
ENDBRANCH  16  17
BRANCH  11  10
ATOM     10  C   UNL     1     -20.132  28.173  18.767  0.00  0.00    +0.207 C 
BRANCH  10   9
ATOM      9  O   UNL     1     -20.720  28.292  17.503  0.00  0.00    -0.475 OA
BRANCH   9   1
ATOM      1  C   UNL     1     -21.993  27.738  17.333  0.00  0.00    +0.139 A 
ATOM      2  C   UNL     1     -22.353  26.529  17.919  0.00  0.00    +0.040 A 
ATOM      3  C   UNL     1     -23.651  26.010  17.707  0.00  0.00    +0.043 A 
ATOM      4  C   UNL     1     -24.354  24.840  18.139  0.00  0.00    +0.124 A 
ATOM      5  N   UNL     1     -25.575  24.865  17.626  0.00  0.00    -0.146 NA
ATOM      6  N   UNL     1     -25.700  25.984  16.890  0.00  0.00    -0.148 NA
ATOM      7  C   UNL     1     -24.552  26.690  16.925  0.00  0.00    +0.105 A 
ATOM      8  C   UNL     1     -24.180  27.909  16.333  0.00  0.00    +0.024 A 
ATOM     33  C   UNL     1     -22.911  28.421  16.538  0.00  0.00    +0.039 A 
ENDBRANCH   9   1
ENDBRANCH  10   9
ENDBRANCH  11  10
TORSDOF 7
