REMARK  Name = 3ROY
REMARK  12 active torsions:
REMARK  status: ('A' for Active; 'I' for Inactive)
REMARK    1  A    between atoms: N_1  and  C_8
REMARK    2  A    between atoms: N_1  and  C_13
REMARK    3  A    between atoms: N_4  and  C_10
REMARK    4  A    between atoms: N_4  and  C_19
REMARK    5  A    between atoms: N_5  and  C_11
REMARK    6  A    between atoms: C_7  and  C_12
REMARK    7  A    between atoms: C_13  and  C_14
REMARK    8  A    between atoms: C_19  and  C_20
REMARK    9  A    between atoms: C_20  and  C_21
REMARK   10  A    between atoms: C_21  and  C_22
REMARK   11  A    between atoms: C_22  and  C_23
REMARK   12  A    between atoms: C_23  and  C_24
REMARK                            x       y       z     vdW  Elec       q    Type
REMARK                         _______ _______ _______ _____ _____    ______ ____
ROOT
ATOM     10  C   UNL     1     -65.454  -9.695  24.310  0.00  0.00    +0.042 A 
ATOM     11  C   UNL     1     -65.787  -9.108  25.588  0.00  0.00    +0.049 A 
ATOM     12  C   UNL     1     -67.095  -8.586  25.837  0.00  0.00    +0.059 A 
ATOM     13  C   UNL     1     -68.097  -8.639  24.811  0.00  0.00    +0.148 A 
ATOM     14  C   UNL     1     -67.771  -9.218  23.553  0.00  0.00    +0.049 A 
ATOM     26  C   UNL     1     -66.473  -9.747  23.286  0.00  0.00    +0.059 A 
ENDROOT
BRANCH  26  27
ATOM     27  C   UNL     1     -66.235 -10.293  22.039  0.00  0.00    +0.243 C 
ATOM     28  O   UNL     1     -65.419 -11.176  21.887  0.00  0.00    -0.270 OA
ATOM     29  N   UNL     1     -66.939  -9.837  20.952  0.00  0.00    -0.325 N 
ATOM     30  H   UNL     1     -66.759 -10.256  19.984  0.00  0.00    +0.145 HD
ATOM     31  H   UNL     1     -67.668  -9.063  21.073  0.00  0.00    +0.145 HD
ENDBRANCH  26  27
BRANCH  13  15
ATOM     15  N   UNL     1     -69.277  -8.172  25.004  0.00  0.00    +0.058 N 
ATOM     16  O   UNL     1     -70.330  -8.734  24.441  0.00  0.00    -0.126 OA
ATOM     17  O   UNL     1     -69.457  -7.097  25.748  0.00  0.00    -0.126 OA
ENDBRANCH  13  15
BRANCH  10   1
ATOM      1  N   UNL     1     -64.262 -10.178  24.066  0.00  0.00    -0.339 N 
ATOM      2  H   UNL     1     -64.158 -10.841  23.233  0.00  0.00    +0.146 HD
BRANCH   1   3
ATOM      3  C   UNL     1     -63.040  -9.874  24.861  0.00  0.00    +0.138 C 
BRANCH   3   4
ATOM      4  C   UNL     1     -62.833 -10.924  25.920  0.00  0.00    -0.012 A 
ATOM      5  C   UNL     1     -62.596 -10.554  27.272  0.00  0.00    +0.008 A 
ATOM      6  C   UNL     1     -62.407 -11.551  28.262  0.00  0.00    +0.020 A 
ATOM      7  C   UNL     1     -62.465 -12.899  27.858  0.00  0.00    +0.111 A 
ATOM      8  N   UNL     1     -62.695 -13.290  26.553  0.00  0.00    -0.263 NA
ATOM      9  C   UNL     1     -62.874 -12.301  25.610  0.00  0.00    +0.115 A 
ENDBRANCH   3   4
ENDBRANCH   1   3
ENDBRANCH  10   1
BRANCH  12  18
ATOM     18  N   UNL     1     -67.363  -8.071  26.978  0.00  0.00    -0.342 N 
ATOM     19  H   UNL     1     -67.239  -7.018  27.125  0.00  0.00    +0.146 HD
BRANCH  18  20
ATOM     20  C   UNL     1     -67.840  -8.912  28.091  0.00  0.00    +0.101 C 
BRANCH  20  21
ATOM     21  C   UNL     1     -67.139  -8.493  29.388  0.00  0.00    +0.019 C 
BRANCH  21  22
ATOM     22  C   UNL     1     -65.687  -8.978  29.374  0.00  0.00    +0.001 C 
BRANCH  22  23
ATOM     23  C   UNL     1     -64.942  -8.401  30.568  0.00  0.00    -0.000 C 
BRANCH  23  24
ATOM     24  C   UNL     1     -63.811  -9.342  30.971  0.00  0.00    -0.003 C 
ATOM     25  C   UNL     1     -63.638  -9.304  32.486  0.00  0.00    +0.004 C 
ENDBRANCH  23  24
ENDBRANCH  22  23
ENDBRANCH  21  22
ENDBRANCH  20  21
ENDBRANCH  18  20
ENDBRANCH  12  18
TORSDOF 11
