REMARK  Name = 4hw7_ligand
REMARK  7 active torsions:
REMARK  status: ('A' for Active; 'I' for Inactive)
REMARK    1  A    between atoms: C1_1  and  O14_10
REMARK    2  A    between atoms: C11_7  and  C15_11
REMARK    3  A    between atoms: O14_10  and  C27_18
REMARK    4  A    between atoms: C15_11  and  C18_12
REMARK    5  A    between atoms: N31_19  and  C33_20
REMARK    6  A    between atoms: C33_20  and  C36_21
REMARK    7  A    between atoms: C41_24  and  C46_27
REMARK                            x       y       z     vdW  Elec       q    Type
REMARK                         _______ _______ _______ _____ _____    ______ ____
ROOT
ATOM     13  C   UNL     1      35.253  13.809  73.877  0.00  0.00    -0.024 A 
ATOM     14  C   UNL     1      35.944  13.755  72.696  0.00  0.00    +0.014 A 
ATOM     15  C   UNL     1      37.286  13.469  72.697  0.00  0.00    +0.038 A 
ATOM     16  C   UNL     1      37.923  13.244  73.886  0.00  0.00    +0.107 A 
ATOM     17  N   UNL     1      39.259  12.967  73.857  0.00  0.00    -0.295 N 
ATOM     18  H   UNL     1      39.649  12.316  73.160  0.00  0.00    +0.182 HD
ATOM     30  N   UNL     1      37.270  13.300  75.043  0.00  0.00    -0.293 NA
ATOM     31  C   UNL     1      35.966  13.570  75.014  0.00  0.00    +0.070 A 
ENDROOT
BRANCH  13  12
ATOM     12  C   UNL     1      33.800  14.099  73.902  0.00  0.00    +0.098 C 
BRANCH  12  11
ATOM      1  C   UNL     1      29.506  13.069  72.681  0.00  0.00    +0.100 A 
ATOM      4  C   UNL     1      30.700  13.557  73.112  0.00  0.00    +0.029 A 
ATOM      5  C   UNL     1      31.823  12.769  72.931  0.00  0.00    -0.002 A 
ATOM      6  C   UNL     1      31.659  11.562  72.325  0.00  0.00    +0.123 A 
ATOM      7  N   UNL     1      32.868  10.967  72.258  0.00  0.00    -0.278 N 
ATOM      8  H   UNL     1      33.053  10.039  71.852  0.00  0.00    +0.223 HD
ATOM      9  C   UNL     1      33.799  11.778  72.807  0.00  0.00    +0.105 A 
ATOM     10  N   UNL     1      30.524  11.036  71.889  0.00  0.00    -0.294 NA
ATOM     11  C   UNL     1      33.187  12.920  73.244  0.00  0.00    -0.032 A 
ATOM     32  C   UNL     1      29.469  11.833  72.091  0.00  0.00    +0.094 A 
BRANCH   1   2
ATOM      2  O   UNL     1      28.519  13.933  72.915  0.00  0.00    -0.323 OA
ATOM      3  C   UNL     1      29.028  15.073  73.553  0.00  0.00    +0.230 C 
ENDBRANCH   1   2
ENDBRANCH  12  11
ENDBRANCH  13  12
BRANCH  17  19
ATOM     19  C   UNL     1      40.102  13.604  74.819  0.00  0.00    +0.225 C 
BRANCH  19  20
ATOM     20  C   UNL     1      40.564  12.543  75.745  0.00  0.00    +0.010 A 
ATOM     21  C   UNL     1      41.723  12.714  76.478  0.00  0.00    +0.039 A 
ATOM     22  C   UNL     1      42.148  11.718  77.340  0.00  0.00    +0.046 A 
ATOM     23  C   UNL     1      41.423  10.551  77.479  0.00  0.00    +0.039 A 
ATOM     28  C   UNL     1      40.265  10.387  76.740  0.00  0.00    +0.046 A 
ATOM     29  C   UNL     1      39.832  11.381  75.875  0.00  0.00    +0.039 A 
BRANCH  23  24
ATOM     24  C   UNL     1      41.896   9.508  78.405  0.00  0.00    +0.368 C 
ATOM     25  F   UNL     1      42.258   8.382  77.812  0.00  0.00    -0.227 F 
ATOM     26  F   UNL     1      41.012   9.118  79.301  0.00  0.00    -0.227 F 
ATOM     27  F   UNL     1      42.936   9.873  79.138  0.00  0.00    -0.227 F 
ENDBRANCH  23  24
ENDBRANCH  19  20
ENDBRANCH  17  19
TORSDOF 6
