REMARK  Name = 4DYM
REMARK  6 active torsions:
REMARK  status: ('A' for Active; 'I' for Inactive)
REMARK    1  A    between atoms: C_3  and  C_4
REMARK    2  A    between atoms: C_4  and  N_5
REMARK    3  A    between atoms: N_5  and  C_6
REMARK    4  A    between atoms: C_14  and  C_15
REMARK    5  A    between atoms: C_20  and  C_21
REMARK    6  A    between atoms: C_21  and  C_22
REMARK                            x       y       z     vdW  Elec       q    Type
REMARK                         _______ _______ _______ _____ _____    ______ ____
ROOT
ATOM      6  C   UNL     1      -5.616 -23.785  13.686  0.00  0.00    +0.111 C 
ATOM      7  N   UNL     1      -5.827 -23.830  15.024  0.00  0.00    -0.278 NA
ATOM      8  H   UNL     1      -5.758 -22.917  15.578  0.00  0.00    +0.189 HD
ATOM      9  N   UNL     1      -6.096 -24.872  15.643  0.00  0.00    -0.236 NA
ATOM     10  C   UNL     1      -6.318 -25.143  16.994  0.00  0.00    +0.089 C 
ATOM     20  C   UNL     1      -6.523 -26.469  17.117  0.00  0.00    +0.112 C 
ATOM     21  N   UNL     1      -6.457 -27.030  15.902  0.00  0.00    -0.344 NA
ATOM     22  H   UNL     1      -6.622 -28.067  15.694  0.00  0.00    +0.167 HD
ATOM     23  C   UNL     1      -6.154 -26.101  14.987  0.00  0.00    +0.131 C 
ATOM     24  C   UNL     1      -5.927 -26.142  13.615  0.00  0.00    +0.049 C 
ATOM     25  C   UNL     1      -5.661 -24.972  12.942  0.00  0.00    +0.046 C 
ENDROOT
BRANCH  10  11
ATOM     11  C   UNL     1      -6.285 -24.149  17.972  0.00  0.00    +0.003 A 
ATOM     12  C   UNL     1      -5.732 -24.410  19.236  0.00  0.00    +0.010 A 
ATOM     13  C   UNL     1      -5.682 -23.376  20.190  0.00  0.00    +0.001 A 
ATOM     14  C   UNL     1      -6.177 -22.091  19.874  0.00  0.00    +0.011 A 
ATOM     15  C   UNL     1      -6.699 -21.834  18.613  0.00  0.00    +0.018 A 
ATOM     19  C   UNL     1      -6.731 -22.856  17.681  0.00  0.00    +0.021 A 
BRANCH  15  16
ATOM     16  C   UNL     1      -7.281 -20.434  18.226  0.00  0.00    +0.160 C 
ATOM     17  O   UNL     1      -6.920 -19.398  18.790  0.00  0.00    -0.292 OA
ATOM     18  C   UNL     1      -8.379 -20.347  17.172  0.00  0.00    +0.091 C 
ENDBRANCH  15  16
ENDBRANCH  10  11
BRANCH   6   4
ATOM      4  N   UNL     1      -5.374 -22.592  13.087  0.00  0.00    -0.329 NA
ATOM      5  H   UNL     1      -5.544 -22.499  12.035  0.00  0.00    +0.147 HD
BRANCH   4   3
ATOM      3  C   UNL     1      -4.888 -21.426  13.831  0.00  0.00    +0.106 C 
BRANCH   3   2
ATOM      1  C   UNL     1      -6.368 -19.302  14.081  0.00  0.00    +0.005 C 
ATOM      2  C   UNL     1      -5.355 -20.090  13.215  0.00  0.00    +0.006 C 
ATOM     26  C   UNL     1      -6.830 -19.984  12.804  0.00  0.00    +0.005 C 
ENDBRANCH   3   2
ENDBRANCH   4   3
ENDBRANCH   6   4
TORSDOF 5
