REMARK  Name = 1A8
REMARK  7 active torsions:
REMARK  status: ('A' for Active; 'I' for Inactive)
REMARK    1  A    between atoms: CAM_2  and  CAN_3
REMARK    2  A    between atoms: CAN_3  and  CAT_4
REMARK    3  A    between atoms: NAO_6  and  CAU_7
REMARK    4  A    between atoms: CAW_10  and  CAX_11
REMARK    5  A    between atoms: CAV_18  and  NAP_19
REMARK    6  A    between atoms: NAP_19  and  SBA_20
REMARK    7  A    between atoms: SBA_20  and  CAY_23
REMARK                            x       y       z     vdW  Elec       q    Type
REMARK                         _______ _______ _______ _____ _____    ______ ____
ROOT
ATOM      7  C   UNL     1       6.149  -8.068   0.171  0.00  0.00    +0.075 A 
ATOM      8  C   UNL     1       7.028  -7.170   0.763  0.00  0.00    +0.018 A 
ATOM      9  C   UNL     1       8.343  -7.155   0.348  0.00  0.00    +0.015 A 
ATOM     16  C   UNL     1       8.797  -7.994  -0.651  0.00  0.00    +0.019 A 
ATOM     17  C   UNL     1       7.915  -8.878  -1.238  0.00  0.00    +0.092 A 
ATOM     27  C   UNL     1       6.591  -8.916  -0.828  0.00  0.00    +0.035 A 
ENDROOT
BRANCH   9  10
ATOM     10  C   UNL     1       9.309  -6.204   0.945  0.00  0.00    +0.063 C 
ATOM     11  C   UNL     1       9.029  -5.231   1.966  0.00  0.00    +0.110 C 
ATOM     12  S   UNL     1      10.457  -4.379   2.289  0.00  0.00    -0.049 S 
ATOM     13  C   UNL     1      11.400  -5.184   1.164  0.00  0.00    +0.296 C 
ATOM     14  O   UNL     1      12.588  -5.018   0.908  0.00  0.00    -0.261 OA
ATOM     15  N   UNL     1      10.645  -6.099   0.571  0.00  0.00    -0.173 NA
ENDBRANCH   9  10
BRANCH   7   6
ATOM      4  C   UNL     1       4.085  -7.485   1.562  0.00  0.00    +0.246 C 
ATOM      5  O   UNL     1       4.642  -6.693   2.307  0.00  0.00    -0.273 OA
ATOM      6  N   UNL     1       4.766  -8.170   0.520  0.00  0.00    -0.179 NA
BRANCH   4   3
ATOM      3  C   UNL     1       2.626  -7.769   1.708  0.00  0.00    +0.087 C 
BRANCH   3   2
ATOM      1  C   UNL     1       2.734  -8.604   3.976  0.00  0.00    +0.001 C 
ATOM      2  C   UNL     1       2.175  -7.533   3.106  0.00  0.00    +0.010 C 
ENDBRANCH   3   2
ENDBRANCH   4   3
ENDBRANCH   7   6
BRANCH  17  18
ATOM     18  N   UNL     1       8.356  -9.705  -2.300  0.00  0.00    -0.096 NA
BRANCH  18  19
ATOM     19  S   UNL     1       7.677  -9.329  -3.753  0.00  0.00    +0.099 S 
ATOM     20  O   UNL     1       6.371  -9.948  -3.754  0.00  0.00    -0.148 OA
ATOM     26  O   UNL     1       8.323 -10.044  -4.838  0.00  0.00    -0.148 OA
BRANCH  19  21
ATOM     21  C   UNL     1       7.464  -7.590  -4.160  0.00  0.00    +0.157 A 
ATOM     22  S   UNL     1       6.643  -6.499  -3.272  0.00  0.00    -0.066 S 
ATOM     23  C   UNL     1       6.742  -5.140  -4.157  0.00  0.00    +0.037 A 
ATOM     24  C   UNL     1       7.474  -5.439  -5.333  0.00  0.00    +0.009 A 
ATOM     25  C   UNL     1       7.897  -6.889  -5.351  0.00  0.00    +0.027 A 
ENDBRANCH  19  21
ENDBRANCH  18  19
ENDBRANCH  17  18
TORSDOF 7
