REMARK  Name = 1XRJ
REMARK  6 active torsions:
REMARK  status: ('A' for Active; 'I' for Inactive)
REMARK    1  A    between atoms: P_2  and  O_5
REMARK    2  A    between atoms: O_5  and  C_6
REMARK    3  A    between atoms: C_6  and  C_7
REMARK    4  A    between atoms: C_9  and  O_10
REMARK    5  A    between atoms: C_11  and  O_12
REMARK    6  A    between atoms: C_13  and  N_14
REMARK                            x       y       z     vdW  Elec       q    Type
REMARK                         _______ _______ _______ _____ _____    ______ ____
ROOT
ATOM      5  C   UNL     1      29.395  78.410  23.765  0.00  0.00    +0.178 C 
ATOM      6  C   UNL     1      30.417  79.137  22.796  0.00  0.00    +0.178 C 
ATOM      7  C   UNL     1      30.712  78.037  21.780  0.00  0.00    +0.195 C 
ATOM      8  C   UNL     1      30.374  76.789  22.382  0.00  0.00    +0.255 C 
ATOM     23  O   UNL     1      29.279  77.059  23.233  0.00  0.00    -0.346 OA
ENDROOT
BRANCH   8   9
ATOM      9  N   UNL     1      29.727  75.770  21.414  0.00  0.00    -0.270 N 
ATOM     10  C   UNL     1      28.521  75.899  20.632  0.00  0.00    +0.096 C 
ATOM     11  C   UNL     1      27.975  74.956  19.761  0.00  0.00    +0.061 C 
ATOM     12  C   UNL     1      28.726  73.718  19.674  0.00  0.00    +0.123 C 
ATOM     13  N   UNL     1      28.267  72.763  18.853  0.00  0.00    -0.343 N 
ATOM     14  H   UNL     1      27.367  72.923  18.297  0.00  0.00    +0.144 HD
ATOM     15  H   UNL     1      28.801  71.841  18.754  0.00  0.00    +0.144 HD
ATOM     16  N   UNL     1      29.934  73.519  20.428  0.00  0.00    -0.178 NA
ATOM     17  C   UNL     1      30.413  74.475  21.263  0.00  0.00    +0.352 C 
ATOM     18  O   UNL     1      31.481  74.260  21.907  0.00  0.00    -0.244 OA
ENDBRANCH   8   9
BRANCH   7  19
ATOM     19  O   UNL     1      32.119  77.894  21.914  0.00  0.00    -0.385 OA
ATOM     20  H   UNL     1      32.587  78.806  21.685  0.00  0.00    +0.210 HD
ENDBRANCH   7  19
BRANCH   6  21
ATOM     21  O   UNL     1      31.497  79.854  23.422  0.00  0.00    -0.386 OA
ATOM     22  H   UNL     1      31.106  80.606  24.042  0.00  0.00    +0.210 HD
ENDBRANCH   6  21
BRANCH   5   4
ATOM      4  C   UNL     1      28.236  79.248  24.123  0.00  0.00    +0.198 C 
BRANCH   4   3
ATOM      3  O   UNL     1      27.547  78.576  25.139  0.00  0.00    -0.365 OA
BRANCH   3   2
ATOM      1  O   UNL     1      29.148  78.937  27.134  0.00  0.00    -0.577 OA
ATOM      2  P   UNL     1      27.656  79.068  26.696  0.00  0.00    -0.015 P 
ATOM     24  O   UNL     1      26.764  77.942  27.335  0.00  0.00    -0.577 OA
ATOM     25  O   UNL     1      27.153  80.418  26.799  0.00  0.00    -0.638 OA
ENDBRANCH   3   2
ENDBRANCH   4   3
ENDBRANCH   5   4
TORSDOF 6
