REMARK  Name = 2JAV
REMARK  5 active torsions:
REMARK  status: ('A' for Active; 'I' for Inactive)
REMARK    1  A    between atoms: C_1  and  N_2
REMARK    2  A    between atoms: C_3  and  C_5
REMARK    3  A    between atoms: C_6  and  C_7
REMARK    4  A    between atoms: C_8  and  C_9
REMARK    5  A    between atoms: C_11  and  C_12
REMARK                            x       y       z     vdW  Elec       q    Type
REMARK                         _______ _______ _______ _____ _____    ______ ____
ROOT
ATOM      9  C   UNL     1      -3.325   9.796  18.463  0.00  0.00    +0.024 C 
ATOM     10  C   UNL     1      -2.790   8.540  18.125  0.00  0.00    +0.045 C 
ATOM     11  C   UNL     1      -2.984   7.285  18.708  0.00  0.00    +0.249 C 
ATOM     12  O   UNL     1      -3.693   7.002  19.671  0.00  0.00    -0.270 OA
ATOM     13  N   UNL     1      -2.261   6.380  18.062  0.00  0.00    -0.281 N 
ATOM     14  H   UNL     1      -2.219   5.338  18.301  0.00  0.00    +0.155 HD
ATOM     15  C   UNL     1      -1.595   6.969  17.070  0.00  0.00    +0.042 A 
ATOM     16  C   UNL     1      -0.726   6.457  16.121  0.00  0.00    +0.025 A 
ATOM     17  C   UNL     1      -0.145   7.288  15.162  0.00  0.00    +0.022 A 
ATOM     18  C   UNL     1      -0.450   8.647  15.173  0.00  0.00    +0.042 A 
ATOM     19 CL   UNL     1       0.257   9.693  13.997  0.00  0.00    -0.084 Cl
ATOM     20  C   UNL     1      -1.330   9.170  16.119  0.00  0.00    +0.030 A 
ATOM     21  C   UNL     1      -1.906   8.332  17.072  0.00  0.00    +0.009 A 
ENDROOT
BRANCH   9   8
ATOM      5  C   UNL     1      -5.529  11.254  20.888  0.00  0.00    +0.059 C 
ATOM      6  C   UNL     1      -5.540   9.919  21.243  0.00  0.00    +0.046 C 
ATOM      7  N   UNL     1      -4.753   9.234  20.420  0.00  0.00    -0.270 NA
ATOM      8  C   UNL     1      -4.201  10.056  19.520  0.00  0.00    +0.135 C 
ATOM     22  C   UNL     1      -6.321   9.286  22.387  0.00  0.00    +0.066 C 
ATOM     23  C   UNL     1      -4.676  11.346  19.789  0.00  0.00    -0.025 C 
ATOM     24  C   UNL     1      -4.334  12.644  18.999  0.00  0.00    +0.043 C 
BRANCH   5   4
ATOM      1  C   UNL     1      -6.901  14.763  21.683  0.00  0.00    +0.128 C 
ATOM      2  N   UNL     1      -6.193  13.591  21.113  0.00  0.00    -0.314 N 
ATOM      3  H   UNL     1      -5.541  13.741  20.278  0.00  0.00    +0.149 HD
ATOM      4  C   UNL     1      -6.335  12.369  21.595  0.00  0.00    +0.246 C 
ATOM     25  O   UNL     1      -7.054  12.117  22.563  0.00  0.00    -0.270 OA
ENDBRANCH   5   4
ENDBRANCH   9   8
TORSDOF 2
