REMARK  Name = 5J9Y
REMARK  4 active torsions:
REMARK  status: ('A' for Active; 'I' for Inactive)
REMARK    1  A    between atoms: C_6  and  C_7
REMARK    2  A    between atoms: C_7  and  C_8
REMARK    3  A    between atoms: C_15  and  N_16
REMARK    4  A    between atoms: C_20  and  C_21
REMARK                            x       y       z     vdW  Elec       q    Type
REMARK                         _______ _______ _______ _____ _____    ______ ____
ROOT
ATOM      1  C   UNL     1       0.320  51.376 -21.183  0.00  0.00    +0.164 A 
ATOM      2  N   UNL     1      -0.579  50.461 -21.536  0.00  0.00    -0.241 N 
ATOM      3  N   UNL     1      -0.815  50.523 -22.714  0.00  0.00    -0.168 NA
ATOM      4  C   UNL     1      -0.085  51.467 -23.280  0.00  0.00    +0.106 A 
ATOM     25  N   UNL     1       0.854  51.646 -19.969  0.00  0.00    -0.216 NA
ATOM     26  C   UNL     1       1.823  52.658 -19.839  0.00  0.00    +0.225 A 
ATOM     27  N   UNL     1       2.187  53.342 -20.986  0.00  0.00    -0.220 NA
ATOM     28  C   UNL     1       1.620  53.043 -22.175  0.00  0.00    +0.131 A 
ATOM     29  N   UNL     1       2.024  53.787 -23.231  0.00  0.00    -0.343 N 
ATOM     30  H   UNL     1       2.764  54.548 -23.097  0.00  0.00    +0.144 HD
ATOM     31  H   UNL     1       1.603  53.614 -24.200  0.00  0.00    +0.144 HD
ATOM     32  C   UNL     1       0.670  52.052 -22.297  0.00  0.00    +0.086 A 
ENDROOT
BRANCH   4   5
ATOM      5  C   UNL     1      -0.165  51.728 -24.620  0.00  0.00    +0.011 A 
ATOM      6  C   UNL     1      -1.387  52.113 -25.207  0.00  0.00    +0.010 A 
ATOM      7  C   UNL     1      -1.482  52.407 -26.571  0.00  0.00    +0.001 A 
ATOM      8  C   UNL     1      -0.361  52.314 -27.392  0.00  0.00    +0.008 A 
ATOM      9  C   UNL     1       0.855  51.929 -26.850  0.00  0.00    -0.017 A 
ATOM     10  C   UNL     1       1.972  51.823 -27.693  0.00  0.00    +0.008 A 
ATOM     11  C   UNL     1       3.222  51.417 -27.201  0.00  0.00    +0.001 A 
ATOM     12  C   UNL     1       3.327  51.132 -25.850  0.00  0.00    +0.001 A 
ATOM     13  C   UNL     1       2.197  51.227 -25.026  0.00  0.00    +0.009 A 
ATOM     14  C   UNL     1       0.948  51.631 -25.484  0.00  0.00    -0.009 A 
ENDBRANCH   4   5
BRANCH   2  15
ATOM     15  C   UNL     1      -1.288  49.522 -20.626  0.00  0.00    +0.127 C 
ATOM     16  C   UNL     1      -0.771  48.054 -20.584  0.00  0.00    +0.030 C 
ATOM     17  C   UNL     1      -1.663  47.346 -19.584  0.00  0.00    +0.021 C 
ATOM     18  C   UNL     1      -3.039  47.253 -20.174  0.00  0.00    +0.108 C 
ATOM     19  N   UNL     1      -3.574  48.588 -20.166  0.00  0.00    -0.299 N 
ATOM     20  C   UNL     1      -4.706  48.791 -19.499  0.00  0.00    +0.215 C 
ATOM     21  O   UNL     1      -5.293  47.877 -18.926  0.00  0.00    -0.276 OA
ATOM     24  C   UNL     1      -2.813  49.586 -20.959  0.00  0.00    +0.134 C 
BRANCH  20  22
ATOM     22  C   UNL     1      -5.288  50.184 -19.409  0.00  0.00    +0.092 C 
ATOM     23  C   UNL     1      -6.034  50.108 -18.134  0.00  0.00    +0.013 C 
ENDBRANCH  20  22
ENDBRANCH   2  15
TORSDOF 3
