REMARK  Name = 2vx1_ligand
REMARK  3 active torsions:
REMARK  status: ('A' for Active; 'I' for Inactive)
REMARK    1  A    between atoms: N2_1  and  C6_26
REMARK    2  A    between atoms: N4_7  and  C11_8
REMARK    3  A    between atoms: C1_20  and  C2_22
REMARK                            x       y       z     vdW  Elec       q    Type
REMARK                         _______ _______ _______ _____ _____    ______ ____
ROOT
ATOM      1  N   UNL     1      13.707   7.444  11.536  0.00  0.00    -0.244 N 
ATOM      2  H   UNL     1      14.733   7.465  11.629  0.00  0.00    +0.218 HD
ATOM     14  C   UNL     1      13.060   6.224  11.845  0.00  0.00    +0.195 A 
ATOM     15  N   UNL     1      11.738   6.049  11.764  0.00  0.00    -0.235 NA
ATOM     16  C   UNL     1      11.263   4.839  12.052  0.00  0.00    +0.132 A 
ATOM     17  N   UNL     1       9.877   4.663  11.963  0.00  0.00    -0.261 N 
ATOM     18  H   UNL     1       9.305   5.449  11.622  0.00  0.00    +0.213 HD
ATOM     29  C   UNL     1      12.094   3.787  12.429  0.00  0.00    +0.056 A 
ATOM     30  C   UNL     1      13.441   4.061  12.482  0.00  0.00    +0.085 A 
ATOM     31  N   UNL     1      13.938   5.274  12.193  0.00  0.00    -0.269 NA
ENDROOT
BRANCH  17  19
ATOM     19  C   UNL     1       9.229   3.473  12.314  0.00  0.00    +0.100 A 
ATOM     20  C   UNL     1       8.617   2.665  11.367  0.00  0.00    +0.043 A 
ATOM     21 CL   UNL     1       8.691   3.179   9.703  0.00  0.00    -0.092 Cl
ATOM     22  C   UNL     1       7.974   1.500  11.749  0.00  0.00    -0.029 A 
ATOM     23  C   UNL     1       7.892   1.102  13.077  0.00  0.00    -0.009 A 
ATOM     24  C   UNL     1       8.508   1.916  13.997  0.00  0.00    +0.115 A 
ATOM     25  O   UNL     1       8.588   1.708  15.352  0.00  0.00    -0.294 OA
ATOM     26  C   UNL     1       9.608   2.680  15.689  0.00  0.00    +0.378 C 
ATOM     27  O   UNL     1       9.733   3.718  14.707  0.00  0.00    -0.296 OA
ATOM     28  C   UNL     1       9.162   3.061  13.633  0.00  0.00    +0.147 A 
ENDBRANCH  17  19
BRANCH   1   3
ATOM      3  C   UNL     1      13.077   8.637  11.111  0.00  0.00    +0.071 A 
ATOM      4  C   UNL     1      11.735   8.692  10.816  0.00  0.00    +0.040 A 
ATOM      5  C   UNL     1      11.197   9.905  10.405  0.00  0.00    +0.040 A 
ATOM      6  C   UNL     1      11.968  11.043  10.302  0.00  0.00    +0.004 A 
ATOM      7  C   UNL     1      13.310  10.982  10.608  0.00  0.00    -0.006 A 
ATOM     13  C   UNL     1      13.853   9.784  11.013  0.00  0.00    +0.023 A 
BRANCH   5   8
ATOM      8  C   UNL     1       9.762   9.973  10.094  0.00  0.00    +0.200 C 
ATOM      9  O   UNL     1       8.956   9.462  10.863  0.00  0.00    -0.385 OA
ATOM     10  N   UNL     1       9.438  10.628   8.926  0.00  0.00    -0.300 N 
ATOM     11  H   UNL     1       8.481  10.714   8.650  0.00  0.00    +0.181 HD
ATOM     12  H   UNL     1      10.160  11.018   8.354  0.00  0.00    +0.181 HD
ENDBRANCH   5   8
ENDBRANCH   1   3
TORSDOF 3
