REMARK  Name = 5IPJ
REMARK  6 active torsions:
REMARK  status: ('A' for Active; 'I' for Inactive)
REMARK    1  A    between atoms: C_1  and  C_2
REMARK    2  A    between atoms: N_18  and  C_19
REMARK    3  A    between atoms: N_21  and  C_22
REMARK    4  A    between atoms: C_22  and  C_23
REMARK    5  A    between atoms: C_22  and  C_24
REMARK    6  A    between atoms: C_22  and  C_25
REMARK                            x       y       z     vdW  Elec       q    Type
REMARK                         _______ _______ _______ _____ _____    ______ ____
ROOT
ATOM      1  C   UNL     1     -22.571 -30.801  -2.421  0.00  0.00    +0.034 C 
ATOM      2  C   UNL     1     -21.512 -31.273  -1.422  0.00  0.00    +0.120 C 
ATOM      3  C   UNL     1     -21.865 -32.552  -0.708  0.00  0.00    +0.074 C 
ATOM      4  N   UNL     1     -22.214 -33.869  -0.903  0.00  0.00    -0.249 NA
ATOM      5  C   UNL     1     -22.400 -34.500   0.294  0.00  0.00    +0.074 C 
ATOM      6  C   UNL     1     -22.782 -35.823   0.594  0.00  0.00    +0.026 C 
ATOM      7  C   UNL     1     -22.970 -36.563  -0.680  0.00  0.00    +0.085 C 
ATOM      8  N   UNL     1     -22.778 -36.064  -1.997  0.00  0.00    -0.215 NA
ATOM      9  C   UNL     1     -22.983 -36.851  -3.133  0.00  0.00    +0.199 C 
ATOM     10  N   UNL     1     -22.756 -36.282  -4.460  0.00  0.00    -0.310 N 
ATOM     11  H   UNL     1     -23.644 -36.503  -5.015  0.00  0.00    +0.149 HD
ATOM     16  N   UNL     1     -23.370 -38.136  -3.030  0.00  0.00    -0.284 N 
ATOM     17  C   UNL     1     -23.586 -38.984  -4.223  0.00  0.00    +0.155 C 
ATOM     18  C   UNL     1     -23.572 -38.679  -1.757  0.00  0.00    +0.259 C 
ATOM     19  O   UNL     1     -23.925 -39.837  -1.644  0.00  0.00    -0.267 OA
ATOM     20  C   UNL     1     -23.369 -37.870  -0.559  0.00  0.00    +0.047 C 
ATOM     21  C   UNL     1     -23.597 -38.457   0.764  0.00  0.00    +0.070 C 
ATOM     22  C   UNL     1     -23.418 -37.706   1.942  0.00  0.00    -0.021 C 
ATOM     23  C   UNL     1     -23.010 -36.368   1.865  0.00  0.00    +0.008 C 
ATOM     24  C   UNL     1     -22.175 -33.535   1.301  0.00  0.00    +0.043 C 
ATOM     25  C   UNL     1     -21.838 -32.318   0.655  0.00  0.00    +0.062 C 
ATOM     26  C   UNL     1     -21.463 -30.878   0.867  0.00  0.00    +0.246 C 
ATOM     27  O   UNL     1     -21.327 -30.307   1.958  0.00  0.00    -0.270 OA
ATOM     28  N   UNL     1     -21.275 -30.277  -0.418  0.00  0.00    -0.303 N 
ATOM     29  H   UNL     1     -21.004 -29.258  -0.599  0.00  0.00    +0.150 HD
ENDROOT
BRANCH  10  12
ATOM     12  C   UNL     1     -22.461 -34.897  -4.752  0.00  0.00    +0.026 C 
ATOM     13  C   UNL     1     -22.423 -34.761  -6.265  0.00  0.00    +0.031 C 
ATOM     14  C   UNL     1     -23.548 -33.985  -4.219  0.00  0.00    +0.031 C 
ATOM     15  C   UNL     1     -21.081 -34.537  -4.191  0.00  0.00    +0.031 C 
ENDBRANCH  10  12
TORSDOF 1
