REMARK  Name = AEQ
REMARK  3 active torsions:
REMARK  status: ('A' for Active; 'I' for Inactive)
REMARK    1  A    between atoms: C1_2  and  C_18
REMARK    2  A    between atoms: C9_8  and  C10_11
REMARK    3  A    between atoms: C10_11  and  O1_16
REMARK                            x       y       z     vdW  Elec       q    Type
REMARK                         _______ _______ _______ _____ _____    ______ ____
ROOT
ATOM      1  C   UNL     1      -1.137  -5.342 -27.242  0.00  0.00    +0.050 A 
ATOM      2  N   UNL     1      -2.346  -5.517 -26.514  0.00  0.00    -0.259 N 
ATOM      3  C   UNL     1      -2.337  -6.354 -25.251  0.00  0.00    +0.099 C 
ATOM      4  C   UNL     1      -1.036  -7.161 -25.162  0.00  0.00    +0.027 C 
ATOM      5  C   UNL     1      -0.744  -7.791 -26.536  0.00  0.00    +0.029 C 
ATOM      6  C   UNL     1      -3.548  -5.127 -27.116  0.00  0.00    +0.229 C 
ATOM      7  O   UNL     1      -4.574  -5.157 -26.439  0.00  0.00    -0.275 OA
ATOM     10  C   UNL     1      -0.325  -6.582 -27.354  0.00  0.00    -0.008 A 
ATOM     11  C   UNL     1       0.826  -6.578 -28.148  0.00  0.00    +0.003 A 
ATOM     12  C   UNL     1       1.164  -5.380 -28.837  0.00  0.00    +0.075 A 
ATOM     13  C   UNL     1       0.397  -4.167 -28.732  0.00  0.00    +0.008 A 
ATOM     18  C   UNL     1      -0.751  -4.199 -27.944  0.00  0.00    +0.015 A 
ENDROOT
BRANCH   6   8
ATOM      8  C   UNL     1      -3.748  -4.657 -28.585  0.00  0.00    +0.086 C 
ATOM      9  C   UNL     1      -4.832  -3.539 -28.672  0.00  0.00    +0.010 C 
ENDBRANCH   6   8
BRANCH  12  14
ATOM     14  C   UNL     1       2.412  -5.370 -29.643  0.00  0.00    +0.341 C 
ATOM     17  O   UNL     1       2.839  -4.300 -30.110  0.00  0.00    -0.245 OA
BRANCH  14  15
ATOM     15  O   UNL     1       3.203  -6.569 -29.827  0.00  0.00    -0.441 OA
ATOM     16  C   UNL     1       4.505  -6.057 -30.287  0.00  0.00    +0.256 C 
ENDBRANCH  14  15
ENDBRANCH  12  14
TORSDOF 3
