REMARK  Name = 1CX
REMARK  6 active torsions:
REMARK  status: ('A' for Active; 'I' for Inactive)
REMARK    1  A    between atoms: N1_1  and  C3_12
REMARK    2  A    between atoms: N1_1  and  C12_16
REMARK    3  A    between atoms: C7_5  and  C13_8
REMARK    4  A    between atoms: C15_9  and  C14_23
REMARK    5  A    between atoms: N2_21  and  O2_22
REMARK    6  A    between atoms: O2_22  and  C14_23
REMARK                            x       y       z     vdW  Elec       q    Type
REMARK                         _______ _______ _______ _____ _____    ______ ____
ROOT
ATOM     10  C   UNL     1      39.042 -14.026   5.686  0.00  0.00    +0.105 A 
ATOM     11  C   UNL     1      37.999 -14.837   5.524  0.00  0.00    +0.183 A 
ATOM     12  F   UNL     1      37.918 -15.800   6.396  0.00  0.00    -0.200 F 
ATOM     13  C   UNL     1      37.102 -14.672   4.518  0.00  0.00    +0.169 A 
ATOM     14  F   UNL     1      36.077 -15.496   4.379  0.00  0.00    -0.202 F 
ATOM     15  C   UNL     1      37.271 -13.631   3.647  0.00  0.00    +0.032 A 
ATOM     16  C   UNL     1      38.334 -12.773   3.806  0.00  0.00    +0.008 A 
ATOM     17  C   UNL     1      39.223 -12.973   4.832  0.00  0.00    +0.075 A 
ENDROOT
BRANCH  17  18
ATOM     18  C   UNL     1      40.340 -12.017   4.990  0.00  0.00    +0.291 C 
ATOM     19  O   UNL     1      41.006 -12.011   5.972  0.00  0.00    -0.266 OA
ATOM     20  N   UNL     1      40.596 -11.119   4.096  0.00  0.00    -0.058 NA
BRANCH  20  21
ATOM     21  O   UNL     1      41.621 -10.302   4.388  0.00  0.00    -0.241 OA
BRANCH  21  22
ATOM     22  C   UNL     1      41.513  -8.908   4.145  0.00  0.00    +0.209 C 
BRANCH  22  23
ATOM     23  C   UNL     1      42.213  -8.119   5.233  0.00  0.00    +0.217 C 
ATOM     24  O   UNL     1      41.397  -8.125   6.392  0.00  0.00    -0.218 OA
ENDBRANCH  22  23
ENDBRANCH  21  22
ENDBRANCH  20  21
ENDBRANCH  17  18
BRANCH  10   1
ATOM      1  N   UNL     1      39.825 -14.306   6.721  0.00  0.00    -0.208 NA
BRANCH   1   2
ATOM      2  C   UNL     1      40.404 -15.498   6.983  0.00  0.00    +0.098 A 
ATOM      3  C   UNL     1      41.326 -15.521   7.978  0.00  0.00    +0.156 A 
ATOM      4  F   UNL     1      41.573 -14.412   8.625  0.00  0.00    -0.203 F 
ATOM      5  C   UNL     1      42.009 -16.644   8.343  0.00  0.00    +0.037 A 
ATOM      6  C   UNL     1      41.775 -17.833   7.713  0.00  0.00    +0.032 A 
ATOM      7  I   UNL     1      42.843 -19.469   8.321  0.00  0.00    -0.042 I 
ATOM      8  C   UNL     1      40.847 -17.824   6.684  0.00  0.00    +0.007 A 
ATOM      9  C   UNL     1      40.159 -16.676   6.320  0.00  0.00    +0.019 A 
ENDBRANCH   1   2
ENDBRANCH  10   1
TORSDOF 6
