REMARK  Name = 2vwu_ligand
REMARK  9 active torsions:
REMARK  status: ('A' for Active; 'I' for Inactive)
REMARK    1  A    between atoms: C1_1  and  O2_2
REMARK    2  A    between atoms: O2_2  and  C3_3
REMARK    3  A    between atoms: C6_6  and  N7_7
REMARK    4  A    between atoms: N7_7  and  C8_8
REMARK    5  A    between atoms: C23_23  and  O24_24
REMARK    6  A    between atoms: O24_24  and  C25_25
REMARK    7  A    between atoms: C25_25  and  C26_26
REMARK    8  A    between atoms: C26_26  and  C27_27
REMARK    9  A    between atoms: C27_27  and  N28_28
REMARK                            x       y       z     vdW  Elec       q    Type
REMARK                         _______ _______ _______ _____ _____    ______ ____
ROOT
ATOM      3  C   UNL     1      11.650   9.565  11.160  0.00  0.00    +0.132 A 
ATOM      4  C   UNL     1      13.035   9.753  11.323  0.00  0.00    +0.133 A 
ATOM     16  C   UNL     1      13.838   8.727  11.758  0.00  0.00    +0.033 A 
ATOM     17  C   UNL     1      13.287   7.460  12.033  0.00  0.00    +0.026 A 
ATOM     18  N   UNL     1      14.054   6.431  12.477  0.00  0.00    -0.306 NA
ATOM     19  C   UNL     1      13.531   5.246  12.751  0.00  0.00    +0.154 A 
ATOM     20  N   UNL     1      12.232   5.014  12.601  0.00  0.00    -0.262 NA
ATOM     21  C   UNL     1      11.379   5.964  12.157  0.00  0.00    +0.148 A 
ATOM     34  C   UNL     1      11.887   7.259  11.864  0.00  0.00    +0.039 A 
ATOM     35  C   UNL     1      11.083   8.324  11.397  0.00  0.00    +0.037 A 
ENDROOT
BRANCH   3   2
ATOM      1  C   UNL     1       9.540  10.430  10.625  0.00  0.00    +0.231 C 
ATOM      2  O   UNL     1      10.962  10.664  10.724  0.00  0.00    -0.320 OA
ENDBRANCH   3   2
BRANCH  21  22
ATOM     22  N   UNL     1      10.020   5.703  11.964  0.00  0.00    -0.253 N 
ATOM     23  H   UNL     1       9.449   6.420  11.494  0.00  0.00    +0.219 HD
BRANCH  22  24
ATOM     24  C   UNL     1       9.386   4.513  12.377  0.00  0.00    +0.104 A 
ATOM     25  C   UNL     1       8.846   3.608  11.470  0.00  0.00    +0.045 A 
ATOM     26 CL   UNL     1       9.024   3.933   9.783  0.00  0.00    -0.091 Cl
ATOM     27  C   UNL     1       8.214   2.431  11.883  0.00  0.00    -0.028 A 
ATOM     28  C   UNL     1       8.079   2.166  13.239  0.00  0.00    -0.008 A 
ATOM     29  C   UNL     1       8.613   3.078  14.141  0.00  0.00    +0.116 A 
ATOM     30  O   UNL     1       8.634   3.050  15.480  0.00  0.00    -0.294 OA
ATOM     31  C   UNL     1       9.506   4.100  15.915  0.00  0.00    +0.378 C 
ATOM     32  O   UNL     1       9.711   4.962  14.784  0.00  0.00    -0.296 OA
ATOM     33  C   UNL     1       9.271   4.240  13.720  0.00  0.00    +0.148 A 
ENDBRANCH  22  24
ENDBRANCH  21  22
BRANCH   4   5
ATOM      5  O   UNL     1      13.496  10.999  11.030  0.00  0.00    -0.313 OA
BRANCH   5   6
ATOM      6  C   UNL     1      14.855  11.249  11.356  0.00  0.00    +0.199 C 
BRANCH   6   7
ATOM      7  C   UNL     1      15.016  12.779  11.297  0.00  0.00    +0.084 C 
BRANCH   7   8
ATOM      8  C   UNL     1      15.268  13.208   9.854  0.00  0.00    +0.134 C 
BRANCH   8   9
ATOM      9  N   UNL     1      15.373  14.676   9.688  0.00  0.00    +0.235 N 
ATOM     10  H   UNL     1      14.706  15.138  10.287  0.00  0.00    +0.203 HD
ATOM     11  C   UNL     1      15.094  14.970   8.279  0.00  0.00    +0.131 C 
ATOM     12  C   UNL     1      14.981  16.502   8.115  0.00  0.00    +0.051 C 
ATOM     13  C   UNL     1      16.298  17.182   8.544  0.00  0.00    +0.010 C 
ATOM     14  C   UNL     1      16.767  16.701   9.931  0.00  0.00    +0.051 C 
ATOM     15  C   UNL     1      16.736  15.162   9.991  0.00  0.00    +0.131 C 
ENDBRANCH   8   9
ENDBRANCH   7   8
ENDBRANCH   6   7
ENDBRANCH   5   6
ENDBRANCH   4   5
TORSDOF 8
