REMARK  Name = 3kab_ligand
REMARK  2 active torsions:
REMARK  status: ('A' for Active; 'I' for Inactive)
REMARK    1  A    between atoms: C1_1  and  C5_5
REMARK    2  A    between atoms: C11_11  and  C13_13
REMARK                            x       y       z     vdW  Elec       q    Type
REMARK                         _______ _______ _______ _____ _____    ______ ____
ROOT
ATOM      1  CA  UNL     1      33.235  25.773  24.738  0.00  0.00    +0.089 A 
ATOM      5  C   UNL     1      34.223  25.525  23.780  0.00  0.00    -0.016 A 
ATOM      6  C   UNL     1      35.363  25.222  24.577  0.00  0.00    -0.027 A 
ATOM      7  C   UNL     1      36.655  24.890  24.195  0.00  0.00    -0.023 A 
ATOM      8  C   UNL     1      37.601  24.637  25.186  0.00  0.00    -0.026 A 
ATOM      9  C   UNL     1      37.277  24.710  26.542  0.00  0.00    -0.058 A 
ATOM     10  C   UNL     1      38.339  24.427  27.572  0.00  0.00    +0.078 C 
ATOM     11  C   UNL     1      35.990  25.041  26.958  0.00  0.00    +0.006 A 
ATOM     12  C   UNL     1      35.022  25.300  25.999  0.00  0.00    +0.059 A 
ATOM     13  N   UNL     1      33.720  25.637  26.004  0.00  0.00    -0.274 N 
ATOM     14  H   UNL     1      33.160  25.775  26.857  0.00  0.00    +0.225 HD
ENDROOT
BRANCH   1   2
ATOM      2  C   UNL     1      31.828  26.141  24.415  0.00  0.00    +0.085 C 
ATOM      3  OXT UNL     1      31.487  26.238  23.216  0.00  0.00    -0.560 OA
ATOM      4  O   UNL     1      31.024  26.342  25.350  0.00  0.00    -0.560 OA
ENDBRANCH   1   2
TORSDOF 1
