REMARK  Name = 2RFS
REMARK  8 active torsions:
REMARK  status: ('A' for Active; 'I' for Inactive)
REMARK    1  A    between atoms: C_1  and  C_2
REMARK    2  A    between atoms: C_3  and  C_4
REMARK    3  A    between atoms: C_5  and  C_6
REMARK    4  A    between atoms: C_9  and  C_10
REMARK    5  A    between atoms: C_19  and  S_20
REMARK    6  A    between atoms: S_20  and  N_23
REMARK    7  A    between atoms: N_23  and  C_24
REMARK    8  A    between atoms: N_23  and  C_25
REMARK                            x       y       z     vdW  Elec       q    Type
REMARK                         _______ _______ _______ _____ _____    ______ ____
ROOT
ATOM      7  C   UNL     1      23.012  10.175  58.559  0.00  0.00    +0.050 C 
ATOM      8  C   UNL     1      24.253   9.553  58.496  0.00  0.00    +0.268 C 
ATOM      9  N   UNL     1      25.127  10.357  57.897  0.00  0.00    -0.176 NA
ATOM     10  C   UNL     1      24.512  11.489  57.548  0.00  0.00    +0.065 A 
ATOM     11  C   UNL     1      24.978  12.636  56.904  0.00  0.00    +0.028 A 
ATOM     12  C   UNL     1      24.111  13.703  56.655  0.00  0.00    +0.031 A 
ATOM     13  C   UNL     1      22.778  13.632  57.059  0.00  0.00    +0.109 A 
ATOM     26  C   UNL     1      22.312  12.484  57.700  0.00  0.00    +0.039 A 
ATOM     27  O   UNL     1      24.533   8.437  58.921  0.00  0.00    -0.268 OA
ATOM     28  C   UNL     1      23.173  11.415  57.949  0.00  0.00    +0.012 A 
ENDROOT
BRANCH   7   6
ATOM      1  C   UNL     1      19.525   6.309  62.031  0.00  0.00    +0.046 C 
ATOM      2  C   UNL     1      20.597   7.070  61.214  0.00  0.00    -0.025 C 
ATOM      3  C   UNL     1      21.945   6.762  61.121  0.00  0.00    +0.042 C 
ATOM      4  N   UNL     1      22.556   7.659  60.343  0.00  0.00    -0.252 NA
ATOM      5  C   UNL     1      21.669   8.572  59.920  0.00  0.00    +0.068 C 
ATOM      6  C   UNL     1      21.809   9.694  59.095  0.00  0.00    +0.041 C 
ATOM     29  C   UNL     1      22.639   5.572  61.787  0.00  0.00    +0.066 C 
ATOM     30  C   UNL     1      20.424   8.221  60.463  0.00  0.00    -0.021 C 
ATOM     31  C   UNL     1      19.086   8.948  60.267  0.00  0.00    +0.046 C 
ENDBRANCH   7   6
BRANCH  13  14
ATOM     14  S   UNL     1      21.672  14.967  56.738  0.00  0.00    +0.074 S 
ATOM     24  O   UNL     1      22.407  16.068  56.027  0.00  0.00    -0.150 OA
ATOM     25  O   UNL     1      21.075  15.478  58.015  0.00  0.00    -0.150 OA
BRANCH  14  15
ATOM     15  N   UNL     1      20.481  14.382  55.802  0.00  0.00    -0.206 N 
ATOM     23  C   UNL     1      20.538  14.599  54.347  0.00  0.00    +0.157 C 
BRANCH  15  16
ATOM     16  C   UNL     1      19.498  13.669  56.362  0.00  0.00    +0.052 A 
ATOM     17  C   UNL     1      18.550  14.247  57.215  0.00  0.00    +0.025 A 
ATOM     18  C   UNL     1      17.549  13.458  57.789  0.00  0.00    +0.003 A 
ATOM     19  C   UNL     1      17.496  12.091  57.509  0.00  0.00    +0.020 A 
ATOM     20  C   UNL     1      18.450  11.524  56.663  0.00  0.00    +0.043 A 
ATOM     21 CL   UNL     1      18.436   9.843  56.287  0.00  0.00    -0.084 Cl
ATOM     22  C   UNL     1      19.442  12.306  56.095  0.00  0.00    +0.044 A 
ENDBRANCH  15  16
ENDBRANCH  14  15
ENDBRANCH  13  14
TORSDOF 4
