REMARK  Name = 3d4q_ligand
REMARK  4 active torsions:
REMARK  status: ('A' for Active; 'I' for Inactive)
REMARK    1  A    between atoms: C18_1  and  N4_2
REMARK    2  A    between atoms: C12_5  and  C1_17
REMARK    3  A    between atoms: C6_16  and  C2_20
REMARK    4  A    between atoms: N27_27  and  O28_28
REMARK                            x       y       z     vdW  Elec       q    Type
REMARK                         _______ _______ _______ _____ _____    ______ ____
ROOT
ATOM      9  N   UNL     1      86.167   7.295  -7.637  0.00  0.00    +0.375 N 
ATOM     10  H   UNL     1      86.136   6.992  -8.598  0.00  0.00    +0.231 HD
ATOM     11  C   UNL     1      85.143   6.404  -7.306  0.00  0.00    +0.209 C 
ATOM     12  C   UNL     1      83.734   7.164  -7.461  0.00  0.00    +0.029 C 
ATOM     13  C   UNL     1      84.057   8.433  -7.878  0.00  0.00    +0.102 C 
ATOM     32  N   UNL     1      85.721   8.580  -8.012  0.00  0.00    -0.291 N 
ATOM     33  H   UNL     1      86.277   9.400  -8.296  0.00  0.00    +0.228 HD
ENDROOT
BRANCH  12  20
ATOM     20  C   UNL     1      82.544   6.422  -7.184  0.00  0.00    -0.034 A 
ATOM     21  C   UNL     1      81.194   6.488  -7.952  0.00  0.00    -0.009 A 
ATOM     22  C   UNL     1      80.159   5.586  -7.535  0.00  0.00    -0.036 A 
ATOM     23  C   UNL     1      78.745   5.356  -8.039  0.00  0.00    +0.082 C 
ATOM     24  C   UNL     1      78.178   4.123  -7.048  0.00  0.00    +0.093 C 
ATOM     25  C   UNL     1      79.362   3.842  -6.114  0.00  0.00    +0.049 C 
ATOM     26  N   UNL     1      79.441   3.046  -5.183  0.00  0.00    -0.181 NA
ATOM     29  C   UNL     1      80.438   4.684  -6.441  0.00  0.00    -0.007 A 
ATOM     30  C   UNL     1      81.653   4.649  -5.764  0.00  0.00    -0.005 A 
ATOM     31  C   UNL     1      82.700   5.510  -6.141  0.00  0.00    -0.015 A 
BRANCH  26  27
ATOM     27  O   UNL     1      78.230   2.344  -5.028  0.00  0.00    -0.271 OA
ATOM     28  H   UNL     1      78.308   1.733  -4.305  0.00  0.00    +0.272 HD
ENDBRANCH  26  27
ENDBRANCH  12  20
BRANCH   9   1
ATOM      1  C   UNL     1      87.586   6.922  -7.593  0.00  0.00    +0.100 C 
ATOM      2  C   UNL     1      88.415   7.728  -8.282  0.00  0.00    +0.106 C 
ATOM      3  C   UNL     1      89.870   7.405  -7.860  0.00  0.00    +0.135 C 
ATOM      4  N   UNL     1      90.210   5.955  -8.209  0.00  0.00    +0.227 N 
ATOM      5  H   UNL     1      90.266   5.880  -9.213  0.00  0.00    +0.201 HD
ATOM      6  H   UNL     1      91.108   5.739  -7.805  0.00  0.00    +0.201 HD
ATOM      7  C   UNL     1      89.232   4.946  -7.725  0.00  0.00    +0.135 C 
ATOM      8  C   UNL     1      87.774   5.460  -8.012  0.00  0.00    +0.106 C 
ENDBRANCH   9   1
BRANCH  13  14
ATOM     14  C   UNL     1      83.212   9.405  -8.144  0.00  0.00    +0.020 A 
ATOM     15  C   UNL     1      83.576  10.479  -8.910  0.00  0.00    +0.040 A 
ATOM     16  C   UNL     1      82.503  11.555  -9.134  0.00  0.00    +0.086 A 
ATOM     17  N   UNL     1      81.227  11.493  -8.619  0.00  0.00    -0.304 NA
ATOM     18  C   UNL     1      80.914  10.389  -7.865  0.00  0.00    +0.086 A 
ATOM     19  C   UNL     1      81.833   9.324  -7.586  0.00  0.00    +0.040 A 
ENDBRANCH  13  14
TORSDOF 4
