REMARK  Name = 2xyn_ligand
REMARK  8 active torsions:
REMARK  status: ('A' for Active; 'I' for Inactive)
REMARK    1  A    between atoms: N1_1  and  C7_7
REMARK    2  A    between atoms: N4_4  and  C8_8
REMARK    3  A    between atoms: C12_12  and  S23_21
REMARK    4  A    between atoms: N14_14  and  C15_15
REMARK    5  A    between atoms: C18_17  and  C21_20
REMARK    6  A    between atoms: S23_21  and  C24_22
REMARK    7  A    between atoms: C27_25  and  N30_28
REMARK    8  A    between atoms: C31_29  and  C33_31
REMARK                            x       y       z     vdW  Elec       q    Type
REMARK                         _______ _______ _______ _____ _____    ______ ____
ROOT
ATOM      7  C   UNL     1     -52.456  45.927  -6.359  0.00  0.00    +0.109 A 
ATOM      8  N   UNL     1     -53.122  46.064  -7.530  0.00  0.00    -0.259 NA
ATOM      9  C   UNL     1     -53.552  47.293  -7.926  0.00  0.00    +0.145 A 
ATOM     24  N   UNL     1     -53.317  48.380  -7.179  0.00  0.00    -0.255 NA
ATOM     25  C   UNL     1     -52.651  48.306  -6.036  0.00  0.00    +0.129 A 
ATOM     26  N   UNL     1     -52.408  49.395  -5.328  0.00  0.00    -0.232 N 
ATOM     27  H   UNL     1     -51.917  49.280  -4.430  0.00  0.00    +0.221 HD
ATOM     35  C   UNL     1     -52.203  47.070  -5.597  0.00  0.00    +0.070 A 
ENDROOT
BRANCH   7   6
ATOM      1  N   UNL     1     -51.224  42.136  -4.828  0.00  0.00    +0.236 N 
ATOM      2  H   UNL     1     -50.240  42.355  -4.833  0.00  0.00    +0.203 HD
ATOM      3  C   UNL     1     -51.429  40.762  -4.295  0.00  0.00    +0.191 C 
ATOM      4  C   UNL     1     -51.947  43.106  -3.983  0.00  0.00    +0.156 C 
ATOM      5  C   UNL     1     -51.615  44.517  -4.457  0.00  0.00    +0.187 C 
ATOM      6  N   UNL     1     -51.976  44.677  -5.884  0.00  0.00    -0.282 N 
ATOM     36  C   UNL     1     -51.633  43.597  -6.823  0.00  0.00    +0.187 C 
ATOM     37  C   UNL     1     -51.758  42.211  -6.194  0.00  0.00    +0.156 C 
ENDBRANCH   7   6
BRANCH  26  28
ATOM     28  C   UNL     1     -52.752  50.636  -5.691  0.00  0.00    +0.172 A 
ATOM     29  N   UNL     1     -52.381  51.671  -4.948  0.00  0.00    -0.211 N 
ATOM     30  H   UNL     1     -51.822  51.625  -4.084  0.00  0.00    +0.247 HD
ATOM     31  N   UNL     1     -52.822  52.700  -5.471  0.00  0.00    -0.253 NA
ATOM     32  C   UNL     1     -53.496  52.396  -6.573  0.00  0.00    -0.016 A 
ATOM     33  C   UNL     1     -54.168  53.452  -7.455  0.00  0.00    +0.079 C 
ATOM     34  C   UNL     1     -53.474  51.073  -6.733  0.00  0.00    -0.010 A 
ENDBRANCH  26  28
BRANCH   9  10
ATOM     10  S   UNL     1     -54.441  47.472  -9.425  0.00  0.00    -0.016 S 
BRANCH  10  11
ATOM     11  C   UNL     1     -54.899  49.122  -9.761  0.00  0.00    +0.022 A 
ATOM     12  C   UNL     1     -56.170  49.556  -9.500  0.00  0.00    -0.006 A 
ATOM     13  C   UNL     1     -56.532  50.867  -9.792  0.00  0.00    +0.003 A 
ATOM     14  C   UNL     1     -55.653  51.786 -10.368  0.00  0.00    +0.060 A 
ATOM     22  C   UNL     1     -54.383  51.310 -10.661  0.00  0.00    +0.003 A 
ATOM     23  C   UNL     1     -54.021  49.998 -10.363  0.00  0.00    -0.006 A 
BRANCH  14  15
ATOM     15  N   UNL     1     -56.064  53.067 -10.649  0.00  0.00    -0.237 N 
ATOM     16  H   UNL     1     -57.045  53.262 -10.641  0.00  0.00    +0.224 HD
ATOM     17  C   UNL     1     -55.222  54.066 -10.932  0.00  0.00    +0.205 C 
ATOM     21  O   UNL     1     -54.019  53.932 -11.003  0.00  0.00    -0.385 OA
BRANCH  17  18
ATOM     18  C   UNL     1     -55.801  55.402 -11.348  0.00  0.00    +0.109 C 
ATOM     19  C   UNL     1     -55.370  56.574 -10.488  0.00  0.00    +0.028 C 
ATOM     20  C   UNL     1     -56.827  56.093 -10.440  0.00  0.00    +0.028 C 
ENDBRANCH  17  18
ENDBRANCH  14  15
ENDBRANCH  10  11
ENDBRANCH   9  10
TORSDOF 6
