REMARK  Name = 1b39_ligand
REMARK  11 active torsions:
REMARK  status: ('A' for Active; 'I' for Inactive)
REMARK    1  A    between atoms: PG_1  and  O3B_8
REMARK    2  A    between atoms: PB_5  and  O3B_8
REMARK    3  A    between atoms: PB_5  and  O3A_12
REMARK    4  A    between atoms: PA_9  and  O3A_12
REMARK    5  A    between atoms: PA_9  and  O5_13
REMARK    6  A    between atoms: O5_13  and  C5_14
REMARK    7  A    between atoms: C5_14  and  C4_15
REMARK    8  A    between atoms: C3_17  and  O3_18
REMARK    9  A    between atoms: C2_19  and  O2_20
REMARK   10  A    between atoms: C1_21  and  N9_22
REMARK   11  A    between atoms: C6_26  and  N6_27
REMARK                            x       y       z     vdW  Elec       q    Type
REMARK                         _______ _______ _______ _____ _____    ______ ____
ROOT
ATOM      8  C   UNL     1       0.148  24.648   9.554  0.00  0.00    +0.184 C 
ATOM      9  C   UNL     1       1.082  24.890  10.750  0.00  0.00    +0.180 C 
ATOM     10  C   UNL     1       1.202  26.458  10.680  0.00  0.00    +0.206 C 
ATOM     11  C   UNL     1       1.196  26.716   9.144  0.00  0.00    +0.301 C 
ATOM     28  O   UNL     1       0.247  25.795   8.690  0.00  0.00    -0.336 OA
ENDROOT
BRANCH  11  12
ATOM     12  N   UNL     1       0.588  27.996   8.742  0.00  0.00    -0.192 N 
ATOM     13  C   UNL     1       1.076  29.074   7.991  0.00  0.00    +0.161 A 
ATOM     14  N   UNL     1       2.110  29.077   7.112  0.00  0.00    -0.271 NA
ATOM     15  C   UNL     1       2.291  30.294   6.618  0.00  0.00    +0.153 A 
ATOM     16  N   UNL     1       1.582  31.433   6.899  0.00  0.00    -0.270 NA
ATOM     17  C   UNL     1       0.559  31.388   7.783  0.00  0.00    +0.130 A 
ATOM     21  C   UNL     1       0.298  30.160   8.350  0.00  0.00    +0.105 A 
ATOM     22  N   UNL     1      -0.608  29.839   9.246  0.00  0.00    -0.296 NA
ATOM     23  C   UNL     1      -0.427  28.592   9.427  0.00  0.00    +0.247 A 
BRANCH  17  18
ATOM     18  N   UNL     1      -0.055  32.538   8.020  0.00  0.00    -0.315 N 
ATOM     19  H   UNL     1      -0.828  32.579   8.700  0.00  0.00    +0.182 HD
ATOM     20  H   UNL     1       0.240  33.391   7.524  0.00  0.00    +0.182 HD
ENDBRANCH  17  18
ENDBRANCH  11  12
BRANCH  10  24
ATOM     24  O   UNL     1       2.449  26.818  11.324  0.00  0.00    -0.384 OA
ATOM     25  H   UNL     1       3.172  26.405  10.866  0.00  0.00    +0.210 HD
ENDBRANCH  10  24
BRANCH   9  26
ATOM     26  O   UNL     1       2.358  24.311  10.322  0.00  0.00    -0.386 OA
ATOM     27  H   UNL     1       3.001  24.419  11.013  0.00  0.00    +0.210 HD
ENDBRANCH   9  26
BRANCH   8   7
ATOM      7  C   UNL     1      -1.296  24.510  10.035  0.00  0.00    +0.243 C 
BRANCH   7   6
ATOM      6  O   UNL     1      -1.554  25.630  10.942  0.00  0.00    -0.244 OA
BRANCH   6   5
ATOM      5  P   UNL     1      -2.802  25.365  11.864  0.00  0.00    +0.327 P 
ATOM     29  O   UNL     1      -3.419  26.609  12.377  0.00  0.00    -0.569 OA
ATOM     30  O   UNL     1      -3.884  24.619  11.123  0.00  0.00    -0.569 OA
BRANCH   5   4
ATOM      4  O   UNL     1      -2.263  24.357  13.015  0.00  0.00    -0.117 OA
BRANCH   4   3
ATOM      3  P   UNL     1      -1.436  24.535  14.401  0.00  0.00    +0.355 P 
ATOM     31  O   UNL     1      -0.434  23.440  14.436  0.00  0.00    -0.565 OA
ATOM     32  O   UNL     1      -0.793  25.836  14.439  0.00  0.00    -0.565 OA
BRANCH   3   2
ATOM      2  O   UNL     1      -2.579  24.269  15.473  0.00  0.00    -0.155 OA
BRANCH   2   1
ATOM      1  P   UNL     1      -3.806  25.217  15.796  0.00  0.00    +0.188 P 
ATOM     33  O   UNL     1      -4.998  24.742  15.025  0.00  0.00    -0.609 OA
ATOM     34  O   UNL     1      -3.514  26.569  15.259  0.00  0.00    -0.609 OA
ATOM     35  O   UNL     1      -4.147  25.277  17.223  0.00  0.00    -0.609 OA
ENDBRANCH   2   1
ENDBRANCH   3   2
ENDBRANCH   4   3
ENDBRANCH   5   4
ENDBRANCH   6   5
ENDBRANCH   7   6
ENDBRANCH   8   7
TORSDOF 11
