REMARK  Name = 2wtv_ligand
REMARK  3 active torsions:
REMARK  status: ('A' for Active; 'I' for Inactive)
REMARK    1  A    between atoms: C15_2  and  C16_23
REMARK    2  A    between atoms: C02_11  and  C04_13
REMARK    3  A    between atoms: C07_16  and  N08_17
REMARK                            x       y       z     vdW  Elec       q    Type
REMARK                         _______ _______ _______ _____ _____    ______ ____
ROOT
ATOM      1  C   UNL     1       0.239  -8.129  -4.330  0.00  0.00    +0.151 C 
ATOM      2  N   UNL     1       0.460  -9.551  -4.278  0.00  0.00    -0.332 NA
ATOM      3  C   UNL     1       1.559 -10.168  -4.377  0.00  0.00    +0.055 C 
ATOM     12  C   UNL     1       2.934  -9.598  -4.624  0.00  0.00    +0.025 A 
ATOM     13  C   UNL     1       3.308  -8.412  -3.978  0.00  0.00    +0.018 A 
ATOM     14  C   UNL     1       2.483  -7.585  -3.177  0.00  0.00    +0.063 A 
ATOM     15  N   UNL     1       3.174  -6.913  -2.275  0.00  0.00    -0.252 NA
ATOM     16  C   UNL     1       2.476  -6.072  -1.407  0.00  0.00    +0.205 A 
ATOM     17  N   UNL     1       1.101  -5.920  -1.482  0.00  0.00    -0.258 NA
ATOM     18  C   UNL     1       0.411  -6.600  -2.427  0.00  0.00    +0.102 A 
ATOM     19  N   UNL     1       3.216  -5.305  -0.444  0.00  0.00    -0.243 N 
ATOM     20  H   UNL     1       2.600  -4.834   0.234  0.00  0.00    +0.217 HD
ATOM     30  C   UNL     1       4.582  -7.870  -4.170  0.00  0.00    +0.024 A 
ATOM     31  C   UNL     1       5.476  -8.541  -5.011  0.00  0.00    +0.029 A 
ATOM     32  C   UNL     1       5.093  -9.735  -5.653  0.00  0.00    +0.050 A 
ATOM     33 CL   UNL     1       6.186 -10.582  -6.778  0.00  0.00    -0.067 Cl
ATOM     34  C   UNL     1       3.816 -10.270  -5.452  0.00  0.00    +0.043 A 
ATOM     35  C   UNL     1       1.088  -7.423  -3.265  0.00  0.00    +0.015 A 
ENDROOT
BRANCH   3   4
ATOM      4  C   UNL     1       1.645 -11.680  -4.221  0.00  0.00    +0.084 A 
ATOM      5  C   UNL     1       2.239 -12.239  -3.083  0.00  0.00    +0.152 A 
ATOM      6  F   UNL     1       2.815 -11.427  -2.151  0.00  0.00    -0.176 F 
ATOM      7  C   UNL     1       2.281 -13.630  -2.914  0.00  0.00    +0.035 A 
ATOM      8  C   UNL     1       1.719 -14.468  -3.883  0.00  0.00    +0.006 A 
ATOM      9  C   UNL     1       1.123 -13.909  -5.018  0.00  0.00    +0.035 A 
ATOM     10  C   UNL     1       1.089 -12.521  -5.188  0.00  0.00    +0.152 A 
ATOM     11  F   UNL     1       0.545 -11.990  -6.317  0.00  0.00    -0.176 F 
ENDBRANCH   3   4
BRANCH  19  21
ATOM     21  C   UNL     1       4.609  -5.033  -0.195  0.00  0.00    +0.067 A 
ATOM     22  C   UNL     1       4.996  -3.804   0.333  0.00  0.00    +0.020 A 
ATOM     23  C   UNL     1       6.357  -3.522   0.463  0.00  0.00    +0.005 A 
ATOM     24  C   UNL     1       7.302  -4.466   0.058  0.00  0.00    -0.002 A 
ATOM     25  C   UNL     1       6.915  -5.696  -0.481  0.00  0.00    +0.005 A 
ATOM     29  C   UNL     1       5.555  -5.982  -0.607  0.00  0.00    +0.020 A 
BRANCH  24  26
ATOM     26  C   UNL     1       8.777  -4.154   0.201  0.00  0.00    +0.055 C 
ATOM     27  O   UNL     1       9.180  -2.923   0.724  0.00  0.00    -0.564 OA
ATOM     28  O   UNL     1       9.569  -4.964  -0.135  0.00  0.00    -0.564 OA
ENDBRANCH  24  26
ENDBRANCH  19  21
TORSDOF 3
