REMARK  Name = 3NR9
REMARK  4 active torsions:
REMARK  status: ('A' for Active; 'I' for Inactive)
REMARK    1  A    between atoms: C_2  and  C_11
REMARK    2  A    between atoms: C_11  and  C_12
REMARK    3  A    between atoms: N_18  and  C_19
REMARK    4  A    between atoms: C_19  and  C_20
REMARK                            x       y       z     vdW  Elec       q    Type
REMARK                         _______ _______ _______ _____ _____    ______ ____
ROOT
ATOM     12  C   UNL     1      68.770 -27.577  45.467  0.00  0.00    +0.129 C 
ATOM     13  S   UNL     1      67.681 -26.314  45.508  0.00  0.00    -0.075 S 
ATOM     14  C   UNL     1      66.370 -27.307  45.144  0.00  0.00    +0.148 C 
ATOM     15  N   UNL     1      65.126 -26.893  44.984  0.00  0.00    -0.321 N 
ATOM     16  H   UNL     1      64.307 -27.552  45.184  0.00  0.00    +0.148 HD
ATOM     23  N   UNL     1      66.750 -28.579  45.003  0.00  0.00    -0.158 NA
ATOM     24  C   UNL     1      68.074 -28.757  45.178  0.00  0.00    +0.257 C 
ATOM     25  O   UNL     1      68.617 -29.872  45.073  0.00  0.00    -0.272 OA
ENDROOT
BRANCH  12  11
ATOM     11  C   UNL     1      70.141 -27.525  45.693  0.00  0.00    +0.064 C 
BRANCH  11  10
ATOM      1  C   UNL     1      72.249 -26.544  45.407  0.00  0.00    +0.006 A 
ATOM      2  C   UNL     1      73.133 -25.472  45.448  0.00  0.00    +0.028 A 
ATOM      3  C   UNL     1      72.655 -24.238  45.842  0.00  0.00    +0.071 A 
ATOM      4  N   UNL     1      73.498 -23.205  45.875  0.00  0.00    -0.255 NA
ATOM      5  C   UNL     1      73.068 -22.013  46.233  0.00  0.00    +0.111 A 
ATOM      6  C   UNL     1      71.743 -21.801  46.592  0.00  0.00    +0.020 A 
ATOM      7  C   UNL     1      70.854 -22.853  46.571  0.00  0.00    +0.011 A 
ATOM      8  C   UNL     1      71.314 -24.091  46.179  0.00  0.00    +0.001 A 
ATOM      9  C   UNL     1      70.437 -25.166  46.137  0.00  0.00    +0.013 A 
ATOM     10  C   UNL     1      70.920 -26.394  45.744  0.00  0.00    -0.045 A 
ENDBRANCH  11  10
ENDBRANCH  12  11
BRANCH  15  17
ATOM     17  C   UNL     1      64.879 -25.529  44.532  0.00  0.00    +0.145 C 
BRANCH  17  18
ATOM     18  C   UNL     1      63.917 -24.899  45.506  0.00  0.00    +0.007 A 
ATOM     19  C   UNL     1      62.575 -24.861  45.426  0.00  0.00    +0.013 A 
ATOM     20  C   UNL     1      62.011 -24.226  46.465  0.00  0.00    +0.008 A 
ATOM     21  C   UNL     1      62.865 -23.739  47.399  0.00  0.00    +0.045 A 
ATOM     22  S   UNL     1      64.445 -24.123  46.930  0.00  0.00    -0.100 S 
ENDBRANCH  17  18
ENDBRANCH  15  17
TORSDOF 4
