REMARK  Name = 5FXS
REMARK  9 active torsions:
REMARK  status: ('A' for Active; 'I' for Inactive)
REMARK    1  A    between atoms: C_3  and  C_6
REMARK    2  A    between atoms: C_4  and  N_33
REMARK    3  A    between atoms: C_8  and  C_21
REMARK    4  A    between atoms: C_9  and  C_22
REMARK    5  A    between atoms: C_15  and  C_25
REMARK    6  A    between atoms: C_20  and  N_31
REMARK    7  A    between atoms: C_23  and  N_34
REMARK    8  A    between atoms: C_24  and  N_34
REMARK    9  A    between atoms: C_25  and  N_32
REMARK                            x       y       z     vdW  Elec       q    Type
REMARK                         _______ _______ _______ _____ _____    ______ ____
ROOT
ATOM     16  C   UNL     1      10.267  -2.566  53.477  0.00  0.00    +0.086 C 
ATOM     17  C   UNL     1       9.108  -3.169  53.767  0.00  0.00    +0.105 C 
ATOM     18  N   UNL     1       8.671  -3.812  52.678  0.00  0.00    -0.212 NA
ATOM     19  N   UNL     1       9.531  -3.621  51.613  0.00  0.00    -0.279 N 
ATOM     20  H   UNL     1       9.428  -3.997  50.617  0.00  0.00    +0.166 HD
ATOM     33  C   UNL     1       8.276  -3.054  55.010  0.00  0.00    +0.038 C 
ATOM     34  C   UNL     1      10.518  -2.865  52.099  0.00  0.00    +0.039 C 
ATOM     35  C   UNL     1      11.638  -2.463  51.194  0.00  0.00    +0.064 C 
ENDROOT
BRANCH  16  15
ATOM     11  C   UNL     1      14.301  -3.090  53.924  0.00  0.00    +0.073 A 
ATOM     12  N   UNL     1      12.992  -2.982  53.770  0.00  0.00    -0.322 N 
ATOM     13  H   UNL     1      12.440  -3.656  53.149  0.00  0.00    +0.169 HD
ATOM     14  C   UNL     1      12.395  -1.987  54.431  0.00  0.00    +0.229 A 
ATOM     15  N   UNL     1      11.046  -1.829  54.284  0.00  0.00    -0.214 NA
ATOM     36  N   UNL     1      12.964  -1.088  55.237  0.00  0.00    -0.219 NA
ATOM     37  C   UNL     1      14.275  -1.227  55.372  0.00  0.00    +0.136 A 
ATOM     38  C   UNL     1      14.985  -2.205  54.728  0.00  0.00    +0.083 A 
ATOM     39 CL   UNL     1      16.683  -2.267  54.959  0.00  0.00    -0.080 Cl
BRANCH  11  10
ATOM      1  C   UNL     1      16.279  -4.386  52.821  0.00  0.00    +0.114 A 
ATOM      2  N   UNL     1      16.443  -5.459  52.079  0.00  0.00    -0.300 N 
ATOM      3  H   UNL     1      17.363  -5.839  51.687  0.00  0.00    +0.187 HD
ATOM      4  N   UNL     1      15.192  -5.989  51.913  0.00  0.00    -0.262 N 
ATOM      5  C   UNL     1      14.811  -7.095  51.217  0.00  0.00    +0.107 C 
ATOM      6  C   UNL     1      13.488  -7.466  51.160  0.00  0.00    -0.003 C 
ATOM      7  C   UNL     1      12.549  -6.707  51.816  0.00  0.00    +0.058 C 
ATOM      8  C   UNL     1      12.914  -5.588  52.515  0.00  0.00    +0.005 C 
ATOM      9  C   UNL     1      14.255  -5.193  52.580  0.00  0.00    +0.070 A 
ATOM     10  C   UNL     1      14.933  -4.159  53.177  0.00  0.00    +0.042 A 
ENDBRANCH  11  10
ENDBRANCH  16  15
BRANCH  18  21
ATOM     21  C   UNL     1       7.390  -4.504  52.506  0.00  0.00    +0.079 C 
ATOM     22  C   UNL     1       7.444  -5.725  51.685  0.00  0.00    +0.036 C 
ATOM     23  C   UNL     1       6.148  -6.461  51.796  0.00  0.00    +0.086 C 
ATOM     24  N   UNL     1       4.948  -5.636  51.416  0.00  0.00    -0.294 NA
ATOM     31  C   UNL     1       4.999  -4.319  52.123  0.00  0.00    +0.086 C 
ATOM     32  C   UNL     1       6.321  -3.640  51.966  0.00  0.00    +0.036 C 
BRANCH  24  25
ATOM     25  C   UNL     1       4.830  -5.463  49.968  0.00  0.00    +0.180 C 
BRANCH  25  26
ATOM     26  C   UNL     1       3.375  -5.559  49.533  0.00  0.00    +0.229 C 
ATOM     27  O   UNL     1       2.907  -4.901  48.619  0.00  0.00    -0.274 OA
ATOM     28  N   UNL     1       2.610  -6.418  50.227  0.00  0.00    -0.306 N 
ATOM     29  C   UNL     1       1.221  -6.576  49.890  0.00  0.00    +0.131 C 
ATOM     30  C   UNL     1       3.172  -7.182  51.303  0.00  0.00    +0.131 C 
ENDBRANCH  25  26
ENDBRANCH  24  25
ENDBRANCH  18  21
TORSDOF 5
