REMARK  Name = 1nvq_ligand
REMARK  6 active torsions:
REMARK  status: ('A' for Active; 'I' for Inactive)
REMARK    1  A    between atoms: O37_1  and  C9_2
REMARK    2  A    between atoms: C21_26  and  C26_36
REMARK    3  A    between atoms: C23_30  and  N4_31
REMARK    4  A    between atoms: N4_31  and  C28_32
REMARK    5  A    between atoms: C22_33  and  O6_34
REMARK    6  A    between atoms: O6_34  and  C27_35
REMARK                            x       y       z     vdW  Elec       q    Type
REMARK                         _______ _______ _______ _____ _____    ______ ____
ROOT
ATOM      3  C   UNL     1       7.763   9.310  18.455  0.00  0.00    +0.274 C 
ATOM      4  C   UNL     1       6.718   8.250  18.083  0.00  0.00    +0.013 A 
ATOM      5  C   UNL     1       6.929   7.070  17.276  0.00  0.00    +0.004 A 
ATOM      6  C   UNL     1       8.040   6.496  16.593  0.00  0.00    -0.007 A 
ATOM      7  C   UNL     1       9.388   6.894  16.462  0.00  0.00    -0.013 A 
ATOM      8  C   UNL     1      10.317   6.157  15.716  0.00  0.00    -0.024 A 
ATOM      9  C   UNL     1       9.852   4.952  15.062  0.00  0.00    -0.018 A 
ATOM     10  C   UNL     1       8.530   4.544  15.175  0.00  0.00    +0.013 A 
ATOM     11  C   UNL     1       7.606   5.281  15.927  0.00  0.00    +0.070 A 
ATOM     12  N   UNL     1       6.214   5.132  16.220  0.00  0.00    -0.229 N 
ATOM     13  C   UNL     1       5.203   4.073  15.786  0.00  0.00    +0.202 C 
ATOM     14  C   UNL     1       5.859   2.714  15.565  0.00  0.00    +0.079 C 
ATOM     15  C   UNL     1       4.498   4.521  14.421  0.00  0.00    +0.227 C 
ATOM     18  C   UNL     1       3.044   3.921  14.517  0.00  0.00    +0.102 C 
ATOM     23  C   UNL     1       2.252   4.557  15.695  0.00  0.00    +0.120 C 
ATOM     24  C   UNL     1       3.038   4.487  17.064  0.00  0.00    +0.260 C 
ATOM     25  N   UNL     1       3.249   5.875  17.538  0.00  0.00    -0.238 N 
ATOM     26  C   UNL     1       4.522   6.531  17.606  0.00  0.00    +0.095 A 
ATOM     27  C   UNL     1       4.305   7.717  18.409  0.00  0.00    -0.002 A 
ATOM     28  C   UNL     1       2.946   7.762  18.797  0.00  0.00    -0.007 A 
ATOM     29  C   UNL     1       2.138   8.636  19.557  0.00  0.00    -0.011 A 
ATOM     30  C   UNL     1       0.789   8.386  19.751  0.00  0.00    -0.023 A 
ATOM     31  C   UNL     1       0.161   7.221  19.181  0.00  0.00    -0.016 A 
ATOM     32  C   UNL     1       0.910   6.314  18.417  0.00  0.00    +0.014 A 
ATOM     33  C   UNL     1       2.310   6.590  18.227  0.00  0.00    +0.068 A 
ATOM     34  O   UNL     1       4.303   3.848  16.855  0.00  0.00    -0.315 OA
ATOM     35  C   UNL     1       5.757   6.217  17.061  0.00  0.00    +0.098 A 
ATOM     36  C   UNL     1       5.533   8.565  18.603  0.00  0.00    +0.035 A 
ATOM     37  C   UNL     1       5.627   9.848  19.364  0.00  0.00    +0.189 C 
ATOM     38  O   UNL     1       4.747  10.448  19.963  0.00  0.00    -0.396 OA
ATOM     39  N   UNL     1       6.918  10.194  19.227  0.00  0.00    -0.253 N 
ATOM     40  H   UNL     1       7.280  11.029  19.642  0.00  0.00    +0.189 HD
ENDROOT
BRANCH  18  19
ATOM     19  N   UNL     1       2.178   4.169  13.217  0.00  0.00    +0.229 N 
ATOM     20  H   UNL     1       1.263   3.768  13.348  0.00  0.00    +0.201 HD
ATOM     21  H   UNL     1       2.091   5.161  13.063  0.00  0.00    +0.201 HD
ATOM     22  C   UNL     1       2.823   3.540  12.017  0.00  0.00    +0.189 C 
ENDBRANCH  18  19
BRANCH   3   1
ATOM      1  O   UNL     1       8.270   9.954  17.291  0.00  0.00    -0.358 OA
ATOM      2  H   UNL     1       8.819   9.347  16.808  0.00  0.00    +0.215 HD
ENDBRANCH   3   1
BRANCH  15  16
ATOM     16  O   UNL     1       4.343   5.966  14.377  0.00  0.00    -0.369 OA
ATOM     17  C   UNL     1       5.175   6.571  13.399  0.00  0.00    +0.195 C 
ENDBRANCH  15  16
TORSDOF 3
