REMARK  Name = 8XX
REMARK  3 active torsions:
REMARK  status: ('A' for Active; 'I' for Inactive)
REMARK    1  A    between atoms: C02_7  and  C12_15
REMARK    2  A    between atoms: C05_9  and  N03_23
REMARK    3  A    between atoms: C18_18  and  N17_24
REMARK                            x       y       z     vdW  Elec       q    Type
REMARK                         _______ _______ _______ _____ _____    ______ ____
ROOT
ATOM      7  C   UNL     1     -24.601  -7.464  77.631  0.00  0.00    +0.055 A 
ATOM      8  C   UNL     1     -24.718  -6.477  78.621  0.00  0.00    +0.006 A 
ATOM      9  C   UNL     1     -23.608  -5.677  78.915  0.00  0.00    +0.016 A 
ATOM     10  C   UNL     1     -22.392  -5.888  78.218  0.00  0.00    +0.067 A 
ATOM     11  N   UNL     1     -21.221  -5.043  78.493  0.00  0.00    -0.254 N 
ATOM     12  C   UNL     1     -21.424  -3.772  79.194  0.00  0.00    +0.120 C 
ATOM     13  C   UNL     1     -19.890  -5.396  78.070  0.00  0.00    +0.247 C 
ATOM     14  O   UNL     1     -18.939  -4.701  78.242  0.00  0.00    -0.273 OA
ATOM     15  C   UNL     1     -19.837  -6.767  77.316  0.00  0.00    +0.150 C 
ATOM     16  C   UNL     1     -19.558  -7.857  78.365  0.00  0.00    +0.031 C 
ATOM     17  N   UNL     1     -21.024  -7.052  76.593  0.00  0.00    -0.302 N 
ATOM     21  C   UNL     1     -22.290  -6.866  77.249  0.00  0.00    +0.062 A 
ATOM     22  C   UNL     1     -23.399  -7.692  76.950  0.00  0.00    +0.020 A 
ENDROOT
BRANCH   7   5
ATOM      4  N   UNL     1     -26.229  -8.615  75.983  0.00  0.00    -0.253 N 
ATOM      5  C   UNL     1     -25.778  -8.371  77.341  0.00  0.00    +0.253 C 
ATOM      6  O   UNL     1     -26.265  -8.931  78.268  0.00  0.00    -0.270 OA
ATOM     23  C   UNL     1     -27.356  -9.519  75.802  0.00  0.00    +0.120 C 
BRANCH   4   3
ATOM      1  C   UNL     1     -25.448  -5.750  73.744  0.00  0.00    -0.003 A 
ATOM      2  C   UNL     1     -25.892  -6.517  74.810  0.00  0.00    +0.015 A 
ATOM      3  C   UNL     1     -25.687  -7.895  74.826  0.00  0.00    +0.054 A 
ATOM     24  C   UNL     1     -25.041  -8.505  73.757  0.00  0.00    +0.015 A 
ATOM     25  C   UNL     1     -24.591  -7.731  72.685  0.00  0.00    -0.003 A 
ATOM     26  C   UNL     1     -24.788  -6.353  72.672  0.00  0.00    -0.022 A 
ATOM     27  C   UNL     1     -24.290  -5.494  71.487  0.00  0.00    +0.031 C 
ENDBRANCH   4   3
ENDBRANCH   7   5
BRANCH  17  18
ATOM     18  C   UNL     1     -20.955  -8.036  75.532  0.00  0.00    +0.073 C 
ATOM     19  C   UNL     1     -19.922  -7.990  74.410  0.00  0.00    +0.021 C 
ATOM     20  C   UNL     1     -21.416  -7.948  74.105  0.00  0.00    +0.021 C 
ENDBRANCH  17  18
TORSDOF 3
