REMARK  Name = 2z7r_ligand
REMARK  5 active torsions:
REMARK  status: ('A' for Active; 'I' for Inactive)
REMARK    1  A    between atoms: C23_4  and  N4_34
REMARK    2  A    between atoms: C22_5  and  O6_32
REMARK    3  A    between atoms: C21_6  and  C26_7
REMARK    4  A    between atoms: O6_32  and  C27_33
REMARK    5  A    between atoms: N4_34  and  C28_35
REMARK                            x       y       z     vdW  Elec       q    Type
REMARK                         _______ _______ _______ _____ _____    ______ ____
ROOT
ATOM      1  O   UNL     1      -0.162  -7.130  25.432  0.00  0.00    -0.315 OA
ATOM      2  C   UNL     1       0.990  -6.875  24.601  0.00  0.00    +0.202 C 
ATOM      3  N   UNL     1       1.597  -5.510  24.970  0.00  0.00    -0.229 N 
ATOM      4  C   UNL     1       2.944  -5.044  24.973  0.00  0.00    +0.070 A 
ATOM      5  C   UNL     1       4.165  -5.631  24.658  0.00  0.00    +0.013 A 
ATOM      6  C   UNL     1       5.336  -4.906  24.750  0.00  0.00    -0.018 A 
ATOM      7  C   UNL     1       5.342  -3.515  25.179  0.00  0.00    -0.024 A 
ATOM      8  C   UNL     1       4.119  -2.933  25.494  0.00  0.00    -0.013 A 
ATOM      9  C   UNL     1       2.914  -3.651  25.405  0.00  0.00    -0.007 A 
ATOM     10  C   UNL     1       1.588  -3.280  25.648  0.00  0.00    +0.001 A 
ATOM     11  C   UNL     1       0.936  -2.074  26.079  0.00  0.00    -0.017 A 
ATOM     12  C   UNL     1       1.591  -0.723  26.423  0.00  0.00    +0.196 C 
ATOM     13  N   UNL     1       0.394   0.023  26.752  0.00  0.00    -0.279 N 
ATOM     14  H   UNL     1       0.439   0.981  27.034  0.00  0.00    +0.186 HD
ATOM     15  C   UNL     1      -0.773  -0.621  26.663  0.00  0.00    +0.187 C 
ATOM     16  O   UNL     1      -1.881  -0.192  26.888  0.00  0.00    -0.396 OA
ATOM     17  C   UNL     1      -0.382  -1.992  26.218  0.00  0.00    +0.032 A 
ATOM     18  C   UNL     1      -1.306  -3.137  25.948  0.00  0.00    -0.002 A 
ATOM     19  C   UNL     1      -2.701  -3.361  25.988  0.00  0.00    -0.007 A 
ATOM     20  C   UNL     1      -3.839  -2.590  26.300  0.00  0.00    -0.011 A 
ATOM     21  C   UNL     1      -5.121  -3.128  26.227  0.00  0.00    -0.023 A 
ATOM     22  C   UNL     1      -5.324  -4.494  25.830  0.00  0.00    -0.016 A 
ATOM     23  C   UNL     1      -4.225  -5.316  25.507  0.00  0.00    +0.014 A 
ATOM     24  C   UNL     1      -2.910  -4.737  25.587  0.00  0.00    +0.068 A 
ATOM     25  N   UNL     1      -1.694  -5.307  25.323  0.00  0.00    -0.238 N 
ATOM     26  C   UNL     1      -0.645  -4.361  25.524  0.00  0.00    +0.095 A 
ATOM     27  C   UNL     1       0.717  -4.446  25.381  0.00  0.00    +0.098 A 
ATOM     28  C   UNL     1       1.904  -8.055  24.941  0.00  0.00    +0.079 C 
ATOM     29  C   UNL     1       0.696  -6.966  23.033  0.00  0.00    +0.227 C 
ATOM     32  C   UNL     1      -0.616  -7.824  22.883  0.00  0.00    +0.102 C 
ATOM     37  C   UNL     1      -1.819  -7.120  23.564  0.00  0.00    +0.120 C 
ATOM     38  C   UNL     1      -1.489  -6.741  25.047  0.00  0.00    +0.260 C 
ENDROOT
BRANCH  32  33
ATOM     33  N   UNL     1      -0.966  -8.048  21.363  0.00  0.00    +0.229 N 
ATOM     34  H   UNL     1      -1.587  -7.317  21.054  0.00  0.00    +0.201 HD
ATOM     35  H   UNL     1      -0.118  -8.020  20.819  0.00  0.00    +0.201 HD
ATOM     36  C   UNL     1      -1.630  -9.372  21.172  0.00  0.00    +0.189 C 
ENDBRANCH  32  33
BRANCH  29  30
ATOM     30  O   UNL     1       0.380  -5.655  22.496  0.00  0.00    -0.369 OA
ATOM     31  C   UNL     1       1.395  -5.169  21.641  0.00  0.00    +0.195 C 
ENDBRANCH  29  30
TORSDOF 2
