REMARK  Name = 5UGA
REMARK  9 active torsions:
REMARK  status: ('A' for Active; 'I' for Inactive)
REMARK    1  A    between atoms: C_3  and  N_16
REMARK    2  A    between atoms: C_7  and  N_24
REMARK    3  A    between atoms: C_10  and  N_25
REMARK    4  A    between atoms: C_12  and  C_13
REMARK    5  A    between atoms: C_18  and  N_19
REMARK    6  A    between atoms: N_19  and  C_20
REMARK    7  A    between atoms: N_30  and  C_31
REMARK    8  A    between atoms: C_31  and  C_32
REMARK    9  A    between atoms: C_31  and  C_33
REMARK                            x       y       z     vdW  Elec       q    Type
REMARK                         _______ _______ _______ _____ _____    ______ ____
ROOT
ATOM      8  N   UNL     1      12.643  -6.187 -32.643  0.00  0.00    -0.309 N 
ATOM      9  H   UNL     1      12.032  -7.059 -32.746  0.00  0.00    +0.149 HD
ATOM     10  C   UNL     1      12.070  -4.941 -32.881  0.00  0.00    +0.219 A 
ATOM     11  N   UNL     1      10.720  -4.948 -33.037  0.00  0.00    -0.195 NA
ATOM     12  C   UNL     1      10.190  -3.724 -33.260  0.00  0.00    +0.168 A 
ATOM     13  N   UNL     1       8.871  -3.425 -33.442  0.00  0.00    -0.312 N 
ATOM     17  C   UNL     1       8.807  -2.060 -33.631  0.00  0.00    +0.202 A 
ATOM     18  N   UNL     1       9.995  -1.482 -33.580  0.00  0.00    -0.231 NA
ATOM     19  C   UNL     1      10.869  -2.510 -33.347  0.00  0.00    +0.148 A 
ATOM     20  C   UNL     1      12.276  -2.556 -33.177  0.00  0.00    +0.156 A 
ATOM     36  N   UNL     1      12.836  -3.802 -32.942  0.00  0.00    -0.197 NA
ENDROOT
BRANCH   8   7
ATOM      1  C   UNL     1      13.916  -6.893 -29.898  0.00  0.00    +0.109 C 
ATOM      2  N   UNL     1      13.887  -8.122 -30.687  0.00  0.00    -0.300 N 
ATOM      3  C   UNL     1      13.521  -9.345 -30.114  0.00  0.00    +0.212 C 
ATOM      4  O   UNL     1      13.203  -9.468 -28.923  0.00  0.00    -0.276 OA
ATOM      5  C   UNL     1      13.525 -10.556 -31.019  0.00  0.00    +0.109 C 
ATOM      6  C   UNL     1      14.282  -7.855 -32.081  0.00  0.00    +0.130 C 
ATOM      7  C   UNL     1      14.043  -6.355 -32.259  0.00  0.00    +0.092 C 
ATOM     37  C   UNL     1      14.360  -5.797 -30.860  0.00  0.00    +0.043 C 
ENDBRANCH   8   7
BRANCH  13  14
ATOM     14  C   UNL     1       7.792  -4.432 -33.421  0.00  0.00    +0.084 C 
ATOM     15  C   UNL     1       6.396  -3.839 -33.155  0.00  0.00    +0.030 C 
ATOM     16  C   UNL     1       7.740  -5.228 -34.733  0.00  0.00    +0.030 C 
ENDBRANCH  13  14
BRANCH  20  21
ATOM     21  N   UNL     1      13.030  -1.379 -33.235  0.00  0.00    -0.297 N 
ATOM     22  H   UNL     1      12.458  -0.502 -33.457  0.00  0.00    +0.154 HD
BRANCH  21  23
ATOM     23  C   UNL     1      14.410  -1.139 -33.053  0.00  0.00    +0.033 A 
ATOM     24  C   UNL     1      14.881   0.200 -33.170  0.00  0.00    +0.025 A 
ATOM     25  C   UNL     1      16.252   0.522 -32.954  0.00  0.00    +0.025 A 
ATOM     26  C   UNL     1      17.227  -0.479 -32.610  0.00  0.00    +0.030 A 
ATOM     34  C   UNL     1      16.727  -1.821 -32.512  0.00  0.00    +0.025 A 
ATOM     35  C   UNL     1      15.363  -2.144 -32.728  0.00  0.00    +0.025 A 
BRANCH  26  27
ATOM     27  N   UNL     1      18.596  -0.196 -32.347  0.00  0.00    -0.328 N 
ATOM     28  C   UNL     1      19.579  -1.079 -33.045  0.00  0.00    +0.120 C 
ATOM     29  C   UNL     1      20.860  -1.089 -32.189  0.00  0.00    +0.103 C 
ATOM     30  N   UNL     1      21.391   0.347 -32.081  0.00  0.00    -0.302 NA
ATOM     31  C   UNL     1      22.639   0.389 -31.249  0.00  0.00    +0.105 C 
ATOM     32  C   UNL     1      20.333   1.297 -31.535  0.00  0.00    +0.103 C 
ATOM     33  C   UNL     1      19.083   1.201 -32.416  0.00  0.00    +0.120 C 
ENDBRANCH  26  27
ENDBRANCH  21  23
ENDBRANCH  20  21
TORSDOF 5
