REMARK  Name = 3Q9Y
REMARK  4 active torsions:
REMARK  status: ('A' for Active; 'I' for Inactive)
REMARK    1  A    between atoms: C_4  and  O_5
REMARK    2  A    between atoms: C_8  and  O_9
REMARK    3  A    between atoms: C_17  and  O_18
REMARK    4  A    between atoms: C_19  and  O_20
REMARK                            x       y       z     vdW  Elec       q    Type
REMARK                         _______ _______ _______ _____ _____    ______ ____
ROOT
ATOM      1  O   UNL     1     -17.652  16.401  47.536  0.00  0.00    -0.286 OA
ATOM      2  C   UNL     1     -17.486  15.937  46.404  0.00  0.00    +0.198 C 
ATOM      3  C   UNL     1     -17.363  14.451  46.171  0.00  0.00    +0.037 A 
ATOM      4  C   UNL     1     -17.481  13.552  47.191  0.00  0.00    +0.016 A 
ATOM      5  C   UNL     1     -17.349  12.156  46.918  0.00  0.00    +0.050 A 
ATOM      6  C   UNL     1     -17.095  11.656  45.628  0.00  0.00    +0.159 A 
ATOM      7  C   UNL     1     -16.998  12.589  44.573  0.00  0.00    +0.170 A 
ATOM     12  C   UNL     1     -17.136  13.976  44.865  0.00  0.00    +0.078 A 
ATOM     13  C   UNL     1     -17.033  14.995  43.779  0.00  0.00    +0.202 C 
ATOM     14  O   UNL     1     -16.784  14.539  42.626  0.00  0.00    -0.286 OA
ATOM     15  C   UNL     1     -17.134  16.496  44.036  0.00  0.00    +0.078 A 
ATOM     16  C   UNL     1     -17.063  17.500  43.058  0.00  0.00    +0.129 A 
ATOM     19  C   UNL     1     -17.176  18.886  43.295  0.00  0.00    +0.050 A 
ATOM     20  C   UNL     1     -17.382  19.300  44.614  0.00  0.00    +0.050 A 
ATOM     21  C   UNL     1     -17.489  18.294  45.600  0.00  0.00    +0.129 A 
ATOM     24  C   UNL     1     -17.363  16.926  45.316  0.00  0.00    +0.078 A 
ENDROOT
BRANCH   7   8
ATOM      8  O   UNL     1     -16.746  12.109  43.282  0.00  0.00    -0.503 OA
ATOM      9  H   UNL     1     -17.526  12.399  42.642  0.00  0.00    +0.292 HD
ENDBRANCH   7   8
BRANCH   6  10
ATOM     10  O   UNL     1     -16.916  10.319  45.366  0.00  0.00    -0.503 OA
ATOM     11  H   UNL     1     -16.093   9.962  45.911  0.00  0.00    +0.292 HD
ENDBRANCH   6  10
BRANCH  16  17
ATOM     17  O   UNL     1     -16.822  17.134  41.806  0.00  0.00    -0.506 OA
ATOM     18  H   UNL     1     -17.601  17.469  41.187  0.00  0.00    +0.292 HD
ENDBRANCH  16  17
BRANCH  21  22
ATOM     22  O   UNL     1     -17.720  18.597  46.896  0.00  0.00    -0.506 OA
ATOM     23  H   UNL     1     -18.615  18.145  47.207  0.00  0.00    +0.292 HD
ENDBRANCH  21  22
TORSDOF 4
