REMARK  Name = 4a4o_ligand
REMARK  7 active torsions:
REMARK  status: ('A' for Active; 'I' for Inactive)
REMARK    1  A    between atoms: N7_5  and  C8_9
REMARK    2  A    between atoms: C4_6  and  C26_8
REMARK    3  A    between atoms: C9_11  and  O14_15
REMARK    4  A    between atoms: C12_14  and  N15_16
REMARK    5  A    between atoms: O14_15  and  C22_23
REMARK    6  A    between atoms: N18_19  and  C21_22
REMARK    7  A    between atoms: N27_27  and  C36_36
REMARK                            x       y       z     vdW  Elec       q    Type
REMARK                         _______ _______ _______ _____ _____    ______ ____
ROOT
ATOM      1  N   UNL     1      10.677  42.640   8.117  0.00  0.00    -0.264 NA
ATOM      2  C   UNL     1      10.082  41.921   9.004  0.00  0.00    +0.090 A 
ATOM      3  C   UNL     1       9.600  42.541  10.255  0.00  0.00    +0.036 A 
ATOM      4  C   UNL     1       9.800  43.863  10.447  0.00  0.00    +0.058 A 
ATOM     17  N   UNL     1      10.463  44.585   9.426  0.00  0.00    -0.261 NA
ATOM     18  C   UNL     1      10.877  44.022   8.333  0.00  0.00    +0.196 A 
ATOM     19  N   UNL     1      11.538  44.773   7.318  0.00  0.00    -0.249 N 
ATOM     20  H   UNL     1      11.804  44.275   6.468  0.00  0.00    +0.215 HD
ENDROOT
BRANCH   4   5
ATOM      5  C   UNL     1       9.326  44.563  11.697  0.00  0.00    +0.080 A 
ATOM      6  C   UNL     1       8.402  44.070  12.558  0.00  0.00    -0.008 A 
ATOM      7  C   UNL     1       8.246  45.096  13.604  0.00  0.00    +0.046 A 
ATOM      8  C   UNL     1       7.358  45.078  14.774  0.00  0.00    +0.177 C 
ATOM      9  O   UNL     1       6.532  44.189  14.929  0.00  0.00    -0.404 OA
ATOM     10  N   UNL     1       7.453  46.073  15.686  0.00  0.00    -0.290 N 
ATOM     11  H   UNL     1       7.118  45.910  16.635  0.00  0.00    +0.184 HD
ATOM     12  C   UNL     1       8.032  47.396  15.342  0.00  0.00    +0.154 C 
ATOM     13  C   UNL     1       9.145  47.368  14.219  0.00  0.00    +0.136 C 
ATOM     14  C   UNL     1       9.050  46.127  13.350  0.00  0.00    +0.078 A 
ATOM     15  N   UNL     1       9.752  45.859  12.177  0.00  0.00    -0.256 N 
ATOM     16  C   UNL     1      10.723  46.759  11.576  0.00  0.00    +0.219 C 
ENDBRANCH   4   5
BRANCH  19  21
ATOM     21  C   UNL     1      11.862  46.171   7.388  0.00  0.00    +0.085 A 
ATOM     22  C   UNL     1      10.881  47.172   7.884  0.00  0.00    +0.011 A 
ATOM     23  C   UNL     1      11.198  48.497   7.941  0.00  0.00    +0.019 A 
ATOM     31  C   UNL     1      12.555  48.947   7.503  0.00  0.00    -0.025 A 
ATOM     32  C   UNL     1      13.455  48.054   7.052  0.00  0.00    -0.005 A 
ATOM     33  C   UNL     1      13.103  46.587   6.984  0.00  0.00    +0.111 A 
BRANCH  23  24
ATOM     24  N   UNL     1      10.250  49.452   8.405  0.00  0.00    -0.321 N 
ATOM     25  C   UNL     1      10.747  50.696   9.026  0.00  0.00    +0.104 C 
ATOM     26  C   UNL     1       9.714  51.324   9.962  0.00  0.00    -0.086 C 
ATOM     27  N   UNL     1       8.409  51.352   9.302  0.00  0.00    +0.403 NA
ATOM     28  C   UNL     1       7.490  52.148  10.111  0.00  0.00    -0.131 C 
ATOM     29  C   UNL     1       7.909  49.967   9.200  0.00  0.00    -0.086 C 
ATOM     30  C   UNL     1       8.795  49.177   8.220  0.00  0.00    +0.104 C 
ENDBRANCH  23  24
BRANCH  33  34
ATOM     34  O   UNL     1      14.021  45.594   6.501  0.00  0.00    -0.239 OA
BRANCH  34  35
ATOM     35  C   UNL     1      14.390  45.657   5.082  0.00  0.00    +0.542 C 
ATOM     36  F   UNL     1      14.971  44.451   4.726  0.00  0.00    -0.141 F 
ATOM     37  F   UNL     1      13.259  45.858   4.288  0.00  0.00    -0.141 F 
ATOM     38  F   UNL     1      15.311  46.673   4.856  0.00  0.00    -0.141 F 
ENDBRANCH  34  35
ENDBRANCH  33  34
ENDBRANCH  19  21
TORSDOF 5
