REMARK  Name = 4FSZ
REMARK  3 active torsions:
REMARK  status: ('A' for Active; 'I' for Inactive)
REMARK    1  A    between atoms: C_17  and  C_18
REMARK    2  A    between atoms: C_18  and  C_19
REMARK    3  A    between atoms: C_19  and  O_21
REMARK                            x       y       z     vdW  Elec       q    Type
REMARK                         _______ _______ _______ _____ _____    ______ ____
ROOT
ATOM      1  O   UNL     1      16.396  -2.125   9.297  0.00  0.00    -0.267 OA
ATOM      2  C   UNL     1      17.251  -2.984   9.518  0.00  0.00    +0.258 A 
ATOM      3  N   UNL     1      18.543  -2.751   9.205  0.00  0.00    -0.320 N 
ATOM      4  H   UNL     1      18.731  -1.793   8.929  0.00  0.00    +0.169 HD
ATOM      5  C   UNL     1      19.710  -3.549   9.210  0.00  0.00    +0.066 A 
ATOM      6  C   UNL     1      20.696  -3.259   8.269  0.00  0.00    +0.032 A 
ATOM      7  C   UNL     1      21.886  -3.978   8.223  0.00  0.00    -0.035 A 
ATOM     13  C   UNL     1      22.068  -5.017   9.124  0.00  0.00    +0.006 A 
ATOM     14  C   UNL     1      21.100  -5.331  10.061  0.00  0.00    +0.028 A 
ATOM     15  C   UNL     1      19.918  -4.589  10.124  0.00  0.00    +0.063 A 
ATOM     16  N   UNL     1      19.012  -4.831  11.176  0.00  0.00    -0.353 N 
ATOM     17  H   UNL     1      19.426  -5.307  11.971  0.00  0.00    +0.166 HD
ATOM     18  C   UNL     1      17.664  -5.136  10.890  0.00  0.00    +0.053 A 
ATOM     19  C   UNL     1      17.128  -6.272  11.496  0.00  0.00    +0.046 A 
ATOM     20  C   UNL     1      15.781  -6.552  11.350  0.00  0.00    +0.043 A 
ATOM     21 CL   UNL     1      15.104  -7.912  12.192  0.00  0.00    -0.084 Cl
ATOM     22  C   UNL     1      14.966  -5.752  10.581  0.00  0.00    +0.021 A 
ATOM     23  C   UNL     1      15.496  -4.650   9.944  0.00  0.00    +0.017 A 
ATOM     24  C   UNL     1      16.840  -4.298  10.105  0.00  0.00    +0.063 A 
ENDROOT
BRANCH   7   8
ATOM      8  C   UNL     1      22.950  -3.631   7.209  0.00  0.00    +0.155 C 
BRANCH   8   9
ATOM      9  C   UNL     1      22.806  -4.416   5.936  0.00  0.00    +0.309 C 
ATOM     12  O   UNL     1      22.114  -4.043   5.013  0.00  0.00    -0.251 OA
BRANCH   9  10
ATOM     10  O   UNL     1      23.474  -5.543   5.937  0.00  0.00    -0.480 OA
ATOM     11  H   UNL     1      23.364  -6.041   5.085  0.00  0.00    +0.295 HD
ENDBRANCH   9  10
ENDBRANCH   8   9
ENDBRANCH   7   8
TORSDOF 3
