REMARK  Name = 5EM8
REMARK  8 active torsions:
REMARK  status: ('A' for Active; 'I' for Inactive)
REMARK    1  A    between atoms: C_3  and  N_14
REMARK    2  A    between atoms: C_5  and  N_13
REMARK    3  A    between atoms: N_10  and  C_12
REMARK    4  A    between atoms: C_15  and  C_17
REMARK    5  A    between atoms: C_18  and  N_24
REMARK    6  A    between atoms: N_24  and  C_25
REMARK    7  A    between atoms: C_30  and  O_31
REMARK    8  A    between atoms: O_31  and  C_32
REMARK                            x       y       z     vdW  Elec       q    Type
REMARK                         _______ _______ _______ _____ _____    ______ ____
ROOT
ATOM     10  C   UNL     1     -53.716   0.328 -22.699  0.00  0.00    +0.122 C 
ATOM     11  C   UNL     1     -54.816   1.272 -22.755  0.00  0.00    +0.263 C 
ATOM     12  O   UNL     1     -55.203   1.912 -21.781  0.00  0.00    -0.267 OA
ATOM     13  N   UNL     1     -55.472   1.500 -23.924  0.00  0.00    -0.328 N 
ATOM     14  H   UNL     1     -56.280   2.201 -23.932  0.00  0.00    +0.168 HD
ATOM     15  C   UNL     1     -55.141   0.872 -25.083  0.00  0.00    +0.087 C 
ATOM     16  C   UNL     1     -54.105   0.001 -25.112  0.00  0.00    +0.042 C 
ATOM     17  C   UNL     1     -53.365  -0.326 -23.939  0.00  0.00    +0.050 C 
ENDROOT
BRANCH  10   9
ATOM      7  N   UNL     1     -53.319   0.739 -20.283  0.00  0.00    -0.281 N 
ATOM      8  H   UNL     1     -54.051   1.506 -20.424  0.00  0.00    +0.155 HD
ATOM      9  C   UNL     1     -53.006   0.041 -21.410  0.00  0.00    +0.255 C 
ATOM     28  O   UNL     1     -52.174  -0.847 -21.346  0.00  0.00    -0.270 OA
BRANCH   7   6
ATOM      3  C   UNL     1     -52.088   0.514 -16.241  0.00  0.00    +0.030 A 
ATOM      4  C   UNL     1     -53.110   1.370 -16.675  0.00  0.00    +0.025 A 
ATOM      5  C   UNL     1     -53.483   1.417 -18.010  0.00  0.00    +0.025 A 
ATOM      6  C   UNL     1     -52.840   0.621 -18.959  0.00  0.00    +0.034 A 
ATOM     29  C   UNL     1     -51.812  -0.242 -18.538  0.00  0.00    +0.025 A 
ATOM     30  C   UNL     1     -51.446  -0.301 -17.195  0.00  0.00    +0.025 A 
BRANCH   3   2
ATOM      1  C   UNL     1     -52.905  -0.209 -14.122  0.00  0.00    +0.120 C 
ATOM      2  N   UNL     1     -51.803   0.469 -14.850  0.00  0.00    -0.328 N 
ATOM     31  C   UNL     1     -50.437   0.014 -14.463  0.00  0.00    +0.120 C 
ATOM     32  C   UNL     1     -50.263  -0.037 -12.932  0.00  0.00    +0.103 C 
ATOM     33  N   UNL     1     -51.393  -0.779 -12.331  0.00  0.00    -0.302 NA
ATOM     34  C   UNL     1     -51.205  -1.050 -10.897  0.00  0.00    +0.105 C 
ATOM     35  C   UNL     1     -52.687  -0.130 -12.605  0.00  0.00    +0.103 C 
ENDBRANCH   3   2
ENDBRANCH   7   6
ENDBRANCH  10   9
BRANCH  17  18
ATOM     18  N   UNL     1     -52.301  -1.225 -24.050  0.00  0.00    -0.311 N 
ATOM     19  H   UNL     1     -51.367  -0.918 -23.628  0.00  0.00    +0.152 HD
BRANCH  18  20
ATOM     20  C   UNL     1     -52.333  -2.500 -24.664  0.00  0.00    +0.074 A 
ATOM     21  C   UNL     1     -51.974  -3.658 -23.926  0.00  0.00    +0.141 A 
ATOM     24  C   UNL     1     -52.026  -4.914 -24.551  0.00  0.00    +0.047 A 
ATOM     25  C   UNL     1     -52.364  -5.020 -25.901  0.00  0.00    +0.004 A 
ATOM     26  C   UNL     1     -52.699  -3.883 -26.637  0.00  0.00    +0.002 A 
ATOM     27  C   UNL     1     -52.655  -2.632 -26.029  0.00  0.00    +0.027 A 
BRANCH  21  22
ATOM     22  O   UNL     1     -51.604  -3.582 -22.603  0.00  0.00    -0.493 OA
ATOM     23  C   UNL     1     -50.209  -3.437 -22.269  0.00  0.00    +0.277 C 
ENDBRANCH  21  22
ENDBRANCH  18  20
ENDBRANCH  17  18
TORSDOF 6
