REMARK  Name = 5CAQ
REMARK  7 active torsions:
REMARK  status: ('A' for Active; 'I' for Inactive)
REMARK    1  A    between atoms: C_3  and  C_7
REMARK    2  A    between atoms: C_3  and  C_8
REMARK    3  A    between atoms: C_3  and  N_13
REMARK    4  A    between atoms: C_10  and  C_11
REMARK    5  A    between atoms: N_14  and  C_15
REMARK    6  A    between atoms: C_24  and  O_28
REMARK    7  A    between atoms: O_28  and  C_29
REMARK                            x       y       z     vdW  Elec       q    Type
REMARK                         _______ _______ _______ _____ _____    ______ ____
ROOT
ATOM      1  C   UNL     1     -52.716   1.373 -19.611  0.00  0.00    +0.107 A 
ATOM      2  N   UNL     1     -51.931   0.962 -18.580  0.00  0.00    -0.231 NA
ATOM      3  C   UNL     1     -51.109   0.031 -18.977  0.00  0.00    +0.108 A 
ATOM      4  N   UNL     1     -51.330  -0.234 -20.318  0.00  0.00    -0.325 N 
ATOM      8  C   UNL     1     -50.127  -0.615 -18.030  0.00  0.00    +0.086 C 
ATOM      9  C   UNL     1     -52.336   0.606 -20.733  0.00  0.00    +0.074 A 
ATOM     10  C   UNL     1     -52.967   0.826 -21.958  0.00  0.00    +0.071 A 
ATOM     11  C   UNL     1     -53.986   1.765 -22.039  0.00  0.00    +0.126 A 
ATOM     12  N   UNL     1     -54.632   2.042 -23.253  0.00  0.00    -0.284 N 
ATOM     13  H   UNL     1     -55.064   3.016 -23.352  0.00  0.00    +0.155 HD
ATOM     29  N   UNL     1     -54.314   2.482 -20.961  0.00  0.00    -0.238 NA
ATOM     30  C   UNL     1     -53.712   2.338 -19.785  0.00  0.00    +0.142 A 
ENDROOT
BRANCH  12  14
ATOM     14  C   UNL     1     -54.772   1.186 -24.344  0.00  0.00    +0.129 A 
ATOM     15  N   UNL     1     -53.826   0.299 -24.668  0.00  0.00    -0.199 NA
ATOM     16  C   UNL     1     -53.973  -0.535 -25.703  0.00  0.00    +0.220 A 
ATOM     17  N   UNL     1     -52.961  -1.452 -25.994  0.00  0.00    -0.297 N 
ATOM     18  C   UNL     1     -53.032  -2.284 -27.226  0.00  0.00    +0.147 C 
ATOM     19  C   UNL     1     -51.700  -2.268 -27.981  0.00  0.00    +0.212 C 
ATOM     20  F   UNL     1     -51.556  -0.955 -28.431  0.00  0.00    -0.241 F 
ATOM     21  C   UNL     1     -50.532  -2.579 -27.024  0.00  0.00    +0.155 C 
ATOM     24  C   UNL     1     -50.476  -1.525 -25.894  0.00  0.00    +0.053 C 
ATOM     25  C   UNL     1     -51.787  -1.582 -25.088  0.00  0.00    +0.110 C 
ATOM     26  N   UNL     1     -55.070  -0.461 -26.471  0.00  0.00    -0.223 NA
ATOM     27  C   UNL     1     -56.055   0.400 -26.220  0.00  0.00    +0.118 A 
ATOM     28  C   UNL     1     -55.933   1.257 -25.135  0.00  0.00    +0.063 A 
BRANCH  21  22
ATOM     22  O   UNL     1     -49.308  -2.565 -27.771  0.00  0.00    -0.377 OA
ATOM     23  C   UNL     1     -48.445  -3.680 -27.544  0.00  0.00    +0.194 C 
ENDBRANCH  21  22
ENDBRANCH  12  14
BRANCH   4   5
ATOM      5  C   UNL     1     -50.712  -1.174 -21.266  0.00  0.00    +0.083 C 
ATOM      6  C   UNL     1     -49.234  -0.942 -21.556  0.00  0.00    +0.030 C 
ATOM      7  C   UNL     1     -51.202  -2.619 -21.134  0.00  0.00    +0.030 C 
ENDBRANCH   4   5
TORSDOF 3
