REMARK  Name = F9N
REMARK  10 active torsions:
REMARK  status: ('A' for Active; 'I' for Inactive)
REMARK    1  A    between atoms: C28_8  and  N27_28
REMARK    2  A    between atoms: C28_8  and  C29_29
REMARK    3  A    between atoms: S02_10  and  C03_11
REMARK    4  A    between atoms: S02_10  and  N27_28
REMARK    5  A    between atoms: C05_13  and  N06_14
REMARK    6  A    between atoms: C09_17  and  O10_18
REMARK    7  A    between atoms: O10_18  and  C11_19
REMARK    8  A    between atoms: C11_19  and  C12_20
REMARK    9  A    between atoms: C29_29  and  C30_30
REMARK   10  A    between atoms: C30_30  and  N31_31
REMARK                            x       y       z     vdW  Elec       q    Type
REMARK                         _______ _______ _______ _____ _____    ______ ____
ROOT
ATOM      5  C   UNL     1     -24.707   8.028  17.756  0.00  0.00    +0.301 C 
ATOM      6  N   UNL     1     -25.172   8.135  18.988  0.00  0.00    -0.281 NA
ATOM      7  C   UNL     1     -24.788   7.228  19.897  0.00  0.00    +0.289 C 
ATOM      8  N   UNL     1     -25.250   7.506  21.199  0.00  0.00    -0.114 NA
ATOM     25  N   UNL     1     -24.079   6.181  19.569  0.00  0.00    +0.048 NA
ATOM     26  C   UNL     1     -23.774   5.987  18.258  0.00  0.00    +0.399 C 
ATOM     27  N   UNL     1     -22.972   5.107  17.642  0.00  0.00    -0.010 NA
ATOM     28  C   UNL     1     -22.949   5.403  16.330  0.00  0.00    +0.335 C 
ATOM     29  N   UNL     1     -23.526   6.585  16.171  0.00  0.00    -0.204 NA
ATOM     30  C   UNL     1     -24.023   6.947  17.361  0.00  0.00    +0.308 C 
ENDROOT
BRANCH   8   9
ATOM      9  C   UNL     1     -25.865   8.527  21.964  0.00  0.00    +0.086 A 
ATOM     10  C   UNL     1     -26.367   8.297  23.234  0.00  0.00    +0.018 A 
ATOM     11  C   UNL     1     -26.991   9.383  23.848  0.00  0.00    +0.003 A 
ATOM     12  C   UNL     1     -26.978  10.636  23.240  0.00  0.00    +0.020 A 
ATOM     13  C   UNL     1     -26.453  10.907  21.959  0.00  0.00    +0.125 A 
ATOM     24  C   UNL     1     -25.860   9.802  21.362  0.00  0.00    +0.037 A 
BRANCH  13  14
ATOM     14  S   UNL     1     -25.930  12.640  21.464  0.00  0.00    +0.077 S 
ATOM     15  O   UNL     1     -25.187  13.279  22.555  0.00  0.00    -0.152 OA
ATOM     23  O   UNL     1     -24.919  12.549  20.373  0.00  0.00    -0.152 OA
BRANCH  14  16
ATOM     16  N   UNL     1     -27.144  13.723  20.934  0.00  0.00    -0.078 NA
BRANCH  16  17
ATOM     17  C   UNL     1     -26.531  15.018  20.741  0.00  0.00    +0.117 C 
BRANCH  17  18
ATOM     18  C   UNL     1     -26.685  15.698  19.380  0.00  0.00    +0.038 C 
BRANCH  18  19
ATOM     19  C   UNL     1     -25.405  16.268  18.766  0.00  0.00    +0.074 C 
BRANCH  19  20
ATOM     20  N   UNL     1     -24.580  17.094  19.633  0.00  0.00    -0.270 NA
ATOM     21  C   UNL     1     -25.433  17.681  20.657  0.00  0.00    +0.090 C 
ATOM     22  C   UNL     1     -23.942  18.157  18.877  0.00  0.00    +0.090 C 
ENDBRANCH  19  20
ENDBRANCH  18  19
ENDBRANCH  17  18
ENDBRANCH  16  17
ENDBRANCH  14  16
ENDBRANCH  13  14
ENDBRANCH   8   9
BRANCH   5   4
ATOM      4  O   UNL     1     -25.119   8.913  16.784  0.00  0.00    -0.453 OA
BRANCH   4   3
ATOM      3  C   UNL     1     -25.701  10.123  17.097  0.00  0.00    +0.208 C 
BRANCH   3   2
ATOM      1  C   UNL     1     -24.793  11.791  15.373  0.00  0.00    +0.004 C 
ATOM      2  C   UNL     1     -25.997  10.994  15.873  0.00  0.00    +0.044 C 
ATOM     31  C   UNL     1     -27.238  11.874  15.927  0.00  0.00    +0.004 C 
ATOM     32  C   UNL     1     -27.537  12.638  14.625  0.00  0.00    +0.000 C 
ATOM     33  C   UNL     1     -26.329  13.399  14.061  0.00  0.00    +0.000 C 
ATOM     34  C   UNL     1     -25.033  12.574  14.069  0.00  0.00    +0.000 C 
ENDBRANCH   3   2
ENDBRANCH   4   3
ENDBRANCH   5   4
TORSDOF 10
