REMARK  Name = 5V5Y
REMARK  9 active torsions:
REMARK  status: ('A' for Active; 'I' for Inactive)
REMARK    1  A    between atoms: C_1  and  N_2
REMARK    2  A    between atoms: N_5  and  C_8
REMARK    3  A    between atoms: C_11  and  N_12
REMARK    4  A    between atoms: N_19  and  C_20
REMARK    5  A    between atoms: C_20  and  C_21
REMARK    6  A    between atoms: C_28  and  C_32
REMARK    7  A    between atoms: C_32  and  C_33
REMARK    8  A    between atoms: C_32  and  C_34
REMARK    9  A    between atoms: C_32  and  O_35
REMARK                            x       y       z     vdW  Elec       q    Type
REMARK                         _______ _______ _______ _____ _____    ______ ____
ROOT
ATOM     10  N   UNL     1      23.581   0.176  -6.137  0.00  0.00    -0.284 N 
ATOM     11  H   UNL     1      24.119  -0.568  -6.159  0.00  0.00    +0.155 HD
ATOM     12  C   UNL     1      22.823   0.327  -5.027  0.00  0.00    +0.221 A 
ATOM     13  N   UNL     1      22.104   1.452  -4.778  0.00  0.00    -0.194 NA
ATOM     14  C   UNL     1      21.355   1.572  -3.661  0.00  0.00    +0.172 A 
ATOM     15  N   UNL     1      20.616   2.592  -3.206  0.00  0.00    -0.213 N 
ATOM     16  C   UNL     1      20.372   3.693  -3.975  0.00  0.00    +0.155 A 
ATOM     17  C   UNL     1      21.175   4.243  -5.003  0.00  0.00    +0.048 A 
ATOM     18  C   UNL     1      20.664   5.327  -5.744  0.00  0.00    +0.005 A 
ATOM     19  C   UNL     1      19.362   5.817  -5.513  0.00  0.00    +0.026 A 
ATOM     20  C   UNL     1      18.558   5.217  -4.519  0.00  0.00    +0.074 A 
ATOM     26  N   UNL     1      19.110   4.178  -3.841  0.00  0.00    -0.230 NA
ATOM     27  N   UNL     1      20.027   2.191  -2.081  0.00  0.00    -0.238 N 
ATOM     31  C   UNL     1      20.443   0.960  -1.714  0.00  0.00    +0.279 A 
ATOM     32  O   UNL     1      20.053   0.399  -0.638  0.00  0.00    -0.265 OA
ATOM     33  C   UNL     1      21.307   0.542  -2.754  0.00  0.00    +0.103 A 
ATOM     34  C   UNL     1      22.043  -0.621  -2.986  0.00  0.00    +0.131 A 
ATOM     35  N   UNL     1      22.782  -0.688  -4.122  0.00  0.00    -0.222 NA
ENDROOT
BRANCH  10   9
ATOM      6  C   UNL     1      23.968   2.579  -9.607  0.00  0.00    +0.030 A 
ATOM      7  C   UNL     1      24.890   1.563  -9.253  0.00  0.00    +0.025 A 
ATOM      8  C   UNL     1      24.734   0.788  -8.097  0.00  0.00    +0.025 A 
ATOM      9  C   UNL     1      23.644   0.996  -7.234  0.00  0.00    +0.034 A 
ATOM     36  C   UNL     1      22.717   2.009  -7.569  0.00  0.00    +0.025 A 
ATOM     37  C   UNL     1      22.876   2.779  -8.725  0.00  0.00    +0.025 A 
BRANCH   6   5
ATOM      1  C   UNL     1      24.600   5.730 -14.342  0.00  0.00    +0.105 C 
ATOM      2  N   UNL     1      24.474   5.278 -12.929  0.00  0.00    -0.302 NA
ATOM      3  C   UNL     1      25.561   4.336 -12.539  0.00  0.00    +0.103 C 
ATOM      4  C   UNL     1      25.426   3.931 -11.061  0.00  0.00    +0.120 C 
ATOM      5  N   UNL     1      24.127   3.351 -10.756  0.00  0.00    -0.328 N 
ATOM     38  C   UNL     1      22.969   4.090 -11.242  0.00  0.00    +0.120 C 
ATOM     39  C   UNL     1      23.116   4.752 -12.635  0.00  0.00    +0.103 C 
ENDBRANCH   6   5
ENDBRANCH  10   9
BRANCH  20  21
ATOM     21  C   UNL     1      17.159   5.646  -4.186  0.00  0.00    +0.102 C 
ATOM     24  C   UNL     1      17.080   6.140  -2.717  0.00  0.00    +0.048 C 
ATOM     25  C   UNL     1      16.575   6.717  -5.144  0.00  0.00    +0.048 C 
BRANCH  21  22
ATOM     22  O   UNL     1      16.281   4.523  -4.288  0.00  0.00    -0.383 OA
ATOM     23  H   UNL     1      16.017   4.278  -3.473  0.00  0.00    +0.211 HD
ENDBRANCH  21  22
ENDBRANCH  20  21
BRANCH  27  28
ATOM     28  C   UNL     1      19.186   2.959  -1.217  0.00  0.00    +0.172 C 
BRANCH  28  29
ATOM     29  C   UNL     1      20.183   3.777  -0.539  0.00  0.00    -0.012 C 
ATOM     30  C   UNL     1      20.974   3.353   0.466  0.00  0.00    +0.005 C 
ENDBRANCH  28  29
ENDBRANCH  27  28
TORSDOF 6
