REMARK  Name = 4bdj_ligand
REMARK  2 active torsions:
REMARK  status: ('A' for Active; 'I' for Inactive)
REMARK    1  A    between atoms: C1_4  and  C2_6
REMARK    2  A    between atoms: C4_9  and  C8_13
REMARK                            x       y       z     vdW  Elec       q    Type
REMARK                         _______ _______ _______ _____ _____    ______ ____
ROOT
ATOM      5  C   UNL     1      48.185  14.651  -6.804  0.00  0.00    +0.044 A 
ATOM      6  C   UNL     1      48.826  13.432  -7.028  0.00  0.00    +0.039 A 
ATOM      7  C   UNL     1      49.301  13.128  -8.286  0.00  0.00    +0.085 A 
ATOM      8  N   UNL     1      49.197  13.940  -9.346  0.00  0.00    -0.308 NA
ATOM      9  C   UNL     1      48.588  15.121  -9.152  0.00  0.00    +0.023 A 
ATOM     10  N   UNL     1      48.356  16.097 -10.107  0.00  0.00    -0.403 NA
ATOM     11  N   UNL     1      47.692  17.151  -9.553  0.00  0.00    -0.268 N 
ATOM     12  H   UNL     1      47.403  18.004 -10.053  0.00  0.00    +0.260 HD
ATOM     13  C   UNL     1      47.467  16.891  -8.208  0.00  0.00    +0.154 A 
ATOM     17  C   UNL     1      48.035  15.572  -7.870  0.00  0.00    +0.077 A 
ENDROOT
BRANCH   5   4
ATOM      1  C   UNL     1      46.963  14.317  -3.454  0.00  0.00    +0.189 A 
ATOM      2  C   UNL     1      46.948  15.643  -3.471  0.00  0.00    -0.019 A 
ATOM      3  C   UNL     1      47.396  16.046  -4.770  0.00  0.00    -0.009 A 
ATOM      4  C   UNL     1      47.657  14.911  -5.455  0.00  0.00    +0.131 A 
ATOM     18  O   UNL     1      47.396  13.820  -4.663  0.00  0.00    -0.257 OA
ENDBRANCH   5   4
BRANCH  13  14
ATOM     14  C   UNL     1      46.701  17.880  -7.373  0.00  0.00    +0.189 C 
ATOM     15  C   UNL     1      46.514  19.316  -7.790  0.00  0.00    +0.037 C 
ATOM     16  C   UNL     1      45.361  18.397  -7.831  0.00  0.00    +0.037 C 
ENDBRANCH  13  14
TORSDOF 2
