REMARK  Name = 5oul
REMARK  2 active torsions:
REMARK  status: ('A' for Active; 'I' for Inactive)
REMARK    1  A    between atoms: C1_1  and  C_15
REMARK    2  A    between atoms: C4_4  and  C7_13
REMARK                            x       y       z     vdW  Elec       q    Type
REMARK                         _______ _______ _______ _____ _____    ______ ____
ROOT
ATOM      1  C   UNL     1    -115.239-175.142 309.066  0.00  0.00    -0.033 A 
ATOM      4  C   UNL     1    -114.205-174.217 309.029  0.00  0.00    +0.026 A 
ATOM      5  C   UNL     1    -112.945-174.558 309.476  0.00  0.00    +0.049 A 
ATOM      6 CL   UNL     1    -111.688-173.371 309.339  0.00  0.00    -0.084 Cl
ATOM      7  C   UNL     1    -112.669-175.825 309.988  0.00  0.00    +0.000 A 
ATOM     15  C   UNL     1    -113.713-176.746 310.021  0.00  0.00    +0.010 A 
ATOM     16  C   UNL     1    -114.974-176.406 309.564  0.00  0.00    +0.006 A 
ENDROOT
BRANCH   7   8
ATOM      8  C   UNL     1    -111.331-176.258 310.481  0.00  0.00    -0.014 A 
ATOM      9  C   UNL     1    -110.862-175.846 311.727  0.00  0.00    +0.048 A 
ATOM     10  C   UNL     1    -109.630-176.278 312.150  0.00  0.00    +0.123 A 
ATOM     11  C   UNL     1    -108.826-177.098 311.411  0.00  0.00    +0.039 A 
ATOM     12  C   UNL     1    -109.286-177.506 310.172  0.00  0.00    +0.004 A 
ATOM     13  F   UNL     1    -109.189-175.863 313.363  0.00  0.00    -0.207 F 
ATOM     14  C   UNL     1    -110.524-177.093 309.711  0.00  0.00    +0.009 A 
ENDBRANCH   7   8
BRANCH   1   2
ATOM      2  C   UNL     1    -116.595-174.728 308.563  0.00  0.00    +0.113 C 
ATOM      3  N   UNL     1    -117.478-175.800 308.163  0.00  0.00    -0.089 NA
ENDBRANCH   1   2
TORSDOF 2
