REMARK  Name = 2Y7J
REMARK  11 active torsions:
REMARK  status: ('A' for Active; 'I' for Inactive)
REMARK    1  A    between atoms: C_1  and  C_13
REMARK    2  A    between atoms: C_5  and  C_11
REMARK    3  A    between atoms: C_10  and  C_16
REMARK    4  A    between atoms: C_12  and  C_15
REMARK    5  A    between atoms: N_19  and  C_23
REMARK    6  A    between atoms: C_23  and  C_24
REMARK    7  A    between atoms: C_24  and  N_25
REMARK    8  A    between atoms: N_25  and  C_26
REMARK    9  A    between atoms: N_25  and  C_27
REMARK   10  A    between atoms: C_26  and  C_29
REMARK   11  A    between atoms: C_27  and  C_28
REMARK                            x       y       z     vdW  Elec       q    Type
REMARK                         _______ _______ _______ _____ _____    ______ ____
ROOT
ATOM      1  C   UNL     1     -11.663  -8.710  42.349  0.00  0.00    +0.066 C 
ATOM      2  C   UNL     1     -12.962  -8.608  41.628  0.00  0.00    +0.051 A 
ATOM      3  N   UNL     1     -14.122  -8.799  42.211  0.00  0.00    -0.251 NA
ATOM      4  C   UNL     1     -15.138  -8.623  41.358  0.00  0.00    +0.069 A 
ATOM     18  C   UNL     1     -14.628  -8.343  40.050  0.00  0.00    -0.011 A 
ATOM     19  C   UNL     1     -15.582  -8.105  38.870  0.00  0.00    +0.046 C 
ATOM     20  C   UNL     1     -13.243  -8.283  40.230  0.00  0.00    +0.063 A 
ENDROOT
BRANCH   4   5
ATOM      5  C   UNL     1     -16.664  -8.652  41.714  0.00  0.00    +0.041 C 
ATOM      6  C   UNL     1     -17.248  -8.865  42.967  0.00  0.00    +0.048 C 
ATOM      7  C   UNL     1     -16.694  -9.153  44.266  0.00  0.00    +0.249 C 
ATOM      8  O   UNL     1     -15.543  -9.317  44.469  0.00  0.00    -0.270 OA
ATOM      9  N   UNL     1     -17.654  -9.284  45.267  0.00  0.00    -0.281 N 
ATOM     10  H   UNL     1     -17.502  -9.502  46.303  0.00  0.00    +0.155 HD
ATOM     11  C   UNL     1     -18.891  -9.059  44.585  0.00  0.00    +0.042 A 
ATOM     12  C   UNL     1     -20.337  -9.047  45.068  0.00  0.00    +0.027 A 
ATOM     13  C   UNL     1     -21.320  -8.754  44.187  0.00  0.00    +0.040 A 
ATOM     14  C   UNL     1     -21.002  -8.518  42.761  0.00  0.00    +0.124 A 
ATOM     15  F   UNL     1     -21.956  -8.293  41.982  0.00  0.00    -0.205 F 
ATOM     16  C   UNL     1     -19.689  -8.535  42.259  0.00  0.00    +0.049 A 
ATOM     17  C   UNL     1     -18.635  -8.806  43.178  0.00  0.00    +0.011 A 
ENDBRANCH   4   5
BRANCH  20  21
ATOM     21  C   UNL     1     -12.178  -7.957  39.302  0.00  0.00    +0.246 C 
ATOM     22  O   UNL     1     -11.014  -8.128  39.513  0.00  0.00    -0.270 OA
ATOM     23  N   UNL     1     -12.595  -7.372  38.179  0.00  0.00    -0.310 N 
ATOM     24  H   UNL     1     -13.647  -7.216  38.062  0.00  0.00    +0.149 HD
BRANCH  23  25
ATOM     25  C   UNL     1     -11.764  -6.950  37.150  0.00  0.00    +0.120 C 
BRANCH  25  26
ATOM     26  C   UNL     1     -11.245  -5.610  37.642  0.00  0.00    +0.103 C 
BRANCH  26  27
ATOM     27  N   UNL     1     -11.234  -4.393  36.743  0.00  0.00    -0.301 NA
BRANCH  27  28
ATOM     28  C   UNL     1     -12.690  -3.797  36.242  0.00  0.00    +0.081 C 
ATOM     29  C   UNL     1     -13.489  -2.573  36.757  0.00  0.00    +0.020 C 
ENDBRANCH  27  28
BRANCH  27  30
ATOM     30  C   UNL     1     -10.036  -3.500  37.224  0.00  0.00    +0.081 C 
ATOM     31  C   UNL     1      -8.951  -3.943  38.324  0.00  0.00    +0.020 C 
ENDBRANCH  27  30
ENDBRANCH  26  27
ENDBRANCH  25  26
ENDBRANCH  23  25
ENDBRANCH  20  21
TORSDOF 7
