REMARK  Name = 2jdv_ligand
REMARK  8 active torsions:
REMARK  status: ('A' for Active; 'I' for Inactive)
REMARK    1  A    between atoms: C1_1  and  C2_2
REMARK    2  A    between atoms: C9_8  and  C12_11
REMARK    3  A    between atoms: C16_15  and  O17_16
REMARK    4  A    between atoms: O17_16  and  C18_17
REMARK    5  A    between atoms: C18_17  and  C19_18
REMARK    6  A    between atoms: C19_18  and  N21_19
REMARK    7  A    between atoms: C19_18  and  C25_20
REMARK    8  A    between atoms: C25_20  and  C26_21
REMARK                            x       y       z     vdW  Elec       q    Type
REMARK                         _______ _______ _______ _____ _____    ______ ____
ROOT
ATOM      9  O   UNL     1      11.158   8.846   1.687  0.00  0.00    -0.305 OA
ENDROOT
BRANCH   9   8
ATOM      6  C   UNL     1       7.761   9.890   0.736  0.00  0.00    +0.000 A 
ATOM      7  C   UNL     1       8.798   9.287   1.452  0.00  0.00    +0.059 A 
ATOM      8  C   UNL     1      10.112   9.419   0.986  0.00  0.00    +0.119 A 
ATOM     27  C   UNL     1      10.362  10.175  -0.168  0.00  0.00    +0.114 A 
ATOM     28  N   UNL     1       9.389  10.754  -0.851  0.00  0.00    -0.307 NA
ATOM     29  C   UNL     1       8.118  10.609  -0.438  0.00  0.00    +0.081 A 
BRANCH   6   5
ATOM      1  C   UNL     1       4.630   9.646   5.483  0.00  0.00    +0.211 C 
ATOM      2  C   UNL     1       3.982   9.617   4.162  0.00  0.00    +0.139 A 
ATOM      3  C   UNL     1       4.693   9.682   2.908  0.00  0.00    +0.050 A 
ATOM      4  C   UNL     1       6.038   9.761   2.541  0.00  0.00    +0.032 A 
ATOM      5  C   UNL     1       6.362   9.783   1.168  0.00  0.00    -0.012 A 
ATOM     30  C   UNL     1       5.330   9.718   0.200  0.00  0.00    +0.010 A 
ATOM     31  C   UNL     1       3.982   9.639   0.515  0.00  0.00    -0.000 A 
ATOM     32  C   UNL     1       3.674   9.610   1.901  0.00  0.00    -0.037 A 
ATOM     33  N   UNL     1       2.494   9.532   2.590  0.00  0.00    -0.396 NA
ATOM     34  N   UNL     1       2.660   9.543   3.927  0.00  0.00    -0.257 N 
ATOM     35  H   UNL     1       1.914   9.502   4.636  0.00  0.00    +0.272 HD
ENDBRANCH   6   5
ENDBRANCH   9   8
BRANCH   9  10
ATOM     10  C   UNL     1      11.035   7.598   2.361  0.00  0.00    +0.251 C 
BRANCH  10  11
ATOM     11  C   UNL     1      12.458   7.399   2.927  0.00  0.00    +0.098 C 
BRANCH  11  23
ATOM     23  N   UNL     1      13.366   7.254   1.753  0.00  0.00    +0.224 N 
ATOM     24  H   UNL     1      13.082   6.457   1.205  0.00  0.00    +0.200 HD
ATOM     25  H   UNL     1      13.318   8.086   1.186  0.00  0.00    +0.200 HD
ATOM     26  H   UNL     1      14.312   7.121   2.074  0.00  0.00    +0.200 HD
ENDBRANCH  11  23
BRANCH  11  12
ATOM     12  C   UNL     1      12.971   8.560   3.847  0.00  0.00    +0.090 C 
BRANCH  12  13
ATOM     13  C   UNL     1      12.155   8.655   5.068  0.00  0.00    -0.041 A 
ATOM     14  C   UNL     1      10.914   9.383   5.254  0.00  0.00    -0.021 A 
ATOM     15  C   UNL     1      10.113  10.206   4.459  0.00  0.00    -0.021 A 
ATOM     16  C   UNL     1       8.944  10.710   5.006  0.00  0.00    -0.028 A 
ATOM     17  C   UNL     1       8.545  10.453   6.338  0.00  0.00    -0.024 A 
ATOM     18  C   UNL     1       9.297   9.628   7.146  0.00  0.00    +0.010 A 
ATOM     19  C   UNL     1      10.470   9.092   6.609  0.00  0.00    +0.060 A 
ATOM     20  N   UNL     1      11.412   8.247   7.186  0.00  0.00    -0.289 N 
ATOM     21  H   UNL     1      11.372   7.874   8.145  0.00  0.00    +0.222 HD
ATOM     22  C   UNL     1      12.413   7.987   6.265  0.00  0.00    +0.096 A 
ENDBRANCH  12  13
ENDBRANCH  11  12
ENDBRANCH  10  11
ENDBRANCH   9  10
TORSDOF 7
