REMARK  Name = JQ1
REMARK  5 active torsions:
REMARK  status: ('A' for Active; 'I' for Inactive)
REMARK    1  A    between atoms: CAM_13  and  CAS_19
REMARK    2  A    between atoms: CAM_13  and  CBC_29
REMARK    3  A    between atoms: OAQ_17  and  CAS_19
REMARK    4  A    between atoms: OAQ_17  and  CBE_31
REMARK    5  A    between atoms: CAT_20  and  CAW_23
REMARK                            x       y       z     vdW  Elec       q    Type
REMARK                         _______ _______ _______ _____ _____    ______ ____
ROOT
ATOM      1  C   UNL     1      41.676  39.442  -5.685  0.00  0.00    +0.074 C 
ATOM      2  C   UNL     1      41.867  40.771  -6.399  0.00  0.00    +0.148 A 
ATOM      3  N   UNL     1      41.085  41.858  -6.299  0.00  0.00    -0.133 NA
ATOM      4  N   UNL     1      41.545  42.785  -7.042  0.00  0.00    -0.131 NA
ATOM      5  C   UNL     1      42.664  42.330  -7.605  0.00  0.00    +0.170 A 
ATOM      6  C   UNL     1      43.566  43.060  -8.620  0.00  0.00    +0.173 C 
ATOM     15  N   UNL     1      43.432  42.301  -9.902  0.00  0.00    -0.264 NA
ATOM     16  C   UNL     1      44.014  41.125 -10.059  0.00  0.00    +0.078 C 
ATOM     17  C   UNL     1      44.577  40.392  -8.970  0.00  0.00    +0.036 A 
ATOM     18  C   UNL     1      43.985  40.329  -7.657  0.00  0.00    +0.097 A 
ATOM     19  S   UNL     1      44.900  39.310  -6.597  0.00  0.00    -0.074 S 
ATOM     20  C   UNL     1      46.032  38.935  -7.808  0.00  0.00    +0.005 A 
ATOM     21  C   UNL     1      47.225  38.029  -7.547  0.00  0.00    +0.038 C 
ATOM     22  C   UNL     1      45.740  39.599  -8.989  0.00  0.00    -0.016 A 
ATOM     23  C   UNL     1      46.613  39.477 -10.230  0.00  0.00    +0.031 C 
ATOM     30  N   UNL     1      42.879  41.044  -7.247  0.00  0.00    -0.274 N 
ENDROOT
BRANCH  16  24
ATOM     24  C   UNL     1      43.817  40.503 -11.346  0.00  0.00    +0.017 A 
ATOM     25  C   UNL     1      43.669  39.122 -11.494  0.00  0.00    +0.001 A 
ATOM     26  C   UNL     1      43.474  38.521 -12.722  0.00  0.00    +0.000 A 
ATOM     27  C   UNL     1      43.402  39.316 -13.837  0.00  0.00    +0.000 A 
ATOM     28  C   UNL     1      43.513  40.690 -13.752  0.00  0.00    +0.000 A 
ATOM     29  C   UNL     1      43.721  41.273 -12.497  0.00  0.00    +0.001 A 
ENDBRANCH  16  24
BRANCH   6   7
ATOM      7  C   UNL     1      43.226  44.538  -8.851  0.00  0.00    +0.142 C 
BRANCH   7   8
ATOM      8  C   UNL     1      44.124  45.162  -9.910  0.00  0.00    +0.319 C 
ATOM     14  O   UNL     1      43.712  46.062 -10.610  0.00  0.00    -0.250 OA
BRANCH   8   9
ATOM      9  O   UNL     1      45.337  44.650 -10.023  0.00  0.00    -0.456 OA
BRANCH   9  10
ATOM     10  C   UNL     1      46.237  44.924 -11.123  0.00  0.00    +0.136 C 
ATOM     11  C   UNL     1      46.787  46.312 -10.861  0.00  0.00    +0.044 C 
ATOM     12  C   UNL     1      47.358  43.896 -10.999  0.00  0.00    +0.044 C 
ATOM     13  C   UNL     1      45.563  44.787 -12.488  0.00  0.00    +0.044 C 
ENDBRANCH   9  10
ENDBRANCH   8   9
ENDBRANCH   7   8
ENDBRANCH   6   7
TORSDOF 5
