REMARK  Name = OQC
REMARK  6 active torsions:
REMARK  status: ('A' for Active; 'I' for Inactive)
REMARK    1  A    between atoms: C7_1  and  C4_8
REMARK    2  A    between atoms: C1_5  and  C_6
REMARK    3  A    between atoms: C7_15  and  C4_22
REMARK    4  A    between atoms: C1_19  and  C_20
REMARK    5  A    between atoms: C7_29  and  C4_36
REMARK    6  A    between atoms: C1_33  and  C_34
REMARK                            x       y       z     vdW  Elec       q    Type
REMARK                         _______ _______ _______ _____ _____    ______ ____
ROOT
ATOM      5  C   UNL     1       3.961 141.246 352.028  0.00  0.00    +0.014 A 
ATOM      6  C   UNL     1       5.135 140.857 352.664  0.00  0.00    +0.057 A 
ATOM      7 CL   UNL     1       6.211 142.044 353.328  0.00  0.00    -0.082 Cl
ATOM      8  C   UNL     1       5.477 139.528 352.799  0.00  0.00    +0.009 A 
ATOM      9  C   UNL     1       4.648 138.533 352.298  0.00  0.00    -0.002 A 
ATOM     12  C   UNL     1       3.478 138.911 351.659  0.00  0.00    -0.003 A 
ATOM     13  C   UNL     1       3.136 140.245 351.523  0.00  0.00    +0.001 A 
ENDROOT
BRANCH   5   1
ATOM      1  C   UNL     1       3.579 142.672 351.871  0.00  0.00    +0.042 A 
ATOM      2  C   UNL     1       4.201 143.815 352.227  0.00  0.00    +0.180 A 
ATOM      3  O   UNL     1       3.461 144.902 351.860  0.00  0.00    -0.447 OA
ATOM      4  C   UNL     1       2.344 144.410 351.256  0.00  0.00    +0.180 A 
ATOM     14  C   UNL     1       2.373 143.075 351.238  0.00  0.00    +0.044 A 
ENDBRANCH   5   1
BRANCH   9  10
ATOM     10  C   UNL     1       5.024 137.080 352.452  0.00  0.00    +0.136 C 
ATOM     11  N   UNL     1       5.192 136.630 353.826  0.00  0.00    -0.126 NA
ENDBRANCH   9  10
TORSDOF 2
