REMARK  Name = 4k77_ligand
REMARK  1 active torsions:
REMARK  status: ('A' for Active; 'I' for Inactive)
REMARK    1  A    between atoms: N13_12  and  C14_13
REMARK                            x       y       z     vdW  Elec       q    Type
REMARK                         _______ _______ _______ _____ _____    ______ ____
ROOT
ATOM      1  C   UNL     1      16.781   3.430   1.336  0.00  0.00    -0.007 A 
ATOM      2  C   UNL     1      15.479   3.686   0.730  0.00  0.00    +0.038 A 
ATOM      3  C   UNL     1      14.853   4.960   0.752  0.00  0.00    +0.132 A 
ATOM      4  N   UNL     1      15.441   6.040   1.381  0.00  0.00    -0.297 N 
ATOM      5  H   UNL     1      16.325   5.918   1.896  0.00  0.00    +0.186 HD
ATOM     12  N   UNL     1      13.676   5.091   0.153  0.00  0.00    -0.259 NA
ATOM     13  C   UNL     1      13.088   4.063  -0.440  0.00  0.00    +0.162 A 
ATOM     14  N   UNL     1      13.627   2.874  -0.489  0.00  0.00    -0.281 NA
ATOM     15  C   UNL     1      14.808   2.631   0.070  0.00  0.00    +0.119 A 
ATOM     16  C   UNL     1      15.450   1.305   0.023  0.00  0.00    +0.245 A 
ATOM     17  O   UNL     1      14.906   0.361  -0.551  0.00  0.00    -0.388 OA
ATOM     18  N   UNL     1      16.654   1.155   0.628  0.00  0.00    -0.222 N 
ATOM     19  H   UNL     1      17.093   0.257   0.612  0.00  0.00    +0.250 HD
ATOM     20  C   UNL     1      17.290   2.191   1.260  0.00  0.00    +0.165 A 
ENDROOT
BRANCH   4   6
ATOM      6  C   UNL     1      14.807   7.357   1.315  0.00  0.00    +0.097 C 
ATOM      7  C   UNL     1      15.908   8.418   1.183  0.00  0.00    +0.028 C 
ATOM      8  C   UNL     1      15.334   9.840   1.291  0.00  0.00    +0.002 C 
ATOM      9  C   UNL     1      14.700   9.975   2.676  0.00  0.00    +0.000 C 
ATOM     10  C   UNL     1      13.506   9.009   2.705  0.00  0.00    +0.002 C 
ATOM     11  C   UNL     1      13.992   7.556   2.593  0.00  0.00    +0.028 C 
ENDBRANCH   4   6
TORSDOF 1
