REMARK  Name = 5EDS
REMARK  8 active torsions:
REMARK  status: ('A' for Active; 'I' for Inactive)
REMARK    1  A    between atoms: C_1  and  S_2
REMARK    2  A    between atoms: S_2  and  C_5
REMARK    3  A    between atoms: C_10  and  N_11
REMARK    4  A    between atoms: C_20  and  C_21
REMARK    5  A    between atoms: C_21  and  C_22
REMARK    6  A    between atoms: C_21  and  N_23
REMARK    7  A    between atoms: C_28  and  N_29
REMARK    8  A    between atoms: C_30  and  C_31
REMARK                            x       y       z     vdW  Elec       q    Type
REMARK                         _______ _______ _______ _____ _____    ______ ____
ROOT
ATOM      8  N   UNL     1      19.840  16.767  19.525  0.00  0.00    -0.294 N 
ATOM      9  C   UNL     1      20.936  16.183  20.017  0.00  0.00    +0.140 A 
ATOM     25  N   UNL     1      21.473  15.402  19.086  0.00  0.00    -0.230 NA
ATOM     26  C   UNL     1      20.699  15.486  18.003  0.00  0.00    +0.090 A 
ATOM     27  C   UNL     1      20.770  14.882  16.750  0.00  0.00    +0.033 A 
ATOM     28  C   UNL     1      19.805  15.151  15.784  0.00  0.00    +0.040 A 
ATOM     29  C   UNL     1      18.767  16.036  16.066  0.00  0.00    +0.126 A 
ATOM     30  F   UNL     1      17.837  16.297  15.125  0.00  0.00    -0.205 F 
ATOM     31  C   UNL     1      18.692  16.643  17.319  0.00  0.00    +0.066 A 
ATOM     32  C   UNL     1      19.656  16.362  18.283  0.00  0.00    +0.076 A 
ENDROOT
BRANCH   8   7
ATOM      3  C   UNL     1      18.293  19.895  20.456  0.00  0.00    +0.090 A 
ATOM      4  C   UNL     1      17.379  19.464  21.420  0.00  0.00    +0.027 A 
ATOM      5  C   UNL     1      17.291  18.112  21.744  0.00  0.00    +0.004 A 
ATOM      6  C   UNL     1      18.120  17.195  21.101  0.00  0.00    +0.026 A 
ATOM      7  C   UNL     1      19.041  17.627  20.145  0.00  0.00    +0.050 A 
ATOM     33  C   UNL     1      19.125  18.976  19.818  0.00  0.00    +0.053 A 
BRANCH   3   2
ATOM      1  C   UNL     1      16.729  22.129  19.629  0.00  0.00    +0.200 C 
ATOM      2  S   UNL     1      18.380  21.597  20.045  0.00  0.00    -0.006 S 
ATOM     34  O   UNL     1      18.903  22.370  21.223  0.00  0.00    -0.170 OA
ATOM     35  O   UNL     1      19.287  21.802  18.861  0.00  0.00    -0.170 OA
ENDBRANCH   3   2
ENDBRANCH   8   7
BRANCH   9  10
ATOM     10  C   UNL     1      21.527  16.385  21.424  0.00  0.00    +0.171 C 
ATOM     24  C   UNL     1      22.642  17.416  21.264  0.00  0.00    +0.041 C 
BRANCH  10  11
ATOM     11  N   UNL     1      22.095  15.140  22.015  0.00  0.00    -0.254 NA
ATOM     12  C   UNL     1      21.348  14.147  22.528  0.00  0.00    +0.171 A 
ATOM     13  C   UNL     1      21.894  12.976  23.074  0.00  0.00    +0.133 A 
ATOM     16  C   UNL     1      21.037  11.996  23.572  0.00  0.00    +0.116 A 
ATOM     20  N   UNL     1      19.710  12.180  23.527  0.00  0.00    -0.334 N 
ATOM     21  H   UNL     1      19.046  11.434  23.911  0.00  0.00    +0.168 HD
ATOM     22  C   UNL     1      19.232  13.296  23.002  0.00  0.00    +0.200 A 
ATOM     23  N   UNL     1      20.016  14.256  22.514  0.00  0.00    -0.218 NA
BRANCH  16  17
ATOM     17  N   UNL     1      21.522  10.874  24.088  0.00  0.00    -0.344 N 
ATOM     18  H   UNL     1      22.580  10.717  24.129  0.00  0.00    +0.144 HD
ATOM     19  H   UNL     1      20.855  10.126  24.464  0.00  0.00    +0.144 HD
ENDBRANCH  16  17
BRANCH  13  14
ATOM     14  C   UNL     1      23.297  12.738  23.137  0.00  0.00    +0.106 C 
ATOM     15  N   UNL     1      24.422  12.558  23.184  0.00  0.00    -0.191 NA
ENDBRANCH  13  14
ENDBRANCH  10  11
ENDBRANCH   9  10
TORSDOF 6
