REMARK  Name = 4ZIM
REMARK  3 active torsions:
REMARK  status: ('A' for Active; 'I' for Inactive)
REMARK    1  A    between atoms: C_1  and  C_6
REMARK    2  A    between atoms: C_7  and  C_24
REMARK    3  A    between atoms: C_12  and  C_13
REMARK                            x       y       z     vdW  Elec       q    Type
REMARK                         _______ _______ _______ _____ _____    ______ ____
ROOT
ATOM      1  C   UNL     1      -1.059  44.695   5.490  0.00  0.00    +0.038 A 
ATOM      2  C   UNL     1      -1.174  45.257   4.223  0.00  0.00    +0.023 A 
ATOM      3  C   UNL     1      -2.293  44.998   3.439  0.00  0.00    +0.010 A 
ATOM      4  C   UNL     1      -2.729  45.422   2.131  0.00  0.00    +0.011 A 
ATOM      5  C   UNL     1      -2.173  46.240   1.156  0.00  0.00    +0.019 A 
ATOM      6  C   UNL     1      -2.878  46.595   0.007  0.00  0.00    -0.016 A 
ATOM      7  C   UNL     1      -4.182  46.111  -0.156  0.00  0.00    +0.023 A 
ATOM      8  C   UNL     1      -4.752  45.248   0.792  0.00  0.00    +0.063 A 
ATOM     22  C   UNL     1      -4.017  44.887   1.945  0.00  0.00    +0.084 A 
ATOM     23  N   UNL     1      -4.357  44.128   3.048  0.00  0.00    -0.246 NA
ATOM     24  C   UNL     1      -3.320  44.189   3.961  0.00  0.00    +0.072 A 
ATOM     25  C   UNL     1      -3.223  43.625   5.235  0.00  0.00    +0.029 A 
ATOM     26  C   UNL     1      -2.087  43.887   5.988  0.00  0.00    +0.015 A 
ENDROOT
BRANCH   6  14
ATOM     14  C   UNL     1      -2.239  47.445  -1.023  0.00  0.00    -0.016 A 
ATOM     15  C   UNL     1      -1.252  48.358  -0.657  0.00  0.00    +0.030 A 
ATOM     16  C   UNL     1      -0.673  49.182  -1.602  0.00  0.00    +0.060 A 
ATOM     17 CL   UNL     1       0.582  50.269  -1.102  0.00  0.00    -0.082 Cl
ATOM     18  C   UNL     1      -1.077  49.120  -2.929  0.00  0.00    +0.059 A 
ATOM     19 CL   UNL     1      -0.465  50.245  -4.100  0.00  0.00    -0.082 Cl
ATOM     20  C   UNL     1      -2.039  48.198  -3.310  0.00  0.00    +0.022 A 
ATOM     21  C   UNL     1      -2.608  47.369  -2.363  0.00  0.00    +0.010 A 
ENDBRANCH   6  14
BRANCH   1  27
ATOM     27  C   UNL     1       0.229  44.914   6.221  0.00  0.00    +0.247 C 
ATOM     28  O   UNL     1       1.253  44.397   5.804  0.00  0.00    -0.270 OA
ATOM     29  N   UNL     1       0.213  45.624   7.367  0.00  0.00    -0.293 N 
ATOM     30  C   UNL     1       1.355  45.598   8.290  0.00  0.00    +0.136 C 
ATOM     31  C   UNL     1       0.901  45.065   9.624  0.00  0.00    +0.178 C 
ATOM     32  O   UNL     1      -0.188  45.834  10.152  0.00  0.00    -0.377 OA
ATOM     33  C   UNL     1      -1.298  45.812   9.253  0.00  0.00    +0.178 C 
ATOM     34  C   UNL     1      -0.925  46.376   7.911  0.00  0.00    +0.136 C 
ENDBRANCH   1  27
BRANCH   8   9
ATOM      9  C   UNL     1      -6.144  44.727   0.577  0.00  0.00    +0.244 C 
ATOM     10  O   UNL     1      -6.733  44.168   1.504  0.00  0.00    -0.270 OA
ATOM     11  N   UNL     1      -6.706  44.864  -0.651  0.00  0.00    -0.325 N 
ATOM     12  H   UNL     1      -7.697  44.501  -0.830  0.00  0.00    +0.145 HD
ATOM     13  H   UNL     1      -6.158  45.335  -1.440  0.00  0.00    +0.145 HD
ENDBRANCH   8   9
TORSDOF 3
