REMARK  Name = 6N9P
REMARK  7 active torsions:
REMARK  status: ('A' for Active; 'I' for Inactive)
REMARK    1  A    between atoms: C5_3  and  C8_5
REMARK    2  A    between atoms: C6_4  and  O21_22
REMARK    3  A    between atoms: C15_8  and  O14_29
REMARK    4  A    between atoms: C22_11  and  O21_22
REMARK    5  A    between atoms: C26_13  and  N28_18
REMARK    6  A    between atoms: C29_15  and  C30_16
REMARK    7  A    between atoms: C11_27  and  O14_29
REMARK                            x       y       z     vdW  Elec       q    Type
REMARK                         _______ _______ _______ _____ _____    ______ ____
ROOT
ATOM      1  N   UNL     1      18.161   5.151   0.700  0.00  0.00    -0.760 NA
ATOM      2  C   UNL     1      19.273   5.495   0.035  0.00  0.00    +0.250 A 
ATOM      3  C   UNL     1      20.378   5.993   0.715  0.00  0.00    -0.130 A 
ATOM      4  C   UNL     1      20.316   6.137   2.098  0.00  0.00    +0.185 A 
ATOM     17  C   UNL     1      19.153   5.772   2.770  0.00  0.00    +0.000 A 
ATOM     31  C   UNL     1      18.075   5.287   2.036  0.00  0.00    +0.430 A 
ATOM     32  N   UNL     1      16.913   4.937   2.647  0.00  0.00    -0.550 NA
ENDROOT
BRANCH  17  18
ATOM     18  C   UNL     1      18.959   5.895   4.249  0.00  0.00    +0.000 A 
ATOM     19  C   UNL     1      18.722   4.756   5.018  0.00  0.00    -0.130 A 
ATOM     20  C   UNL     1      18.509   4.861   6.393  0.00  0.00    -0.130 A 
ATOM     21  C   UNL     1      18.517   6.115   7.006  0.00  0.00    +0.185 A 
ATOM     29  C   UNL     1      18.743   7.260   6.242  0.00  0.00    -0.130 A 
ATOM     30  C   UNL     1      18.958   7.150   4.869  0.00  0.00    -0.130 A 
BRANCH  21  22
ATOM     22  O   UNL     1      18.296   6.225   8.354  0.00  0.00    -0.370 OA
BRANCH  22  23
ATOM     23  C   UNL     1      17.166   6.873   8.813  0.00  0.00    +0.185 A 
ATOM     24  C   UNL     1      16.092   7.136   7.963  0.00  0.00    -0.130 A 
ATOM     25  C   UNL     1      14.963   7.790   8.434  0.00  0.00    -0.130 A 
ATOM     26  C   UNL     1      14.894   8.188   9.764  0.00  0.00    -0.130 A 
ATOM     27  C   UNL     1      15.960   7.931  10.614  0.00  0.00    -0.130 A 
ATOM     28  C   UNL     1      17.090   7.274  10.138  0.00  0.00    -0.130 A 
ENDBRANCH  22  23
ENDBRANCH  21  22
ENDBRANCH  17  18
BRANCH   4   5
ATOM      5  O   UNL     1      21.400   6.626   2.769  0.00  0.00    -0.370 OA
BRANCH   5   6
ATOM      6  C   UNL     1      22.498   7.170   2.145  0.00  0.00    +0.185 A 
ATOM      7  C   UNL     1      23.458   6.382   1.504  0.00  0.00    -0.130 A 
ATOM      8  C   UNL     1      24.561   6.996   0.889  0.00  0.00    -0.130 A 
ATOM      9  C   UNL     1      24.709   8.386   0.929  0.00  0.00    -0.130 A 
ATOM     10  C   UNL     1      23.746   9.167   1.574  0.00  0.00    +0.050 A 
ATOM     16  C   UNL     1      22.659   8.555   2.188  0.00  0.00    -0.130 A 
BRANCH  10  11
ATOM     11  N   UNL     1      23.851  10.565   1.658  0.00  0.00    -0.350 NA
ATOM     12  C   UNL     1      24.671  11.261   0.889  0.00  0.00    +0.600 C 
ATOM     15  O   UNL     1      25.381  10.736   0.049  0.00  0.00    -0.550 OA
BRANCH  12  13
ATOM     13  C   UNL     1      24.691  12.759   1.122  0.00  0.00    -0.100 C 
ATOM     14  C   UNL     1      23.866  13.502   0.102  0.00  0.00    -0.100 C 
ENDBRANCH  12  13
ENDBRANCH  10  11
ENDBRANCH   5   6
ENDBRANCH   4   5
TORSDOF 7
