REMARK  Name = A7Q
REMARK  3 active torsions:
REMARK  status: ('A' for Active; 'I' for Inactive)
REMARK    1  A    between atoms: C4_6  and  O1_15
REMARK    2  A    between atoms: C5_7  and  O1_15
REMARK    3  A    between atoms: C1_11  and  C_13
REMARK                            x       y       z     vdW  Elec       q    Type
REMARK                         _______ _______ _______ _____ _____    ______ ____
ROOT
ATOM      1  C   UNL     1     -12.773  15.111 -20.535  0.00  0.00    +0.100 A 
ATOM      2  N   UNL     1     -12.179  14.729 -19.400  0.00  0.00    -0.210 NA
ATOM      3  C   UNL     1     -11.378  15.587 -18.805  0.00  0.00    +0.230 A 
ATOM     11  C   UNL     1     -11.116  16.848 -19.298  0.00  0.00    +0.058 A 
ATOM     12  C   UNL     1     -11.723  17.225 -20.454  0.00  0.00    +0.005 A 
ATOM     13  C   UNL     1     -12.576  16.357 -21.109  0.00  0.00    +0.030 A 
ENDROOT
BRANCH  13  14
ATOM     14  C   UNL     1     -13.262  16.757 -22.382  0.00  0.00    +0.210 C 
ATOM     15  O   UNL     1     -14.422  17.553 -22.124  0.00  0.00    -0.215 OA
ENDBRANCH  13  14
BRANCH   3   4
ATOM      4  O   UNL     1     -10.739  15.226 -17.651  0.00  0.00    -0.436 OA
BRANCH   4   5
ATOM      5  C   UNL     1     -10.956  13.973 -17.013  0.00  0.00    +0.147 A 
ATOM      6  C   UNL     1     -12.100  13.767 -16.276  0.00  0.00    +0.038 A 
ATOM      7  C   UNL     1     -12.295  12.550 -15.646  0.00  0.00    +0.003 A 
ATOM      8  C   UNL     1     -11.341  11.559 -15.750  0.00  0.00    +0.000 A 
ATOM      9  C   UNL     1     -10.195  11.776 -16.484  0.00  0.00    +0.003 A 
ATOM     10  C   UNL     1      -9.996  12.990 -17.117  0.00  0.00    +0.038 A 
ENDBRANCH   4   5
ENDBRANCH   3   4
TORSDOF 3
