REMARK  Name = 5FBL
REMARK  11 active torsions:
REMARK  status: ('A' for Active; 'I' for Inactive)
REMARK    1  A    between atoms: C_1  and  C_21
REMARK    2  A    between atoms: C_4  and  O_26
REMARK    3  A    between atoms: C_5  and  S_23
REMARK    4  A    between atoms: N_7  and  S_23
REMARK    5  A    between atoms: C_12  and  O_26
REMARK    6  A    between atoms: C_13  and  C_27
REMARK    7  A    between atoms: C_17  and  C_18
REMARK    8  A    between atoms: C_17  and  N_33
REMARK    9  A    between atoms: C_18  and  N_34
REMARK   10  A    between atoms: C_19  and  C_20
REMARK   11  A    between atoms: C_31  and  N_33
REMARK                            x       y       z     vdW  Elec       q    Type
REMARK                         _______ _______ _______ _____ _____    ______ ____
ROOT
ATOM      1  C   UNL     1      27.396  38.965 131.045  0.00  0.00    +0.096 A 
ATOM      2  N   UNL     1      26.929  38.899 132.293  0.00  0.00    -0.209 N 
ATOM      3  N   UNL     1      27.636  39.082 133.489  0.00  0.00    -0.153 NA
ATOM      4  C   UNL     1      26.996  38.985 134.678  0.00  0.00    +0.152 A 
ATOM      5 CL   UNL     1      27.915  39.221 136.203  0.00  0.00    -0.060 Cl
ATOM      6  C   UNL     1      25.632  38.701 134.732  0.00  0.00    +0.068 A 
ATOM      7  C   UNL     1      24.908  38.518 133.561  0.00  0.00    +0.075 A 
ATOM     17  C   UNL     1      25.618  38.626 132.258  0.00  0.00    +0.176 A 
ATOM     18  N   UNL     1      25.201  38.501 130.967  0.00  0.00    -0.229 NA
ATOM     19  C   UNL     1      26.255  38.697 130.143  0.00  0.00    +0.067 A 
ATOM     20  C   UNL     1      26.266  38.655 128.638  0.00  0.00    +0.068 C 
ENDROOT
BRANCH   1  21
ATOM     21  C   UNL     1      28.842  39.256 130.804  0.00  0.00    +0.004 A 
ATOM     22  C   UNL     1      29.551  40.152 131.599  0.00  0.00    +0.042 A 
ATOM     23  C   UNL     1      30.896  40.416 131.352  0.00  0.00    +0.147 A 
ATOM     33  C   UNL     1      31.534  39.778 130.295  0.00  0.00    +0.146 A 
ATOM     36  C   UNL     1      30.826  38.892 129.493  0.00  0.00    +0.048 A 
ATOM     37  C   UNL     1      29.485  38.633 129.743  0.00  0.00    +0.014 A 
BRANCH  23  24
ATOM     24  S   UNL     1      31.662  41.443 132.310  0.00  0.00    +0.065 S 
ATOM     25  O   UNL     1      32.625  42.212 131.578  0.00  0.00    -0.153 OA
ATOM     32  O   UNL     1      30.699  42.337 132.887  0.00  0.00    -0.153 OA
BRANCH  24  26
ATOM     26  N   UNL     1      32.398  40.642 133.500  0.00  0.00    -0.172 NA
ATOM     27  C   UNL     1      31.436  39.769 134.185  0.00  0.00    +0.137 C 
ATOM     28  C   UNL     1      32.144  38.994 135.289  0.00  0.00    +0.177 C 
ATOM     29  O   UNL     1      33.206  38.230 134.725  0.00  0.00    -0.377 OA
ATOM     30  C   UNL     1      34.168  39.062 134.081  0.00  0.00    +0.177 C 
ATOM     31  C   UNL     1      33.495  39.833 132.953  0.00  0.00    +0.137 C 
ENDBRANCH  24  26
ENDBRANCH  23  24
BRANCH  33  34
ATOM     34  O   UNL     1      32.854  40.007 130.012  0.00  0.00    -0.493 OA
ATOM     35  C   UNL     1      33.215  40.936 128.991  0.00  0.00    +0.277 C 
ENDBRANCH  33  34
ENDBRANCH   1  21
BRANCH   7   8
ATOM      8  N   UNL     1      23.589  38.243 133.607  0.00  0.00    -0.339 N 
ATOM      9  H   UNL     1      23.136  37.671 132.824  0.00  0.00    +0.146 HD
BRANCH   8  10
ATOM     10  C   UNL     1      22.783  38.719 134.713  0.00  0.00    +0.120 C 
BRANCH  10  11
ATOM     11  C   UNL     1      21.984  39.964 134.353  0.00  0.00    +0.123 C 
BRANCH  11  12
ATOM     12  N   UNL     1      20.986  40.285 135.353  0.00  0.00    -0.314 N 
ATOM     13  H   UNL     1      20.866  41.302 135.662  0.00  0.00    +0.149 HD
ATOM     14  C   UNL     1      20.215  39.347 135.897  0.00  0.00    +0.210 C 
ATOM     15  O   UNL     1      19.150  39.020 135.397  0.00  0.00    -0.276 OA
ATOM     16  C   UNL     1      20.727  38.722 137.163  0.00  0.00    +0.109 C 
ENDBRANCH  11  12
ENDBRANCH  10  11
ENDBRANCH   8  10
ENDBRANCH   7   8
TORSDOF 8
