REMARK  Name = 501
REMARK  0 active torsions:
REMARK  status: ('A' for Active; 'I' for Inactive)
REMARK                            x       y       z     vdW  Elec       q    Type
REMARK                         _______ _______ _______ _____ _____    ______ ____
ROOT
ATOM      1  C   UNL     1      13.000   3.645  23.600  0.00  0.00    +0.221 C 
ATOM      2  O   UNL     1      13.000   2.521  23.771  0.00  0.00    -0.186 OA
ATOM      3  O   UNL     1      13.000   2.379  24.249  0.00  0.00    -0.035 OA
ENDROOT
TORSDOF 0
