REMARK  Name = 5NG2
REMARK  5 active torsions:
REMARK  status: ('A' for Active; 'I' for Inactive)
REMARK    1  A    between atoms: C_4  and  N_34
REMARK    2  A    between atoms: C_5  and  O_32
REMARK    3  A    between atoms: C_6  and  C_7
REMARK    4  A    between atoms: O_32  and  C_33
REMARK    5  A    between atoms: N_34  and  C_35
REMARK                            x       y       z     vdW  Elec       q    Type
REMARK                         _______ _______ _______ _____ _____    ______ ____
ROOT
ATOM      1  O   UNL     1      35.486  81.134   4.116  0.00  0.00    -0.328 OA
ATOM      2  C   UNL     1      36.413  81.007   3.022  0.00  0.00    +0.174 C 
ATOM      3  N   UNL     1      37.662  81.839   3.290  0.00  0.00    -0.307 N 
ATOM      4  C   UNL     1      38.941  81.529   2.829  0.00  0.00    +0.053 A 
ATOM      5  C   UNL     1      39.578  80.510   2.103  0.00  0.00    +0.026 A 
ATOM      6  C   UNL     1      40.963  80.575   1.861  0.00  0.00    +0.002 A 
ATOM      7  C   UNL     1      41.765  81.642   2.308  0.00  0.00    +0.001 A 
ATOM      8  C   UNL     1      41.200  82.697   3.035  0.00  0.00    +0.010 A 
ATOM      9  C   UNL     1      39.826  82.644   3.291  0.00  0.00    +0.008 A 
ATOM     10  C   UNL     1      38.982  83.593   4.015  0.00  0.00    +0.015 A 
ATOM     11  C   UNL     1      39.242  84.889   4.709  0.00  0.00    -0.008 A 
ATOM     12  C   UNL     1      40.452  85.673   4.913  0.00  0.00    +0.141 C 
ATOM     13  N   UNL     1      40.005  86.870   5.684  0.00  0.00    -0.307 N 
ATOM     14  H   UNL     1      40.636  87.671   6.007  0.00  0.00    +0.149 HD
ATOM     15  C   UNL     1      38.668  86.780   5.911  0.00  0.00    +0.245 C 
ATOM     16  O   UNL     1      37.994  87.659   6.560  0.00  0.00    -0.270 OA
ATOM     17  C   UNL     1      38.094  85.553   5.324  0.00  0.00    +0.052 A 
ATOM     18  C   UNL     1      36.706  85.025   5.305  0.00  0.00    +0.022 A 
ATOM     19  C   UNL     1      35.407  85.436   5.809  0.00  0.00    +0.009 A 
ATOM     20  C   UNL     1      35.022  86.560   6.534  0.00  0.00    +0.010 A 
ATOM     21  C   UNL     1      33.662  86.670   6.877  0.00  0.00    +0.001 A 
ATOM     22  C   UNL     1      32.726  85.687   6.503  0.00  0.00    +0.002 A 
ATOM     23  C   UNL     1      33.106  84.549   5.769  0.00  0.00    +0.026 A 
ATOM     24  C   UNL     1      34.447  84.373   5.393  0.00  0.00    +0.052 A 
ATOM     25  N   UNL     1      35.140  83.414   4.690  0.00  0.00    -0.312 N 
ATOM     26  C   UNL     1      36.463  83.751   4.620  0.00  0.00    +0.077 A 
ATOM     27  C   UNL     1      37.616  83.030   3.971  0.00  0.00    +0.077 A 
ATOM     28  C   UNL     1      36.708  79.503   2.983  0.00  0.00    +0.069 C 
ATOM     29  C   UNL     1      35.770  81.462   1.684  0.00  0.00    +0.187 C 
ATOM     32  C   UNL     1      34.234  81.435   1.786  0.00  0.00    +0.091 C 
ATOM     36  C   UNL     1      33.780  82.457   2.825  0.00  0.00    +0.076 C 
ATOM     37  C   UNL     1      34.500  82.190   4.148  0.00  0.00    +0.224 C 
ENDROOT
BRANCH  32  33
ATOM     33  N   UNL     1      33.540  81.645   0.526  0.00  0.00    -0.314 NA
ATOM     34  H   UNL     1      34.148  81.204  -0.236  0.00  0.00    +0.122 HD
ATOM     35  C   UNL     1      32.191  81.132   0.332  0.00  0.00    +0.101 C 
ENDBRANCH  32  33
BRANCH  29  30
ATOM     30  O   UNL     1      36.146  82.802   1.322  0.00  0.00    -0.374 OA
ATOM     31  C   UNL     1      37.166  82.916   0.329  0.00  0.00    +0.194 C 
ENDBRANCH  29  30
TORSDOF 2
