REMARK  Name = 2gmx_ligand
REMARK  11 active torsions:
REMARK  status: ('A' for Active; 'I' for Inactive)
REMARK    1  A    between atoms: C2_2  and  O27_19
REMARK    2  A    between atoms: C3_3  and  C9_7
REMARK    3  A    between atoms: C5_5  and  O22_17
REMARK    4  A    between atoms: C9_7  and  C10_8
REMARK    5  A    between atoms: C17_13  and  O36_23
REMARK    6  A    between atoms: C18_14  and  C34_22
REMARK    7  A    between atoms: C19_15  and  N33_21
REMARK    8  A    between atoms: O22_17  and  C23_18
REMARK    9  A    between atoms: O27_19  and  C28_20
REMARK   10  A    between atoms: O36_23  and  C37_24
REMARK   11  A    between atoms: C37_24  and  C38_25
REMARK                            x       y       z     vdW  Elec       q    Type
REMARK                         _______ _______ _______ _____ _____    ______ ____
ROOT
ATOM     10  C   UNL     1      24.348  91.249  27.584  0.00  0.00    +0.220 C 
ATOM     11  O   UNL     1      24.410  90.157  28.116  0.00  0.00    -0.379 OA
ATOM     12  N   UNL     1      24.273  92.460  28.194  0.00  0.00    -0.217 N 
ATOM     13  H   UNL     1      24.232  93.234  27.562  0.00  0.00    +0.235 HD
ATOM     14  C   UNL     1      24.243  92.815  29.519  0.00  0.00    +0.122 A 
ATOM     15  C   UNL     1      23.797  91.997  30.605  0.00  0.00    +0.041 A 
ATOM     16  C   UNL     1      23.818  92.523  31.923  0.00  0.00    +0.069 A 
ATOM     20  C   UNL     1      24.291  93.860  32.133  0.00  0.00    +0.151 A 
ATOM     23  C   UNL     1      24.722  94.619  31.008  0.00  0.00    +0.174 A 
ATOM     27  N   UNL     1      24.692  94.087  29.731  0.00  0.00    -0.263 NA
ENDROOT
BRANCH  16  17
ATOM     17  N   UNL     1      23.388  91.731  32.947  0.00  0.00    -0.327 N 
ATOM     18  H   UNL     1      23.058  90.775  32.755  0.00  0.00    +0.179 HD
ATOM     19  H   UNL     1      23.393  92.090  33.913  0.00  0.00    +0.179 HD
ENDBRANCH  16  17
BRANCH  20  21
ATOM     21  C   UNL     1      24.332  94.451  33.458  0.00  0.00    +0.073 C 
ATOM     22  N   UNL     1      24.359  94.951  34.503  0.00  0.00    -0.358 NA
ENDBRANCH  20  21
BRANCH  10   9
ATOM      9  C   UNL     1      24.347  91.357  26.057  0.00  0.00    +0.205 C 
BRANCH   9   8
ATOM      1  C   UNL     1      27.620  93.145  24.947  0.00  0.00    +0.014 A 
ATOM      2  C   UNL     1      28.428  92.031  24.538  0.00  0.00    +0.025 A 
ATOM      3 BR   UNL     1      30.226  92.388  23.884  0.00  0.00    -0.067 Br
ATOM      4  C   UNL     1      27.882  90.680  24.629  0.00  0.00    +0.083 A 
ATOM      7  C   UNL     1      26.560  90.510  25.123  0.00  0.00    +0.012 A 
ATOM      8  C   UNL     1      25.753  91.614  25.535  0.00  0.00    +0.001 A 
ATOM     28  C   UNL     1      26.281  92.950  25.444  0.00  0.00    +0.086 A 
BRANCH   4   5
ATOM      5  O   UNL     1      28.630  89.562  24.236  0.00  0.00    -0.328 OA
ATOM      6  C   UNL     1      29.324  88.934  25.309  0.00  0.00    +0.230 C 
ENDBRANCH   4   5
BRANCH  28  29
ATOM     29  O   UNL     1      25.420  93.998  25.862  0.00  0.00    -0.331 OA
ATOM     30  C   UNL     1      25.932  94.949  26.788  0.00  0.00    +0.227 C 
ENDBRANCH  28  29
ENDBRANCH   9   8
ENDBRANCH  10   9
BRANCH  23  24
ATOM     24  O   UNL     1      25.187  95.931  31.223  0.00  0.00    -0.296 OA
BRANCH  24  25
ATOM     25  C   UNL     1      24.503  96.964  30.523  0.00  0.00    +0.198 C 
ATOM     26  C   UNL     1      25.286  97.479  29.295  0.00  0.00    +0.041 C 
ENDBRANCH  24  25
ENDBRANCH  23  24
TORSDOF 8
