REMARK  Name = 4hge_ligand
REMARK  4 active torsions:
REMARK  status: ('A' for Active; 'I' for Inactive)
REMARK    1  A    between atoms: C5_3  and  C7_6
REMARK    2  A    between atoms: C11_5  and  N5_20
REMARK    3  A    between atoms: C8_7  and  C12_10
REMARK    4  A    between atoms: C10_9  and  N6_22
REMARK                            x       y       z     vdW  Elec       q    Type
REMARK                         _______ _______ _______ _____ _____    ______ ____
ROOT
ATOM      7  C   UNL     1      58.853  10.910   5.985  0.00  0.00    +0.276 C 
ATOM      8  O   UNL     1      58.475  11.425   7.030  0.00  0.00    -0.353 OA
ATOM      9  N   UNL     1      58.096  10.134   5.178  0.00  0.00    -0.140 N 
ATOM     10  H   UNL     1      58.540   9.800   4.346  0.00  0.00    +0.309 HD
ENDROOT
BRANCH   7   6
ATOM      1  C   UNL     1      62.769  11.147   3.248  0.00  0.00    +0.108 A 
ATOM      2  C   UNL     1      62.304  10.332   2.216  0.00  0.00    +0.039 A 
ATOM      3  C   UNL     1      61.012   9.778   2.308  0.00  0.00    +0.087 A 
ATOM      4  N   UNL     1      60.241  10.036   3.384  0.00  0.00    -0.291 NA
ATOM      5  C   UNL     1      60.756  10.830   4.355  0.00  0.00    +0.116 A 
ATOM      6  C   UNL     1      60.243  11.262   5.578  0.00  0.00    +0.112 A 
ATOM     24  C   UNL     1      61.173  12.093   6.186  0.00  0.00    +0.201 A 
ATOM     25  N   UNL     1      62.285  12.145   5.414  0.00  0.00    -0.204 N 
ATOM     26  H   UNL     1      63.165  12.644   5.606  0.00  0.00    +0.263 HD
ATOM     27  N   UNL     1      61.964  11.365   4.295  0.00  0.00    -0.236 N 
ENDBRANCH   7   6
BRANCH   9  11
ATOM     11  C   UNL     1      56.797   9.750   5.361  0.00  0.00    +0.317 A 
ATOM     12  N   UNL     1      56.120   9.095   4.447  0.00  0.00    -0.056 N 
ATOM     13  N   UNL     1      54.818   8.849   4.858  0.00  0.00    -0.109 NA
ATOM     14  C   UNL     1      54.742   9.402   6.075  0.00  0.00    +0.094 A 
ATOM     15  C   UNL     1      53.565   9.462   7.027  0.00  0.00    +0.117 C 
ATOM     23  C   UNL     1      55.954  10.002   6.443  0.00  0.00    +0.155 A 
BRANCH  12  16
ATOM     16  C   UNL     1      56.531   8.689   3.251  0.00  0.00    +0.134 A 
ATOM     17  C   UNL     1      56.394   7.361   2.826  0.00  0.00    +0.053 A 
ATOM     18  C   UNL     1      56.806   6.947   1.560  0.00  0.00    +0.039 A 
ATOM     19  C   UNL     1      57.368   7.872   0.690  0.00  0.00    +0.006 A 
ATOM     20  C   UNL     1      57.491   9.196   1.075  0.00  0.00    -0.002 A 
ATOM     21 CL   UNL     1      56.633   5.233   1.029  0.00  0.00    -0.072 Cl
ATOM     22  C   UNL     1      57.075   9.582   2.337  0.00  0.00    +0.039 A 
ENDBRANCH  12  16
ENDBRANCH   9  11
TORSDOF 3
