REMARK  Name = 6DMG
REMARK  12 active torsions:
REMARK  status: ('A' for Active; 'I' for Inactive)
REMARK    1  A    between atoms: C6_3  and  C5_4
REMARK    2  A    between atoms: C5_4  and  N1_5
REMARK    3  A    between atoms: N1_5  and  C4_6
REMARK    4  A    between atoms: C4_6  and  C3_7
REMARK    5  A    between atoms: C3_7  and  O1_9
REMARK    6  A    between atoms: O1_9  and  C2_10
REMARK    7  A    between atoms: C9_13  and  C10_16
REMARK    8  A    between atoms: C12_17  and  C13_21
REMARK    9  A    between atoms: C15_23  and  C16_26
REMARK   10  A    between atoms: N5_28  and  C17_29
REMARK   11  A    between atoms: C17_29  and  C18_30
REMARK   12  A    between atoms: C17_29  and  C19_32
REMARK                            x       y       z     vdW  Elec       q    Type
REMARK                         _______ _______ _______ _____ _____    ______ ____
ROOT
ATOM      5  C   UNL     1      20.941   5.169  15.593  0.00  0.00    +0.050 A 
ATOM      6  C   UNL     1      22.223   4.820  15.278  0.00  0.00    -0.050 A 
ATOM      7  N   UNL     1      22.473   3.632  15.807  0.00  0.00    -0.100 NA
ATOM      8  N   UNL     1      21.335   3.210  16.470  0.00  0.00    -0.400 NA
ATOM      9  C   UNL     1      20.402   4.145  16.331  0.00  0.00    +0.100 A 
ENDROOT
BRANCH   5   4
ATOM      1 CL   UNL     1      17.846   9.359  16.596  0.00  0.00    -0.200 Cl
ATOM      2  C   UNL     1      18.916   8.407  15.530  0.00  0.00    +0.200 A 
ATOM      3  C   UNL     1      19.474   7.220  15.982  0.00  0.00    -0.130 A 
ATOM      4  C   UNL     1      20.296   6.482  15.146  0.00  0.00    +0.000 A 
ATOM     29  C   UNL     1      20.573   6.942  13.870  0.00  0.00    -0.130 A 
ATOM     30  C   UNL     1      20.021   8.127  13.420  0.00  0.00    -0.130 A 
ATOM     31  C   UNL     1      19.194   8.860  14.251  0.00  0.00    +0.000 A 
BRANCH  31  32
ATOM     32  C   UNL     1      18.586  10.165  13.745  0.00  0.00    +0.100 C 
BRANCH  32  33
ATOM     33  N   UNL     1      17.142  10.029  13.695  0.00  0.00    -0.750 NA
BRANCH  33  34
ATOM     34  C   UNL     1      16.645  10.544  12.432  0.00  0.00    +0.100 C 
BRANCH  34  35
ATOM     35  C   UNL     1      15.143  10.282  12.329  0.00  0.00    +0.700 C 
ATOM     39  O   UNL     1      14.603   9.641  13.168  0.00  0.00    -0.550 OA
BRANCH  35  36
ATOM     36  O   UNL     1      14.396  10.788  11.255  0.00  0.00    -0.650 OA
BRANCH  36  37
ATOM     37  C   UNL     1      15.145  11.382  10.231  0.00  0.00    +0.400 C 
ATOM     38  C   UNL     1      14.207  11.857   9.123  0.00  0.00    -0.150 C 
ENDBRANCH  36  37
ENDBRANCH  35  36
ENDBRANCH  34  35
ENDBRANCH  33  34
ENDBRANCH  32  33
ENDBRANCH  31  32
ENDBRANCH   5   4
BRANCH   9  10
ATOM     10  C   UNL     1      19.010   4.024  16.946  0.00  0.00    +0.100 A 
ATOM     11  C   UNL     1      18.746   3.334  18.103  0.00  0.00    -0.050 A 
ATOM     12  N   UNL     1      17.422   3.424  18.356  0.00  0.00    -0.500 NA
ATOM     13  CA  UNL     1      16.859   4.155  17.368  0.00  0.00    +0.100 A 
ATOM     28  C   UNL     1      17.849   4.527  16.489  0.00  0.00    -0.150 A 
BRANCH  13  14
ATOM     14  C   UNL     1      15.378   4.505  17.272  0.00  0.00    +0.600 C 
ATOM     15  N   UNL     1      14.932   5.514  16.332  0.00  0.00    -0.400 NA
ATOM     27  O   UNL     1      14.595   3.958  17.971  0.00  0.00    -0.550 OA
BRANCH  15  16
ATOM     16  CA  UNL     1      13.524   5.851  16.247  0.00  0.00    +0.050 C 
BRANCH  16  17
ATOM     17  C   UNL     1      13.170   6.781  17.405  0.00  0.00    +0.000 A 
ATOM     18  C   UNL     1      11.956   6.647  18.060  0.00  0.00    -0.130 A 
ATOM     19  C   UNL     1      11.639   7.492  19.111  0.00  0.00    -0.130 A 
ATOM     20  C   UNL     1      12.537   8.470  19.509  0.00  0.00    +0.300 A 
ATOM     21  F   UNL     1      12.225   9.302  20.545  0.00  0.00    -0.300 F 
ATOM     22  C   UNL     1      13.751   8.602  18.856  0.00  0.00    +0.200 A 
ATOM     23 CL   UNL     1      14.909   9.861  19.366  0.00  0.00    -0.200 Cl
ATOM     24  C   UNL     1      14.068   7.757  17.804  0.00  0.00    -0.130 A 
ENDBRANCH  16  17
BRANCH  16  25
ATOM     25  C   UNL     1      13.255   6.551  14.918  0.00  0.00    +0.150 C 
ATOM     26  O   UNL     1      13.977   5.908  13.904  0.00  0.00    -0.650 OA
ENDBRANCH  16  25
ENDBRANCH  15  16
ENDBRANCH  13  14
ENDBRANCH   9  10
TORSDOF 12
