REMARK  Name = 501
REMARK  0 active torsions:
REMARK  status: ('A' for Active; 'I' for Inactive)
REMARK                            x       y       z     vdW  Elec       q    Type
REMARK                         _______ _______ _______ _____ _____    ______ ____
ROOT
ATOM      1  O   UNL     1      -9.000   2.278  21.108  0.00  0.00    +0.000 OA
ATOM      2  O   UNL     1      -8.000   2.343  20.889  0.00  0.00    +0.000 OA
ENDROOT
TORSDOF 0
