REMARK  Name = 3kck_ligand
REMARK  2 active torsions:
REMARK  status: ('A' for Active; 'I' for Inactive)
REMARK    1  A    between atoms: C5_2  and  C9_15
REMARK    2  A    between atoms: O1_11  and  C2_12
REMARK                            x       y       z     vdW  Elec       q    Type
REMARK                         _______ _______ _______ _____ _____    ______ ____
ROOT
ATOM     10  C   UNL     1      12.017  13.625   2.327  0.00  0.00    +0.085 A 
ATOM     11  C   UNL     1      11.803  12.203   2.032  0.00  0.00    +0.024 A 
ATOM     12  C   UNL     1      12.597  11.069   2.545  0.00  0.00    +0.027 A 
ATOM     13  C   UNL     1      12.064   9.895   1.924  0.00  0.00    +0.082 A 
ATOM     14  N   UNL     1      11.011  10.320   1.134  0.00  0.00    -0.331 NA
ATOM     15  N   UNL     1      12.667   8.733   2.209  0.00  0.00    -0.285 NA
ATOM     16  C   UNL     1      13.747   8.612   3.024  0.00  0.00    +0.099 A 
ATOM     17  C   UNL     1      14.316   9.721   3.680  0.00  0.00    +0.055 A 
ATOM     18  C   UNL     1      13.744  11.000   3.419  0.00  0.00    +0.023 A 
ATOM     19  C   UNL     1      14.318  12.157   4.169  0.00  0.00    +0.040 A 
ATOM     20  C   UNL     1      13.860  13.501   4.094  0.00  0.00    +0.084 A 
ATOM     21  C   UNL     1      14.502  14.454   4.930  0.00  0.00    +0.051 A 
ATOM     22  C   UNL     1      15.509  14.086   5.836  0.00  0.00    +0.029 A 
ATOM     23  C   UNL     1      15.928  12.755   5.906  0.00  0.00    +0.031 A 
ATOM     24  C   UNL     1      15.359  11.807   5.053  0.00  0.00    +0.040 A 
ATOM     25  C   UNL     1      10.883  11.681   1.196  0.00  0.00    +0.046 A 
ATOM     26  N   UNL     1      12.906  14.061   3.242  0.00  0.00    -0.246 NA
ENDROOT
BRANCH  10   9
ATOM      1  C   UNL     1      11.371  15.025   0.290  0.00  0.00    +0.019 A 
ATOM      2  C   UNL     1      10.680  16.110  -0.276  0.00  0.00    +0.035 A 
ATOM      3  C   UNL     1       9.843  16.917   0.509  0.00  0.00    +0.099 A 
ATOM      6  C   UNL     1       9.722  16.632   1.857  0.00  0.00    +0.049 A 
ATOM      7  C   UNL     1      10.413  15.580   2.341  0.00  0.00    +0.055 A 
ATOM      8 CL   UNL     1      10.236  15.277   3.966  0.00  0.00    -0.064 Cl
ATOM      9  C   UNL     1      11.226  14.708   1.645  0.00  0.00    +0.028 A 
BRANCH   3   4
ATOM      4  O   UNL     1       9.156  18.016   0.061  0.00  0.00    -0.326 OA
ATOM      5  H   UNL     1       9.305  18.123  -0.871  0.00  0.00    +0.252 HD
ENDBRANCH   3   4
ENDBRANCH  10   9
TORSDOF 2
