REMARK  Name = 3pj8_ligand
REMARK  10 active torsions:
REMARK  status: ('A' for Active; 'I' for Inactive)
REMARK    1  A    between atoms: C9_9  and  C10_10
REMARK    2  A    between atoms: C10_10  and  C11_11
REMARK    3  A    between atoms: C10_10  and  C12_12
REMARK    4  A    between atoms: N13_13  and  C14_14
REMARK    5  A    between atoms: C14_14  and  C15_15
REMARK    6  A    between atoms: N21_21  and  C22_22
REMARK    7  A    between atoms: C22_22  and  C23_23
REMARK    8  A    between atoms: C22_22  and  C25_25
REMARK    9  A    between atoms: C23_23  and  C24_24
REMARK   10  A    between atoms: C25_25  and  O26_26
REMARK                            x       y       z     vdW  Elec       q    Type
REMARK                         _______ _______ _______ _____ _____    ______ ____
ROOT
ATOM      1  C   UNL     1      11.177  10.310 -11.583  0.00  0.00    +0.113 A 
ATOM      2  N   UNL     1      10.027  11.022 -11.537  0.00  0.00    -0.292 N 
ATOM      3  H   UNL     1       9.846  11.743 -12.249  0.00  0.00    +0.187 HD
ATOM     11  N   UNL     1      11.549   9.502 -10.573  0.00  0.00    -0.242 NA
ATOM     12  C   UNL     1      12.698   8.758 -10.577  0.00  0.00    +0.175 A 
ATOM     13  N   UNL     1      12.893   8.002  -9.465  0.00  0.00    -0.287 N 
ATOM     14  H   UNL     1      12.423   8.304  -8.600  0.00  0.00    +0.186 HD
ATOM     21  N   UNL     1      13.601   8.790 -11.614  0.00  0.00    -0.253 NA
ATOM     22  C   UNL     1      13.319   9.592 -12.689  0.00  0.00    +0.109 A 
ATOM     23  C   UNL     1      14.007   9.883 -13.978  0.00  0.00    +0.160 A 
ATOM     27  N   UNL     1      13.245  10.755 -14.660  0.00  0.00    -0.256 N 
ATOM     28  H   UNL     1      13.470  11.135 -15.591  0.00  0.00    +0.272 HD
ATOM     29  N   UNL     1      12.093  11.073 -13.913  0.00  0.00    -0.397 NA
ATOM     30  C   UNL     1      12.091  10.396 -12.745  0.00  0.00    +0.017 A 
ENDROOT
BRANCH  23  24
ATOM     24  C   UNL     1      15.313   9.250 -14.321  0.00  0.00    +0.120 C 
ATOM     25  C   UNL     1      16.397   9.597 -13.298  0.00  0.00    +0.044 C 
ATOM     26  C   UNL     1      15.158   7.733 -14.478  0.00  0.00    +0.044 C 
ENDBRANCH  23  24
BRANCH   2   4
ATOM      4  C   UNL     1       9.042  10.780 -10.492  0.00  0.00    +0.200 C 
BRANCH   4   5
ATOM      5  C   UNL     1       9.053  11.909  -9.483  0.00  0.00    -0.021 A 
ATOM      6  C   UNL     1       8.757  13.210  -9.878  0.00  0.00    -0.003 A 
ATOM      7  C   UNL     1       8.768  14.241  -8.950  0.00  0.00    -0.009 A 
ATOM      8  C   UNL     1       9.085  13.971  -7.626  0.00  0.00    -0.013 A 
ATOM      9  C   UNL     1       9.386  12.675  -7.227  0.00  0.00    -0.009 A 
ATOM     10  C   UNL     1       9.370  11.645  -8.157  0.00  0.00    -0.003 A 
ENDBRANCH   4   5
ENDBRANCH   2   4
BRANCH  13  15
ATOM     15  CA  UNL     1      13.710   6.802  -9.395  0.00  0.00    +0.123 C 
BRANCH  15  19
ATOM     19  C   UNL     1      15.104   7.157  -8.890  0.00  0.00    +0.027 C 
ATOM     20  C   UNL     1      15.016   8.163  -7.766  0.00  0.00    +0.006 C 
ENDBRANCH  15  19
BRANCH  15  16
ATOM     16  C   UNL     1      13.818   6.099 -10.743  0.00  0.00    +0.183 C 
BRANCH  16  17
ATOM     17  O   UNL     1      15.052   6.497 -11.352  0.00  0.00    -0.393 OA
ATOM     18  H   UNL     1      15.055   7.439 -11.472  0.00  0.00    +0.209 HD
ENDBRANCH  16  17
ENDBRANCH  15  16
ENDBRANCH  13  15
TORSDOF 7
