REMARK  Name = 1wbn_ligand
REMARK  8 active torsions:
REMARK  status: ('A' for Active; 'I' for Inactive)
REMARK    1  A    between atoms: C1_1  and  C2_2
REMARK    2  A    between atoms: C2_2  and  C3_3
REMARK    3  A    between atoms: C2_2  and  C4_4
REMARK    4  A    between atoms: C2_2  and  C5_5
REMARK    5  A    between atoms: N11_11  and  C12_12
REMARK    6  A    between atoms: C17_17  and  C18_18
REMARK    7  A    between atoms: C18_18  and  O19_19
REMARK    8  A    between atoms: O19_19  and  C20_20
REMARK                            x       y       z     vdW  Elec       q    Type
REMARK                         _______ _______ _______ _____ _____    ______ ____
ROOT
ATOM      3  C   UNL     1       6.056  15.764  40.120  0.00  0.00    +0.048 A 
ATOM      4  N   UNL     1       6.294  17.056  39.830  0.00  0.00    -0.207 N 
ATOM      5  H   UNL     1       6.351  17.828  40.509  0.00  0.00    +0.260 HD
ATOM      6  N   UNL     1       6.448  17.166  38.464  0.00  0.00    -0.142 NA
ATOM      7  C   UNL     1       6.310  15.984  37.915  0.00  0.00    +0.182 A 
ATOM      8  N   UNL     1       6.390  15.774  36.502  0.00  0.00    -0.201 N 
ATOM      9  H   UNL     1       6.687  16.554  35.951  0.00  0.00    +0.223 HD
ATOM     10  C   UNL     1       6.100  14.606  35.816  0.00  0.00    +0.314 C 
ATOM     11  N   UNL     1       6.422  14.583  34.477  0.00  0.00    -0.216 N 
ATOM     12  H   UNL     1       6.822  15.423  34.109  0.00  0.00    +0.226 HD
ATOM     28  O   UNL     1       5.561  13.652  36.343  0.00  0.00    -0.382 OA
ATOM     29  C   UNL     1       6.061  15.072  38.934  0.00  0.00    +0.096 A 
ENDROOT
BRANCH  11  13
ATOM     13  C   UNL     1       6.257  13.510  33.547  0.00  0.00    +0.061 A 
ATOM     14  C   UNL     1       5.117  12.609  33.507  0.00  0.00    +0.006 A 
ATOM     15  C   UNL     1       5.054  11.583  32.510  0.00  0.00    -0.013 A 
ATOM     24  C   UNL     1       6.115  11.467  31.539  0.00  0.00    +0.027 A 
ATOM     25 CL   UNL     1       6.129  10.273  30.285  0.00  0.00    -0.091 Cl
ATOM     26  C   UNL     1       7.245  12.361  31.582  0.00  0.00    -0.011 A 
ATOM     27  C   UNL     1       7.300  13.364  32.567  0.00  0.00    -0.003 A 
BRANCH  15  16
ATOM     16  C   UNL     1       3.835  10.657  32.493  0.00  0.00    +0.260 C 
BRANCH  16  17
ATOM     17  O   UNL     1       3.061  10.996  31.323  0.00  0.00    -0.298 OA
BRANCH  17  18
ATOM     18  C   UNL     1       2.059  10.099  30.997  0.00  0.00    +0.122 A 
ATOM     19  C   UNL     1       1.860   8.796  31.614  0.00  0.00    +0.115 A 
ATOM     20  N   UNL     1       0.835   8.004  31.196  0.00  0.00    -0.307 NA
ATOM     21  C   UNL     1      -0.040   8.363  30.204  0.00  0.00    +0.073 A 
ATOM     22  C   UNL     1       0.082   9.605  29.555  0.00  0.00    +0.025 A 
ATOM     23  C   UNL     1       1.146  10.482  29.955  0.00  0.00    +0.053 A 
ENDBRANCH  17  18
ENDBRANCH  16  17
ENDBRANCH  15  16
ENDBRANCH  11  13
BRANCH   3   2
ATOM      1  C   UNL     1       4.614  14.261  41.592  0.00  0.00    -0.061 C 
ATOM      2  C   UNL     1       5.845  15.193  41.534  0.00  0.00    -0.036 C 
ATOM     30  C   UNL     1       7.104  14.352  41.925  0.00  0.00    -0.061 C 
ATOM     31  C   UNL     1       5.674  16.320  42.557  0.00  0.00    -0.061 C 
ENDBRANCH   3   2
TORSDOF 5
