REMARK  Name = DTJ
REMARK  7 active torsions:
REMARK  status: ('A' for Active; 'I' for Inactive)
REMARK    1  A    between atoms: C14_2  and  N13_14
REMARK    2  A    between atoms: C5_3  and  C2_12
REMARK    3  A    between atoms: C11_5  and  C8_7
REMARK    4  A    between atoms: C18_18  and  C22_22
REMARK    5  A    between atoms: C19_19  and  C20_20
REMARK    6  A    between atoms: N30_30  and  C31_31
REMARK    7  A    between atoms: C34_34  and  C37_37
REMARK                            x       y       z     vdW  Elec       q    Type
REMARK                         _______ _______ _______ _____ _____    ______ ____
ROOT
ATOM     18  C   UNL     1     101.907 -46.065  -9.823  0.00  0.00    +0.082 C 
ATOM     19  N   UNL     1     100.946 -45.643  -9.036  0.00  0.00    -0.179 NA
ATOM     20  N   UNL     1     100.166 -44.530  -9.364  0.00  0.00    -0.175 N 
ATOM     21  C   UNL     1      99.124 -44.064  -8.455  0.00  0.00    +0.143 C 
ATOM     22  C   UNL     1     100.368 -43.891 -10.522  0.00  0.00    +0.282 C 
ATOM     23  O   UNL     1      99.688 -42.914 -10.822  0.00  0.00    -0.267 OA
ATOM     24  C   UNL     1     101.389 -44.329 -11.393  0.00  0.00    +0.122 C 
ATOM     25  N   UNL     1     101.519 -43.592 -12.567  0.00  0.00    -0.226 NA
ATOM     40  C   UNL     1     102.167 -45.406 -11.050  0.00  0.00    +0.098 C 
ENDROOT
BRANCH  18  17
ATOM     13  C   UNL     1     103.885 -48.503  -7.714  0.00  0.00    +0.072 A 
ATOM     14  C   UNL     1     103.163 -47.376  -8.094  0.00  0.00    +0.027 A 
ATOM     17  C   UNL     1     102.687 -47.251  -9.407  0.00  0.00    +0.015 A 
ATOM     41  C   UNL     1     102.903 -48.286 -10.317  0.00  0.00    +0.001 A 
ATOM     42  C   UNL     1     103.620 -49.400  -9.927  0.00  0.00    +0.001 A 
ATOM     43  C   UNL     1     104.111 -49.503  -8.641  0.00  0.00    +0.016 A 
BRANCH  13  12
ATOM     10  C   UNL     1     103.696 -49.157  -5.371  0.00  0.00    +0.269 C 
ATOM     11  O   UNL     1     102.635 -49.746  -5.578  0.00  0.00    -0.268 OA
ATOM     12  N   UNL     1     104.369 -48.558  -6.386  0.00  0.00    -0.176 NA
BRANCH  10   8
ATOM      5  C   UNL     1     105.379 -49.026  -1.415  0.00  0.00    -0.023 A 
ATOM      6  C   UNL     1     104.432 -49.998  -1.734  0.00  0.00    -0.004 A 
ATOM      7  C   UNL     1     103.873 -50.039  -3.010  0.00  0.00    +0.004 A 
ATOM      8  C   UNL     1     104.275 -49.123  -3.996  0.00  0.00    +0.055 A 
ATOM      9  C   UNL     1     105.241 -48.154  -3.664  0.00  0.00    +0.004 A 
ATOM     44  C   UNL     1     105.782 -48.115  -2.385  0.00  0.00    -0.004 A 
BRANCH   5   2
ATOM      1  C   UNL     1     105.363 -50.041   0.853  0.00  0.00    +0.004 C 
ATOM      2  C   UNL     1     105.999 -48.972  -0.039  0.00  0.00    +0.019 C 
ATOM      3  C   UNL     1     105.826 -47.584   0.585  0.00  0.00    +0.004 C 
ATOM      4  C   UNL     1     107.488 -49.291  -0.124  0.00  0.00    +0.004 C 
ENDBRANCH   5   2
ENDBRANCH  10   8
ENDBRANCH  13  12
BRANCH  14  15
ATOM     15  C   UNL     1     102.976 -46.266  -7.086  0.00  0.00    +0.210 C 
ATOM     16  O   UNL     1     101.977 -46.546  -6.119  0.00  0.00    -0.215 OA
ENDBRANCH  14  15
ENDBRANCH  18  17
BRANCH  25  26
ATOM     26  C   UNL     1     102.382 -43.796 -13.625  0.00  0.00    +0.162 A 
ATOM     27  N   UNL     1     103.391 -44.663 -13.593  0.00  0.00    -0.225 NA
ATOM     28  C   UNL     1     104.202 -44.811 -14.632  0.00  0.00    +0.105 A 
ATOM     29  C   UNL     1     103.997 -44.039 -15.785  0.00  0.00    +0.073 A 
ATOM     30  C   UNL     1     102.926 -43.133 -15.835  0.00  0.00    +0.009 A 
ATOM     39  C   UNL     1     102.127 -43.011 -14.744  0.00  0.00    +0.039 A 
BRANCH  29  31
ATOM     31  C   UNL     1     104.860 -44.176 -16.969  0.00  0.00    +0.251 C 
ATOM     32  O   UNL     1     105.050 -45.288 -17.407  0.00  0.00    -0.270 OA
ATOM     33  N   UNL     1     105.419 -43.101 -17.571  0.00  0.00    -0.271 N 
ATOM     34  C   UNL     1     105.231 -41.724 -17.076  0.00  0.00    +0.126 C 
ATOM     35  C   UNL     1     106.093 -40.791 -17.931  0.00  0.00    +0.164 C 
ATOM     36  O   UNL     1     105.688 -40.937 -19.293  0.00  0.00    -0.350 OA
ATOM     37  C   UNL     1     105.754 -42.270 -19.821  0.00  0.00    +0.164 C 
ATOM     38  C   UNL     1     106.271 -43.255 -18.760  0.00  0.00    +0.126 C 
ENDBRANCH  29  31
ENDBRANCH  25  26
TORSDOF 7
