REMARK  Name = 2wti_ligand
REMARK  3 active torsions:
REMARK  status: ('A' for Active; 'I' for Inactive)
REMARK    1  A    between atoms: C02_2  and  C04_4
REMARK    2  A    between atoms: C07_7  and  C08_8
REMARK    3  A    between atoms: C10_10  and  C11_11
REMARK                            x       y       z     vdW  Elec       q    Type
REMARK                         _______ _______ _______ _____ _____    ______ ____
ROOT
ATOM      9  C   UNL     1     -47.738  15.187  -7.619  0.00  0.00    +0.017 A 
ATOM     10  C   UNL     1     -48.663  14.441  -6.753  0.00  0.00    +0.107 A 
ATOM     11  N   UNL     1     -49.233  13.165  -7.167  0.00  0.00    -0.327 N 
ATOM     12  H   UNL     1     -48.990  12.766  -8.085  0.00  0.00    +0.176 HD
ATOM     13  H   UNL     1     -49.879  12.662  -6.542  0.00  0.00    +0.176 HD
ATOM     14  N   UNL     1     -49.042  14.969  -5.486  0.00  0.00    -0.298 NA
ATOM     15  C   UNL     1     -48.537  16.238  -5.050  0.00  0.00    +0.057 A 
ATOM     16  C   UNL     1     -47.629  16.976  -5.909  0.00  0.00    -0.011 A 
ATOM     26  C   UNL     1     -47.244  16.457  -7.192  0.00  0.00    +0.008 A 
ENDROOT
BRANCH  16  17
ATOM     17  C   UNL     1     -47.120  18.210  -5.466  0.00  0.00    +0.040 C 
ATOM     18  C   UNL     1     -47.442  18.879  -4.160  0.00  0.00    +0.211 C 
ATOM     19  O   UNL     1     -48.324  18.531  -3.095  0.00  0.00    -0.356 OA
ATOM     20  C   UNL     1     -48.026  19.228  -1.863  0.00  0.00    +0.192 C 
ATOM     21  C   UNL     1     -47.817  20.753  -2.064  0.00  0.00    +0.189 C 
ATOM     22  O   UNL     1     -46.678  21.080  -2.901  0.00  0.00    -0.368 OA
ATOM     23  C   UNL     1     -46.568  20.254  -4.068  0.00  0.00    +0.174 C 
ATOM     24  C   UNL     1     -45.723  20.372  -5.361  0.00  0.00    +0.129 C 
ATOM     25  S   UNL     1     -46.026  19.125  -6.259  0.00  0.00    -0.094 S 
ENDBRANCH  16  17
BRANCH   9   8
ATOM      5  C   UNL     1     -46.549  13.889 -11.536  0.00  0.00    +0.048 A 
ATOM      6  C   UNL     1     -47.610  13.179 -10.863  0.00  0.00    +0.023 A 
ATOM      7  C   UNL     1     -48.006  13.586  -9.531  0.00  0.00    +0.011 A 
ATOM      8  C   UNL     1     -47.337  14.716  -8.881  0.00  0.00    -0.016 A 
ATOM     27  C   UNL     1     -46.270  15.425  -9.564  0.00  0.00    +0.011 A 
ATOM     28  C   UNL     1     -45.880  15.024 -10.891  0.00  0.00    +0.023 A 
BRANCH   5   4
ATOM      1  N   UNL     1     -45.148  14.320 -13.652  0.00  0.00    -0.300 N 
ATOM      2  H   UNL     1     -44.830  14.061 -14.564  0.00  0.00    +0.181 HD
ATOM      3  H   UNL     1     -44.808  15.157 -13.223  0.00  0.00    +0.181 HD
ATOM      4  C   UNL     1     -46.106  13.479 -12.948  0.00  0.00    +0.201 C 
ATOM     29  O   UNL     1     -46.517  12.483 -13.447  0.00  0.00    -0.386 OA
ENDBRANCH   5   4
ENDBRANCH   9   8
TORSDOF 3
