REMARK  Name = 9K6
REMARK  2 active torsions:
REMARK  status: ('A' for Active; 'I' for Inactive)
REMARK    1  A    between atoms: C6_1  and  S_9
REMARK    2  A    between atoms: S_9  and  N_11
REMARK                            x       y       z     vdW  Elec       q    Type
REMARK                         _______ _______ _______ _____ _____    ______ ____
ROOT
ATOM      2  S   UNL     1     -13.393 -25.598  27.268  0.00  0.00    +0.063 S 
ATOM      3  O   UNL     1     -14.057 -25.983  28.471  0.00  0.00    -0.153 OA
ATOM     12  O   UNL     1     -12.808 -26.591  26.426  0.00  0.00    -0.153 OA
ENDROOT
BRANCH   2   1
ATOM      1  C   UNL     1     -14.545 -24.670  26.302  0.00  0.00    +0.122 A 
ATOM     13  C   UNL     1     -14.490 -23.305  26.402  0.00  0.00    +0.020 A 
ATOM     14  C   UNL     1     -15.345 -22.512  25.651  0.00  0.00    +0.001 A 
ATOM     15  C   UNL     1     -16.239 -23.074  24.779  0.00  0.00    +0.002 A 
ATOM     16  C   UNL     1     -16.317 -24.482  24.634  0.00  0.00    +0.021 A 
ATOM     17  C   UNL     1     -17.185 -25.123  23.721  0.00  0.00    +0.099 A 
ATOM     18  N   UNL     1     -17.264 -26.437  23.568  0.00  0.00    -0.242 NA
ATOM     19  C   UNL     1     -16.484 -27.200  24.348  0.00  0.00    +0.099 A 
ATOM     20  C   UNL     1     -15.609 -26.709  25.271  0.00  0.00    +0.022 A 
ATOM     21  C   UNL     1     -15.480 -25.313  25.425  0.00  0.00    +0.022 A 
ENDBRANCH   2   1
BRANCH   2   4
ATOM      4  N   UNL     1     -12.192 -24.582  27.671  0.00  0.00    -0.155 NA
ATOM      5  C   UNL     1     -12.296 -23.738  28.879  0.00  0.00    +0.097 C 
ATOM      6  C   UNL     1     -11.534 -24.306  30.059  0.00  0.00    +0.038 C 
ATOM      7  C   UNL     1     -10.042 -24.109  29.971  0.00  0.00    +0.090 C 
ATOM      8  N   UNL     1      -9.406 -24.682  28.768  0.00  0.00    -0.217 NA
ATOM      9  C   UNL     1      -9.751 -23.975  27.536  0.00  0.00    +0.106 C 
ATOM     10  C   UNL     1     -10.997 -24.430  26.798  0.00  0.00    +0.097 C 
ATOM     11  C   UNL     1     -11.250 -23.468  25.651  0.00  0.00    +0.021 C 
ENDBRANCH   2   4
TORSDOF 2
