REMARK  Name = 1ke7_ligand
REMARK  3 active torsions:
REMARK  status: ('A' for Active; 'I' for Inactive)
REMARK    1  A    between atoms: C11_7  and  C12_8
REMARK    2  A    between atoms: C20_16  and  N21_17
REMARK    3  A    between atoms: N21_17  and  C22_18
REMARK                            x       y       z     vdW  Elec       q    Type
REMARK                         _______ _______ _______ _____ _____    ______ ____
ROOT
ATOM      1  O   UNL     1     -10.910  52.353  11.763  0.00  0.00    -0.398 OA
ATOM      2  C   UNL     1     -10.187  51.869  12.620  0.00  0.00    +0.201 C 
ATOM      3  N   UNL     1      -9.642  52.527  13.699  0.00  0.00    -0.243 N 
ATOM      4  H   UNL     1      -9.825  53.480  13.941  0.00  0.00    +0.224 HD
ATOM      5  C   UNL     1      -8.813  51.686  14.393  0.00  0.00    +0.063 A 
ATOM      6  C   UNL     1      -7.997  51.908  15.613  0.00  0.00    +0.001 A 
ATOM      7  C   UNL     1      -7.134  50.793  16.109  0.00  0.00    -0.021 A 
ATOM      8  C   UNL     1      -7.015  49.494  15.355  0.00  0.00    -0.009 A 
ATOM     14  C   UNL     1      -7.873  49.331  14.139  0.00  0.00    -0.020 A 
ATOM     15  C   UNL     1      -8.792  50.406  13.706  0.00  0.00    -0.012 A 
ATOM     16  C   UNL     1      -9.753  50.438  12.623  0.00  0.00    +0.059 C 
ATOM     17  C   UNL     1     -10.173  49.412  11.846  0.00  0.00    +0.178 C 
ENDROOT
BRANCH   8   9
ATOM      9  C   UNL     1      -6.139  48.427  15.820  0.00  0.00    +0.131 A 
ATOM     10  O   UNL     1      -5.834  48.223  17.142  0.00  0.00    -0.232 OA
ATOM     11  C   UNL     1      -5.182  47.017  17.181  0.00  0.00    +0.299 A 
ATOM     12  N   UNL     1      -4.876  46.575  15.941  0.00  0.00    -0.308 NA
ATOM     13  C   UNL     1      -5.464  47.414  15.061  0.00  0.00    +0.053 A 
ENDBRANCH   8   9
BRANCH  17  18
ATOM     18  N   UNL     1     -10.942  49.382  10.582  0.00  0.00    -0.265 N 
ATOM     19  H   UNL     1     -11.385  50.262  10.281  0.00  0.00    +0.224 HD
BRANCH  18  20
ATOM     20  C   UNL     1     -11.117  48.283   9.773  0.00  0.00    +0.057 A 
ATOM     21  C   UNL     1     -10.010  47.344   9.394  0.00  0.00    +0.007 A 
ATOM     22  C   UNL     1     -10.297  46.197   8.533  0.00  0.00    -0.026 A 
ATOM     23  C   UNL     1      -9.336  45.163   8.091  0.00  0.00    +0.226 C 
ATOM     24  S   UNL     1      -9.921  44.450   6.562  0.00  0.00    -0.015 S 
ATOM     25  O   UNL     1      -9.684  43.032   6.511  0.00  0.00    -0.171 OA
ATOM     26  O   UNL     1      -9.457  45.308   5.509  0.00  0.00    -0.171 OA
ATOM     27  C   UNL     1     -11.631  44.871   6.985  0.00  0.00    +0.220 C 
ATOM     28  C   UNL     1     -11.638  45.995   7.968  0.00  0.00    -0.029 A 
ATOM     29  C   UNL     1     -12.762  46.882   8.351  0.00  0.00    -0.022 A 
ATOM     30  C   UNL     1     -12.488  48.036   9.241  0.00  0.00    -0.002 A 
ENDBRANCH  18  20
ENDBRANCH  17  18
TORSDOF 3
