REMARK  Name = 3F2R
REMARK  9 active torsions:
REMARK  status: ('A' for Active; 'I' for Inactive)
REMARK    1  A    between atoms: N_2  and  C_3
REMARK    2  A    between atoms: N_2  and  C_4
REMARK    3  A    between atoms: C_8  and  O_9
REMARK    4  A    between atoms: C_8  and  C_10
REMARK    5  A    between atoms: C_15  and  C_16
REMARK    6  A    between atoms: C_21  and  C_22
REMARK    7  A    between atoms: C_22  and  O_23
REMARK    8  A    between atoms: N_28  and  C_29
REMARK    9  A    between atoms: N_28  and  C_30
REMARK                            x       y       z     vdW  Elec       q    Type
REMARK                         _______ _______ _______ _____ _____    ______ ____
ROOT
ATOM      3  C   UNL     1     -11.185 -14.854   5.849  0.00  0.00    +0.016 A 
ATOM      4  C   UNL     1     -12.370 -14.594   6.542  0.00  0.00    +0.010 A 
ATOM      5  C   UNL     1     -12.835 -15.446   7.556  0.00  0.00    +0.009 A 
ATOM      6  C   UNL     1     -12.120 -16.612   7.893  0.00  0.00    -0.018 A 
ATOM     23  C   UNL     1     -10.935 -16.853   7.203  0.00  0.00    +0.009 A 
ATOM     24  C   UNL     1     -10.474 -16.000   6.198  0.00  0.00    +0.010 A 
ENDROOT
BRANCH   3   2
ATOM      1  C   UNL     1      -9.628 -12.869   5.334  0.00  0.00    +0.204 C 
ATOM      2  C   UNL     1     -10.639 -13.891   4.716  0.00  0.00    +0.236 C 
ATOM     27  O   UNL     1     -10.024 -14.687   3.691  0.00  0.00    -0.336 OA
ATOM     28  C   UNL     1      -9.316 -13.944   2.638  0.00  0.00    +0.214 C 
ATOM     29  C   UNL     1      -8.266 -13.089   3.348  0.00  0.00    +0.161 C 
ATOM     30  N   UNL     1      -8.921 -12.139   4.261  0.00  0.00    +0.245 N 
ATOM     31  C   UNL     1      -7.888 -11.310   4.891  0.00  0.00    +0.192 C 
ATOM     32  C   UNL     1      -9.848 -11.296   3.449  0.00  0.00    +0.192 C 
BRANCH   2  25
ATOM     25  O   UNL     1     -11.684 -13.135   4.070  0.00  0.00    -0.357 OA
ATOM     26  H   UNL     1     -12.166 -12.527   4.778  0.00  0.00    +0.213 HD
ENDBRANCH   2  25
ENDBRANCH   3   2
BRANCH   6   7
ATOM      7  C   UNL     1     -12.561 -17.470   8.934  0.00  0.00    -0.018 A 
ATOM      8  C   UNL     1     -13.895 -17.510   9.321  0.00  0.00    +0.009 A 
ATOM      9  C   UNL     1     -14.328 -18.328  10.365  0.00  0.00    +0.010 A 
ATOM     10  C   UNL     1     -13.439 -19.135  11.090  0.00  0.00    +0.016 A 
ATOM     21  C   UNL     1     -12.091 -19.097  10.738  0.00  0.00    +0.010 A 
ATOM     22  C   UNL     1     -11.675 -18.267   9.678  0.00  0.00    +0.009 A 
BRANCH  10  11
ATOM     11  C   UNL     1     -13.934 -20.018  12.259  0.00  0.00    +0.236 C 
ATOM     12  O   UNL     1     -13.009 -19.872  13.322  0.00  0.00    -0.336 OA
ATOM     13  C   UNL     1     -13.379 -20.704  14.453  0.00  0.00    +0.214 C 
ATOM     14  C   UNL     1     -13.431 -22.180  14.032  0.00  0.00    +0.161 C 
ATOM     15  N   UNL     1     -14.470 -22.340  13.011  0.00  0.00    +0.245 N 
ATOM     16  C   UNL     1     -14.528 -23.763  12.626  0.00  0.00    +0.192 C 
ATOM     17  C   UNL     1     -15.803 -21.954  13.562  0.00  0.00    +0.192 C 
ATOM     18  C   UNL     1     -14.071 -21.494  11.854  0.00  0.00    +0.204 C 
BRANCH  11  19
ATOM     19  O   UNL     1     -15.170 -19.581  12.815  0.00  0.00    -0.357 OA
ATOM     20  H   UNL     1     -15.063 -18.603  13.183  0.00  0.00    +0.213 HD
ENDBRANCH  11  19
ENDBRANCH  10  11
ENDBRANCH   6   7
TORSDOF 5
