REMARK  Name = 4MLE
REMARK  5 active torsions:
REMARK  status: ('A' for Active; 'I' for Inactive)
REMARK    1  A    between atoms: C_3  and  C_6
REMARK    2  A    between atoms: N_7  and  C_8
REMARK    3  A    between atoms: C_13  and  O_14
REMARK    4  A    between atoms: O_14  and  C_15
REMARK    5  A    between atoms: C_15  and  C_16
REMARK                            x       y       z     vdW  Elec       q    Type
REMARK                         _______ _______ _______ _____ _____    ______ ____
ROOT
ATOM      3  C   UNL     1      39.641  15.695  62.502  0.00  0.00    +0.198 A 
ATOM      4  C   UNL     1      40.832  15.004  62.738  0.00  0.00    +0.165 A 
ATOM     13  C   UNL     1      41.232  14.777  64.047  0.00  0.00    +0.051 A 
ATOM     14  C   UNL     1      40.430  15.247  65.085  0.00  0.00    +0.023 A 
ATOM     15  C   UNL     1      39.250  15.922  64.780  0.00  0.00    +0.113 A 
ATOM     16  N   UNL     1      38.858  16.143  63.506  0.00  0.00    -0.233 NA
ENDROOT
BRANCH   3   2
ATOM      1  C   UNL     1      38.092  16.542  60.769  0.00  0.00    +0.191 C 
ATOM      2  N   UNL     1      39.219  15.946  61.206  0.00  0.00    -0.199 NA
ATOM     17  S   UNL     1      36.823  17.117  61.759  0.00  0.00    -0.080 S 
ATOM     18  C   UNL     1      35.949  17.640  60.366  0.00  0.00    +0.128 C 
ATOM     19  C   UNL     1      36.665  17.357  59.223  0.00  0.00    +0.029 C 
ATOM     20  C   UNL     1      36.258  17.652  57.827  0.00  0.00    +0.062 C 
ATOM     21  N   UNL     1      37.875  16.735  59.442  0.00  0.00    -0.231 NA
ENDBRANCH   3   2
BRANCH   4   5
ATOM      5  O   UNL     1      41.598  14.552  61.690  0.00  0.00    -0.484 OA
BRANCH   5   6
ATOM      6  C   UNL     1      42.859  13.982  62.085  0.00  0.00    +0.264 C 
BRANCH   6   7
ATOM      7  C   UNL     1      42.776  12.472  62.152  0.00  0.00    -0.010 A 
ATOM      8  C   UNL     1      41.552  11.840  62.408  0.00  0.00    +0.007 A 
ATOM      9  C   UNL     1      41.485  10.443  62.476  0.00  0.00    +0.000 A 
ATOM     10  C   UNL     1      42.639   9.674  62.292  0.00  0.00    +0.000 A 
ATOM     11  C   UNL     1      43.865  10.298  62.035  0.00  0.00    +0.000 A 
ATOM     12  C   UNL     1      43.935  11.695  61.966  0.00  0.00    +0.007 A 
ENDBRANCH   6   7
ENDBRANCH   5   6
ENDBRANCH   4   5
TORSDOF 4
