REMARK  Name = 6Q4A
REMARK  0 active torsions:
REMARK  status: ('A' for Active; 'I' for Inactive)
REMARK                            x       y       z     vdW  Elec       q    Type
REMARK                         _______ _______ _______ _____ _____    ______ ____
ROOT
ATOM      1  C   UNL     1       0.738  -3.624 -28.691  0.00  0.00    +0.250 A 
ATOM      2  C   UNL     1      -0.029  -4.456 -27.888  0.00  0.00    +0.000 A 
ATOM      3  C   UNL     1       0.163  -5.818 -28.063  0.00  0.00    +0.250 A 
ATOM      4  N   UNL     1       1.075  -6.326 -28.926  0.00  0.00    -0.760 NA
ATOM      5  C   UNL     1       1.834  -5.474 -29.602  0.00  0.00    +0.630 A 
ATOM      6  I   UNL     1      -1.459  -3.716 -26.528  0.00  0.00    +0.000 I 
ATOM      7  N   UNL     1       1.680  -4.143 -29.555  0.00  0.00    -0.760 NA
ENDROOT
TORSDOF 0
