REMARK  Name = 2a5u_ligand
REMARK  1 active torsions:
REMARK  status: ('A' for Active; 'I' for Inactive)
REMARK    1  A    between atoms: C3_3  and  C5_11
REMARK                            x       y       z     vdW  Elec       q    Type
REMARK                         _______ _______ _______ _____ _____    ______ ____
ROOT
ATOM      1  C   UNL     1      43.677  12.642  29.722  0.00  0.00    +0.037 A 
ATOM      2  C   UNL     1      44.961  13.078  29.665  0.00  0.00    +0.074 A 
ATOM      3  N   UNL     1      45.898  12.473  28.812  0.00  0.00    -0.271 NA
ATOM      4  C   UNL     1      47.130  12.887  28.766  0.00  0.00    +0.136 A 
ATOM      5  C   UNL     1      47.587  14.028  29.618  0.00  0.00    +0.136 A 
ATOM      6  N   UNL     1      46.762  14.619  30.419  0.00  0.00    -0.272 NA
ATOM      7  C   UNL     1      45.417  14.209  30.513  0.00  0.00    +0.072 A 
ATOM      8  C   UNL     1      44.562  14.814  31.368  0.00  0.00    +0.037 A 
ATOM      9  C   UNL     1      43.145  14.346  31.472  0.00  0.00    -0.017 A 
ATOM     19  C   UNL     1      42.736  13.297  30.661  0.00  0.00    +0.023 A 
ENDROOT
BRANCH   9  10
ATOM     10  C   UNL     1      42.243  15.040  32.481  0.00  0.00    +0.037 C 
ATOM     11  C   UNL     1      40.935  14.799  32.717  0.00  0.00    +0.125 C 
ATOM     12  S   UNL     1      39.803  13.908  31.691  0.00  0.00    +0.049 S 
ATOM     13  C   UNL     1      38.488  14.147  32.776  0.00  0.00    +0.284 C 
ATOM     14  O   UNL     1      37.343  13.713  32.567  0.00  0.00    -0.370 OA
ATOM     15  N   UNL     1      38.861  14.891  33.923  0.00  0.00    -0.186 N 
ATOM     16  H   UNL     1      38.232  15.128  34.663  0.00  0.00    +0.226 HD
ATOM     17  C   UNL     1      40.238  15.263  33.900  0.00  0.00    +0.251 C 
ATOM     18  O   UNL     1      40.772  15.916  34.802  0.00  0.00    -0.370 OA
ENDBRANCH   9  10
TORSDOF 1
