REMARK  Name = 4aua_ligand
REMARK  2 active torsions:
REMARK  status: ('A' for Active; 'I' for Inactive)
REMARK    1  A    between atoms: C8_7  and  C10_9
REMARK    2  A    between atoms: C10_9  and  C11_10
REMARK                            x       y       z     vdW  Elec       q    Type
REMARK                         _______ _______ _______ _____ _____    ______ ____
ROOT
ATOM      1  C   UNL     1      19.744  36.715 -11.476  0.00  0.00    -0.021 A 
ATOM      2  C   UNL     1      20.024  35.881 -12.542  0.00  0.00    -0.017 A 
ATOM      3  C   UNL     1      21.018  34.928 -12.445  0.00  0.00    +0.018 A 
ATOM      4  C   UNL     1      21.723  34.827 -11.259  0.00  0.00    +0.087 A 
ATOM      5  N   UNL     1      22.730  33.991 -10.873  0.00  0.00    -0.240 N 
ATOM      6  H   UNL     1      23.167  33.256 -11.447  0.00  0.00    +0.234 HD
ATOM      7  C   UNL     1      23.051  34.311  -9.583  0.00  0.00    +0.200 A 
ATOM     16  N   UNL     1      22.287  35.335  -9.104  0.00  0.00    -0.286 NA
ATOM     17  C   UNL     1      21.440  35.651 -10.181  0.00  0.00    +0.042 A 
ATOM     18  C   UNL     1      20.440  36.603 -10.284  0.00  0.00    -0.001 A 
ENDROOT
BRANCH   7   8
ATOM      8  C   UNL     1      24.119  33.600  -8.879  0.00  0.00    +0.227 C 
ATOM      9  O   UNL     1      24.745  32.769  -9.496  0.00  0.00    -0.360 OA
BRANCH   8  10
ATOM     10  C   UNL     1      24.402  33.903  -7.464  0.00  0.00    +0.116 A 
ATOM     11  N   UNL     1      25.455  33.280  -6.838  0.00  0.00    -0.279 N 
ATOM     12  H   UNL     1      26.093  32.601  -7.276  0.00  0.00    +0.236 HD
ATOM     13  C   UNL     1      25.519  33.702  -5.551  0.00  0.00    +0.111 A 
ATOM     14  C   UNL     1      24.483  34.616  -5.333  0.00  0.00    -0.042 A 
ATOM     15  C   UNL     1      23.788  34.740  -6.531  0.00  0.00    -0.024 A 
ENDBRANCH   8  10
ENDBRANCH   7   8
TORSDOF 2
