REMARK  Name = K82
REMARK  16 active torsions:
REMARK  status: ('A' for Active; 'I' for Inactive)
REMARK    1  A    between atoms: C6_4  and  C7_5
REMARK    2  A    between atoms: C3_9  and  O_10
REMARK    3  A    between atoms: O_10  and  C2_11
REMARK    4  A    between atoms: C2_11  and  C1_12
REMARK    5  A    between atoms: C6_17  and  C7_18
REMARK    6  A    between atoms: C3_22  and  O_23
REMARK    7  A    between atoms: O_23  and  C2_24
REMARK    8  A    between atoms: C2_24  and  C1_25
REMARK    9  A    between atoms: C6_30  and  C7_31
REMARK   10  A    between atoms: C3_35  and  O_36
REMARK   11  A    between atoms: O_36  and  C2_37
REMARK   12  A    between atoms: C2_37  and  C1_38
REMARK   13  A    between atoms: C6_43  and  C7_44
REMARK   14  A    between atoms: C3_48  and  O_49
REMARK   15  A    between atoms: O_49  and  C2_50
REMARK   16  A    between atoms: C2_50  and  C1_51
REMARK                            x       y       z     vdW  Elec       q    Type
REMARK                         _______ _______ _______ _____ _____    ______ ____
ROOT
ATOM      1 CL   UNL     1      34.864 151.706 366.927  0.00  0.00    -0.079 Cl
ATOM      2  C   UNL     1      34.249 150.333 367.785  0.00  0.00    +0.091 A 
ATOM      3  C   UNL     1      33.889 150.462 369.120  0.00  0.00    +0.149 A 
ATOM      4  C   UNL     1      33.399 149.352 369.788  0.00  0.00    +0.037 A 
ATOM      5  C   UNL     1      33.275 148.145 369.124  0.00  0.00    +0.000 A 
ATOM      6  C   UNL     1      33.633 148.013 367.790  0.00  0.00    -0.002 A 
ATOM     13  C   UNL     1      34.125 149.127 367.125  0.00  0.00    +0.012 A 
ENDROOT
BRANCH   6   7
ATOM      7  C   UNL     1      33.495 146.713 367.057  0.00  0.00    +0.136 C 
ATOM      8  N   UNL     1      34.718 145.932 367.252  0.00  0.00    -0.126 NA
ENDBRANCH   6   7
BRANCH   3   9
ATOM      9  O   UNL     1      34.042 151.704 369.673  0.00  0.00    -0.475 OA
BRANCH   9  10
ATOM     10  C   UNL     1      33.987 151.816 371.102  0.00  0.00    +0.205 C 
BRANCH  10  11
ATOM     11  C   UNL     1      33.541 153.201 371.469  0.00  0.00    +0.047 C 
ATOM     12  C   UNL     1      33.584 153.453 372.953  0.00  0.00    +0.004 C 
ENDBRANCH  10  11
ENDBRANCH   9  10
ENDBRANCH   3   9
TORSDOF 4
