REMARK  Name = A8N8
REMARK  1 active torsions:
REMARK  status: ('A' for Active; 'I' for Inactive)
REMARK    1  A    between atoms: C4_1  and  C3_6
REMARK                            x       y       z     vdW  Elec       q    Type
REMARK                         _______ _______ _______ _____ _____    ______ ____
ROOT
ATOM      4  C   UNL     1     -71.201 120.472  -3.166  0.00  0.00    +0.116 A 
ATOM      5  C   UNL     1     -71.711 121.554  -3.846  0.00  0.00    +0.054 A 
ATOM      6 BR   UNL     1     -72.158 123.225  -3.081  0.00  0.00    -0.048 Br
ATOM      7  C   UNL     1     -71.902 121.300  -5.211  0.00  0.00    +0.048 A 
ATOM      8  C   UNL     1     -71.554 120.059  -5.608  0.00  0.00    +0.043 A 
ATOM      9 BR   UNL     1     -72.628 122.554  -6.399  0.00  0.00    -0.048 Br
ATOM     10  S   UNL     1     -70.970 119.153  -4.270  0.00  0.00    -0.079 S 
ENDROOT
BRANCH   4   1
ATOM      1  C   UNL     1     -70.861 120.286  -1.688  0.00  0.00    +0.394 C 
ATOM      2  O   UNL     1     -70.924 121.288  -0.939  0.00  0.00    -0.240 OA
ATOM      3  O   UNL     1     -70.544 119.125  -1.326  0.00  0.00    -0.240 OA
ENDBRANCH   4   1
TORSDOF 1
