REMARK  Name = P4G
REMARK  8 active torsions:
REMARK  status: ('A' for Active; 'I' for Inactive)
REMARK    1  A    between atoms: C7_2  and  O4_3
REMARK    2  A    between atoms: O4_3  and  C6_4
REMARK    3  A    between atoms: C6_4  and  C5_5
REMARK    4  A    between atoms: C5_5  and  O3_6
REMARK    5  A    between atoms: O3_6  and  C4_7
REMARK    6  A    between atoms: C4_7  and  C3_8
REMARK    7  A    between atoms: C3_8  and  O2_9
REMARK    8  A    between atoms: O2_9  and  C2_10
REMARK                            x       y       z     vdW  Elec       q    Type
REMARK                         _______ _______ _______ _____ _____    ______ ____
ROOT
ATOM      6  O   UNL     1      63.557 -16.906  16.379  0.00  0.00    -0.348 OA
ENDROOT
BRANCH   6   5
ATOM      5  C   UNL     1      63.617 -16.877  17.768  0.00  0.00    +0.174 C 
BRANCH   5   4
ATOM      4  C   UNL     1      64.761 -15.999  18.219  0.00  0.00    +0.174 C 
BRANCH   4   3
ATOM      3  O   UNL     1      65.987 -16.701  18.082  0.00  0.00    -0.351 OA
BRANCH   3   2
ATOM      1  C   UNL     1      68.367 -16.613  17.806  0.00  0.00    +0.035 C 
ATOM      2  C   UNL     1      67.029 -15.924  17.549  0.00  0.00    +0.142 C 
ENDBRANCH   3   2
ENDBRANCH   4   3
ENDBRANCH   5   4
ENDBRANCH   6   5
BRANCH   6   7
ATOM      7  C   UNL     1      62.250 -16.967  15.872  0.00  0.00    +0.174 C 
BRANCH   7   8
ATOM      8  C   UNL     1      62.278 -16.901  14.365  0.00  0.00    +0.174 C 
BRANCH   8   9
ATOM      9  O   UNL     1      63.328 -15.999  13.938  0.00  0.00    -0.351 OA
BRANCH   9  10
ATOM     10  C   UNL     1      63.534 -15.963  12.502  0.00  0.00    +0.142 C 
ATOM     11  C   UNL     1      64.560 -14.851  12.153  0.00  0.00    +0.035 C 
ENDBRANCH   9  10
ENDBRANCH   8   9
ENDBRANCH   7   8
ENDBRANCH   6   7
TORSDOF 8
