REMARK  Name = 4QMX
REMARK  8 active torsions:
REMARK  status: ('A' for Active; 'I' for Inactive)
REMARK    1  A    between atoms: C_1  and  N_2
REMARK    2  A    between atoms: N_5  and  C_6
REMARK    3  A    between atoms: C_6  and  C_7
REMARK    4  A    between atoms: C_7  and  O_8
REMARK    5  A    between atoms: O_8  and  C_9
REMARK    6  A    between atoms: C_11  and  O_12
REMARK    7  A    between atoms: O_12  and  C_13
REMARK    8  A    between atoms: N_21  and  C_22
REMARK                            x       y       z     vdW  Elec       q    Type
REMARK                         _______ _______ _______ _____ _____    ______ ____
ROOT
ATOM      9  C   UNL     1      19.902   8.153  71.399  0.00  0.00    +0.126 A 
ATOM     10  C   UNL     1      20.300   9.409  70.943  0.00  0.00    +0.074 A 
ATOM     11  C   UNL     1      21.459  10.025  71.490  0.00  0.00    +0.083 A 
ATOM     12  N   UNL     1      21.837  11.219  71.036  0.00  0.00    -0.235 NA
ATOM     13  C   UNL     1      22.936  11.827  71.536  0.00  0.00    +0.224 A 
ATOM     14  N   UNL     1      23.686  11.275  72.486  0.00  0.00    -0.220 NA
ATOM     15  C   UNL     1      23.397  10.069  73.008  0.00  0.00    +0.134 A 
ATOM     16  N   UNL     1      24.260   9.504  74.060  0.00  0.00    -0.316 N 
ATOM     17  H   UNL     1      24.749   8.670  73.602  0.00  0.00    +0.148 HD
ATOM     28  C   UNL     1      22.235   9.363  72.518  0.00  0.00    +0.082 A 
ATOM     29  C   UNL     1      21.812   8.067  72.969  0.00  0.00    +0.137 A 
ATOM     37  C   UNL     1      20.641   7.502  72.409  0.00  0.00    +0.092 A 
ENDROOT
BRANCH  16  18
ATOM     18  C   UNL     1      25.301  10.204  74.778  0.00  0.00    +0.115 C 
ATOM     19  C   UNL     1      26.612   9.783  74.646  0.00  0.00    +0.096 C 
ATOM     20 CL   UNL     1      26.975   8.477  73.590  0.00  0.00    -0.114 Cl
ATOM     21  C   UNL     1      27.623  10.402  75.329  0.00  0.00    +0.025 C 
ATOM     22  C   UNL     1      27.330  11.450  76.163  0.00  0.00    +0.039 C 
ATOM     23  C   UNL     1      26.014  11.867  76.325  0.00  0.00    +0.142 C 
ATOM     24  O   UNL     1      25.481  12.865  77.084  0.00  0.00    -0.334 OA
ATOM     25  C   UNL     1      24.125  13.005  76.686  0.00  0.00    +0.309 C 
ATOM     26  O   UNL     1      23.830  11.825  75.966  0.00  0.00    -0.332 OA
ATOM     27  C   UNL     1      25.000  11.248  75.641  0.00  0.00    +0.163 C 
ENDBRANCH  16  18
BRANCH   9   8
ATOM      8  O   UNL     1      18.734   7.508  70.890  0.00  0.00    -0.490 OA
BRANCH   8   7
ATOM      7  C   UNL     1      18.662   6.849  69.665  0.00  0.00    +0.244 C 
BRANCH   7   6
ATOM      6  C   UNL     1      17.220   6.959  69.201  0.00  0.00    +0.125 C 
BRANCH   6   5
ATOM      1  C   UNL     1      14.305   2.909  66.324  0.00  0.00    +0.105 C 
ATOM      2  N   UNL     1      15.132   3.848  67.070  0.00  0.00    -0.303 NA
ATOM      3  C   UNL     1      15.196   3.838  68.517  0.00  0.00    +0.099 C 
ATOM      4  C   UNL     1      15.372   5.226  68.981  0.00  0.00    +0.100 C 
ATOM      5  N   UNL     1      16.688   5.738  68.592  0.00  0.00    -0.297 NA
ATOM     38  C   UNL     1      16.769   5.635  67.110  0.00  0.00    +0.100 C 
ATOM     39  C   UNL     1      16.441   4.286  66.591  0.00  0.00    +0.099 C 
ENDBRANCH   6   5
ENDBRANCH   7   6
ENDBRANCH   8   7
ENDBRANCH   9   8
BRANCH  29  30
ATOM     30  O   UNL     1      22.503   7.353  73.997  0.00  0.00    -0.488 OA
BRANCH  30  31
ATOM     31  C   UNL     1      23.603   6.557  73.641  0.00  0.00    +0.178 C 
ATOM     32  C   UNL     1      23.423   5.772  72.367  0.00  0.00    +0.072 C 
ATOM     33  C   UNL     1      24.765   5.222  72.049  0.00  0.00    +0.163 C 
ATOM     34  O   UNL     1      25.178   4.360  73.054  0.00  0.00    -0.380 OA
ATOM     35  C   UNL     1      25.325   5.022  74.291  0.00  0.00    +0.163 C 
ATOM     36  C   UNL     1      24.021   5.619  74.739  0.00  0.00    +0.072 C 
ENDBRANCH  30  31
ENDBRANCH  29  30
TORSDOF 7
