REMARK  Name = 3pj2_ligand
REMARK  12 active torsions:
REMARK  status: ('A' for Active; 'I' for Inactive)
REMARK    1  A    between atoms: N7_7  and  C29_29
REMARK    2  A    between atoms: C9_9  and  O11_11
REMARK    3  A    between atoms: O11_11  and  C12_12
REMARK    4  A    between atoms: N13_13  and  C14_14
REMARK    5  A    between atoms: C17_17  and  O20_20
REMARK    6  A    between atoms: O20_20  and  C21_21
REMARK    7  A    between atoms: C21_21  and  C22_22
REMARK    8  A    between atoms: C22_22  and  N23_23
REMARK    9  A    between atoms: N23_23  and  C24_24
REMARK   10  A    between atoms: N23_23  and  C26_26
REMARK   11  A    between atoms: C24_24  and  C25_25
REMARK   12  A    between atoms: C26_26  and  C27_27
REMARK                            x       y       z     vdW  Elec       q    Type
REMARK                         _______ _______ _______ _____ _____    ______ ____
ROOT
ATOM      1  N   UNL     1     -20.720   5.001 -19.036  0.00  0.00    -0.272 NA
ATOM      2  C   UNL     1     -21.123   4.774 -17.796  0.00  0.00    +0.088 A 
ATOM      3  C   UNL     1     -20.244   5.059 -16.742  0.00  0.00    +0.032 A 
ATOM      4  C   UNL     1     -20.608   4.808 -15.347  0.00  0.00    +0.036 A 
ATOM      5  C   UNL     1     -19.705   5.093 -14.362  0.00  0.00    +0.191 A 
ATOM     14  C   UNL     1     -18.433   5.630 -14.717  0.00  0.00    +0.266 A 
ATOM     15  O   UNL     1     -17.635   5.875 -13.823  0.00  0.00    -0.386 OA
ATOM     16  N   UNL     1     -18.091   5.873 -16.010  0.00  0.00    -0.197 N 
ATOM     17  C   UNL     1     -16.765   6.424 -16.330  0.00  0.00    +0.227 C 
ATOM     18  C   UNL     1     -18.963   5.591 -17.043  0.00  0.00    +0.155 A 
ATOM     19  N   UNL     1     -18.647   5.788 -18.326  0.00  0.00    -0.239 NA
ATOM     20  C   UNL     1     -19.512   5.497 -19.296  0.00  0.00    +0.188 A 
ATOM     21  N   UNL     1     -19.204   5.701 -20.631  0.00  0.00    -0.252 N 
ATOM     22  H   UNL     1     -19.990   5.626 -21.292  0.00  0.00    +0.215 HD
ENDROOT
BRANCH  21  23
ATOM     23  C   UNL     1     -17.948   5.999 -21.196  0.00  0.00    +0.055 A 
ATOM     24  C   UNL     1     -16.947   6.694 -20.510  0.00  0.00    +0.005 A 
ATOM     25  C   UNL     1     -15.739   6.976 -21.136  0.00  0.00    +0.010 A 
ATOM     26  C   UNL     1     -15.514   6.566 -22.454  0.00  0.00    +0.080 A 
ATOM     36  C   UNL     1     -16.516   5.888 -23.140  0.00  0.00    +0.010 A 
ATOM     37  C   UNL     1     -17.721   5.607 -22.516  0.00  0.00    +0.005 A 
BRANCH  26  27
ATOM     27  O   UNL     1     -14.338   6.835 -23.101  0.00  0.00    -0.320 OA
BRANCH  27  28
ATOM     28  C   UNL     1     -13.240   6.287 -22.368  0.00  0.00    +0.240 C 
BRANCH  28  29
ATOM     29  C   UNL     1     -11.932   6.462 -23.149  0.00  0.00    +0.164 C 
BRANCH  29  30
ATOM     30  N   UNL     1     -11.879   5.568 -24.319  0.00  0.00    +0.237 N 
ATOM     31  H   UNL     1     -12.736   5.587 -24.849  0.00  0.00    +0.203 HD
BRANCH  30  32
ATOM     32  C   UNL     1     -11.559   4.211 -23.839  0.00  0.00    +0.128 C 
ATOM     33  C   UNL     1     -12.509   3.191 -24.476  0.00  0.00    +0.060 C 
ENDBRANCH  30  32
BRANCH  30  34
ATOM     34  C   UNL     1     -10.719   6.012 -25.113  0.00  0.00    +0.128 C 
ATOM     35  C   UNL     1     -11.075   6.061 -26.602  0.00  0.00    +0.060 C 
ENDBRANCH  30  34
ENDBRANCH  29  30
ENDBRANCH  28  29
ENDBRANCH  27  28
ENDBRANCH  26  27
ENDBRANCH  21  23
BRANCH   5   6
ATOM      6  O   UNL     1     -20.009   4.832 -13.049  0.00  0.00    -0.251 OA
BRANCH   6   7
ATOM      7  C   UNL     1     -20.755   5.736 -12.344  0.00  0.00    +0.114 A 
ATOM      8  C   UNL     1     -21.764   6.519 -12.903  0.00  0.00    +0.025 A 
ATOM      9  C   UNL     1     -22.485   7.395 -12.102  0.00  0.00    +0.022 A 
ATOM     10  C   UNL     1     -22.214   7.491 -10.741  0.00  0.00    +0.121 A 
ATOM     11  F   UNL     1     -22.917   8.348  -9.962  0.00  0.00    -0.192 F 
ATOM     12  C   UNL     1     -21.220   6.703 -10.178  0.00  0.00    +0.022 A 
ATOM     13  C   UNL     1     -20.502   5.829 -10.977  0.00  0.00    +0.025 A 
ENDBRANCH   6   7
ENDBRANCH   5   6
TORSDOF 9
