REMARK  Name = 3i4b_ligand
REMARK  8 active torsions:
REMARK  status: ('A' for Active; 'I' for Inactive)
REMARK    1  A    between atoms: C1_1  and  C2_2
REMARK    2  A    between atoms: N6_6  and  C7_7
REMARK    3  A    between atoms: C14_14  and  C15_15
REMARK    4  A    between atoms: C19_18  and  C21_20
REMARK    5  A    between atoms: N23_22  and  C24_23
REMARK    6  A    between atoms: C24_23  and  C26_24
REMARK    7  A    between atoms: C24_23  and  C28_26
REMARK    8  A    between atoms: C26_24  and  O27_25
REMARK                            x       y       z     vdW  Elec       q    Type
REMARK                         _______ _______ _______ _____ _____    ______ ____
ROOT
ATOM      4  C   UNL     1      37.890  35.151  54.288  0.00  0.00    -0.004 A 
ATOM      5  C   UNL     1      37.298  34.035  54.875  0.00  0.00    -0.006 A 
ATOM      6  CA  UNL     1      36.547  34.477  55.899  0.00  0.00    +0.130 A 
ATOM     21  N   UNL     1      36.676  35.823  55.902  0.00  0.00    -0.270 N 
ATOM     22  H   UNL     1      36.208  36.447  56.575  0.00  0.00    +0.240 HD
ATOM     23  C   UNL     1      37.465  36.235  54.950  0.00  0.00    +0.144 A 
ENDROOT
BRANCH   4   3
ATOM      1  C   UNL     1      38.400  33.003  52.049  0.00  0.00    +0.088 C 
ATOM      2  C   UNL     1      38.958  34.378  52.094  0.00  0.00    -0.009 A 
ATOM      3  C   UNL     1      38.744  35.302  53.121  0.00  0.00    +0.036 A 
ATOM     24  N   UNL     1      39.265  36.481  53.039  0.00  0.00    -0.265 NA
ATOM     25  C   UNL     1      40.002  36.811  52.032  0.00  0.00    +0.195 A 
ATOM     26  N   UNL     1      40.606  38.022  51.894  0.00  0.00    -0.246 N 
ATOM     27  H   UNL     1      41.074  38.145  50.985  0.00  0.00    +0.216 HD
ATOM     34  N   UNL     1      40.229  35.972  51.076  0.00  0.00    -0.267 NA
ATOM     35  C   UNL     1      39.746  34.777  51.068  0.00  0.00    +0.089 A 
BRANCH  26  28
ATOM     28  C   UNL     1      40.721  39.125  52.726  0.00  0.00    +0.064 A 
ATOM     29  C   UNL     1      40.416  39.132  54.064  0.00  0.00    +0.015 A 
ATOM     30  C   UNL     1      40.580  40.271  54.796  0.00  0.00    -0.013 A 
ATOM     31  C   UNL     1      41.054  41.416  54.208  0.00  0.00    -0.022 A 
ATOM     32  C   UNL     1      41.360  41.422  52.879  0.00  0.00    -0.013 A 
ATOM     33  C   UNL     1      41.195  40.283  52.149  0.00  0.00    +0.015 A 
ENDBRANCH  26  28
ENDBRANCH   4   3
BRANCH   6   7
ATOM      7  C   UNL     1      35.741  33.705  56.863  0.00  0.00    +0.220 C 
ATOM      8  N   UNL     1      35.518  34.226  58.059  0.00  0.00    -0.271 N 
ATOM      9  H   UNL     1      35.936  35.118  58.232  0.00  0.00    +0.187 HD
ATOM     20  O   UNL     1      35.291  32.646  56.618  0.00  0.00    -0.391 OA
BRANCH   8  10
ATOM     10  CA  UNL     1      34.749  33.671  59.142  0.00  0.00    +0.172 C 
BRANCH  10  11
ATOM     11  C   UNL     1      35.500  32.784  60.065  0.00  0.00    -0.016 A 
ATOM     12  C   UNL     1      36.843  32.840  60.142  0.00  0.00    -0.002 A 
ATOM     13  C   UNL     1      37.484  32.018  61.010  0.00  0.00    -0.009 A 
ATOM     14  C   UNL     1      36.776  31.154  61.785  0.00  0.00    -0.013 A 
ATOM     15  C   UNL     1      35.421  31.105  61.708  0.00  0.00    -0.009 A 
ATOM     16  C   UNL     1      34.795  31.922  60.843  0.00  0.00    -0.002 A 
ENDBRANCH  10  11
BRANCH  10  17
ATOM     17  C   UNL     1      34.346  34.870  59.952  0.00  0.00    +0.197 C 
BRANCH  17  18
ATOM     18  O   UNL     1      33.418  35.559  59.198  0.00  0.00    -0.391 OA
ATOM     19  H   UNL     1      33.134  36.330  59.675  0.00  0.00    +0.210 HD
ENDBRANCH  17  18
ENDBRANCH  10  17
ENDBRANCH   8  10
ENDBRANCH   6   7
TORSDOF 7
