REMARK  Name = 2UV2
REMARK  5 active torsions:
REMARK  status: ('A' for Active; 'I' for Inactive)
REMARK    1  A    between atoms: C_3  and  C_4
REMARK    2  A    between atoms: N_9  and  C_10
REMARK    3  A    between atoms: N_20  and  C_21
REMARK    4  A    between atoms: C_24  and  C_28
REMARK    5  A    between atoms: C_28  and  C_29
REMARK                            x       y       z     vdW  Elec       q    Type
REMARK                         _______ _______ _______ _____ _____    ______ ____
ROOT
ATOM      8  C   UNL     1     -28.570  49.995  -5.057  0.00  0.00    +0.280 A 
ATOM      9  C   UNL     1     -27.895  51.209  -4.801  0.00  0.00    +0.071 A 
ATOM     10  C   UNL     1     -27.371  51.945  -5.870  0.00  0.00    +0.080 A 
ATOM     11  N   UNL     1     -27.515  51.493  -7.132  0.00  0.00    -0.214 NA
ATOM     12  C   UNL     1     -28.145  50.320  -7.349  0.00  0.00    +0.224 A 
ATOM     13  N   UNL     1     -28.295  49.861  -8.590  0.00  0.00    -0.283 N 
ATOM     14  H   UNL     1     -28.139  50.516  -9.421  0.00  0.00    +0.155 HD
ATOM     24  C   UNL     1     -26.702  53.153  -5.640  0.00  0.00    +0.028 A 
ATOM     25  C   UNL     1     -26.550  53.637  -4.347  0.00  0.00    +0.002 A 
ATOM     26  C   UNL     1     -27.062  52.904  -3.285  0.00  0.00    +0.001 A 
ATOM     27  C   UNL     1     -27.731  51.697  -3.505  0.00  0.00    +0.016 A 
ATOM     28  N   UNL     1     -28.656  49.597  -6.329  0.00  0.00    -0.171 NA
ENDROOT
BRANCH   8   7
ATOM      3  C   UNL     1     -31.293  46.644  -4.576  0.00  0.00    +0.100 C 
ATOM      4  N   UNL     1     -31.222  46.750  -3.245  0.00  0.00    -0.039 NA
ATOM      5  N   UNL     1     -30.457  47.681  -3.010  0.00  0.00    +0.086 NA
ATOM      6  C   UNL     1     -29.990  48.232  -4.130  0.00  0.00    +0.396 C 
ATOM      7  N   UNL     1     -29.093  49.254  -4.055  0.00  0.00    -0.013 NA
ATOM     29  C   UNL     1     -30.523  47.574  -5.169  0.00  0.00    +0.135 C 
BRANCH   3   2
ATOM      1  C   UNL     1     -31.465  44.628  -6.229  0.00  0.00    +0.010 C 
ATOM      2  C   UNL     1     -32.183  45.578  -5.264  0.00  0.00    +0.042 C 
ATOM     30  C   UNL     1     -32.388  45.732  -6.779  0.00  0.00    +0.010 C 
ENDBRANCH   3   2
ENDBRANCH   8   7
BRANCH  13  15
ATOM     15  C   UNL     1     -28.642  48.579  -8.806  0.00  0.00    +0.034 A 
ATOM     16  C   UNL     1     -29.764  48.299  -9.584  0.00  0.00    +0.023 A 
ATOM     17  C   UNL     1     -30.134  46.980  -9.817  0.00  0.00    +0.006 A 
ATOM     18  C   UNL     1     -29.386  45.927  -9.279  0.00  0.00    -0.034 A 
ATOM     22  C   UNL     1     -28.265  46.202  -8.499  0.00  0.00    +0.006 A 
ATOM     23  C   UNL     1     -27.894  47.527  -8.269  0.00  0.00    +0.023 A 
BRANCH  18  19
ATOM     19  C   UNL     1     -29.807  44.467  -9.542  0.00  0.00    +0.153 C 
BRANCH  19  20
ATOM     20  C   UNL     1     -30.852  44.433 -10.585  0.00  0.00    +0.067 C 
ATOM     21  N   UNL     1     -31.529  44.471 -11.516  0.00  0.00    -0.196 NA
ENDBRANCH  19  20
ENDBRANCH  18  19
ENDBRANCH  13  15
TORSDOF 5
