REMARK  Name = 3ZDU
REMARK  5 active torsions:
REMARK  status: ('A' for Active; 'I' for Inactive)
REMARK    1  A    between atoms: C_1  and  N_13
REMARK    2  A    between atoms: C_7  and  C_8
REMARK    3  A    between atoms: N_16  and  C_17
REMARK    4  A    between atoms: C_22  and  C_23
REMARK    5  A    between atoms: C_23  and  C_25
REMARK                            x       y       z     vdW  Elec       q    Type
REMARK                         _______ _______ _______ _____ _____    ______ ____
ROOT
ATOM      1  C   UNL     1      27.807  21.007  59.023  0.00  0.00    +0.129 A 
ATOM     15  N   UNL     1      27.090  19.844  59.064  0.00  0.00    -0.199 NA
ATOM     16  C   UNL     1      27.253  18.899  58.094  0.00  0.00    +0.217 A 
ATOM     17  N   UNL     1      26.524  17.668  58.052  0.00  0.00    -0.305 N 
ATOM     18  H   UNL     1      26.415  17.213  57.090  0.00  0.00    +0.150 HD
ATOM     28  N   UNL     1      28.066  19.120  57.044  0.00  0.00    -0.223 NA
ATOM     29  C   UNL     1      28.779  20.259  56.944  0.00  0.00    +0.118 A 
ATOM     30  C   UNL     1      28.671  21.222  57.942  0.00  0.00    +0.063 A 
ENDROOT
BRANCH   1   2
ATOM      2  N   UNL     1      27.709  22.035  60.026  0.00  0.00    -0.283 N 
ATOM      3  H   UNL     1      27.500  22.937  59.489  0.00  0.00    +0.155 HD
ATOM      4  C   UNL     1      26.784  22.030  61.143  0.00  0.00    +0.146 A 
ATOM      5  N   UNL     1      26.784  22.908  62.175  0.00  0.00    -0.158 NA
ATOM      6  N   UNL     1      25.766  22.571  63.038  0.00  0.00    -0.279 N 
ATOM      7  H   UNL     1      25.541  23.081  63.951  0.00  0.00    +0.189 HD
ATOM      8  C   UNL     1      25.106  21.521  62.570  0.00  0.00    +0.045 A 
ATOM     14  C   UNL     1      25.743  21.140  61.395  0.00  0.00    +0.068 A 
BRANCH   8   9
ATOM      9  C   UNL     1      23.963  20.811  63.233  0.00  0.00    +0.031 C 
ATOM     10  C   UNL     1      22.695  20.376  62.586  0.00  0.00    +0.010 C 
ATOM     11  C   UNL     1      22.389  18.969  63.037  0.00  0.00    +0.001 C 
ATOM     12  C   UNL     1      23.441  18.634  64.044  0.00  0.00    +0.001 C 
ATOM     13  C   UNL     1      24.176  19.867  64.352  0.00  0.00    +0.010 C 
ENDBRANCH   8   9
ENDBRANCH   1   2
BRANCH  17  19
ATOM     19  C   UNL     1      25.928  16.981  59.148  0.00  0.00    +0.063 C 
ATOM     20  C   UNL     1      24.865  16.143  58.807  0.00  0.00    +0.024 C 
ATOM     21  C   UNL     1      24.219  15.387  59.760  0.00  0.00    +0.007 C 
ATOM     22  C   UNL     1      24.654  15.500  61.101  0.00  0.00    -0.003 C 
ATOM     26  C   UNL     1      25.721  16.344  61.450  0.00  0.00    +0.007 C 
ATOM     27  C   UNL     1      26.371  17.073  60.462  0.00  0.00    +0.024 C 
BRANCH  22  23
ATOM     23  C   UNL     1      23.977  14.663  62.121  0.00  0.00    +0.126 C 
BRANCH  23  24
ATOM     24  C   UNL     1      23.065  15.247  63.107  0.00  0.00    +0.063 C 
ATOM     25  N   UNL     1      22.339  15.641  63.883  0.00  0.00    -0.197 NA
ENDBRANCH  23  24
ENDBRANCH  22  23
ENDBRANCH  17  19
TORSDOF 5
