REMARK  Name = 3tv7_ligand
REMARK  6 active torsions:
REMARK  status: ('A' for Active; 'I' for Inactive)
REMARK    1  A    between atoms: N03_3  and  C04_4
REMARK    2  A    between atoms: C04_4  and  C05_5
REMARK    3  A    between atoms: C04_4  and  C06_6
REMARK    4  A    between atoms: C10_10  and  O11_11
REMARK    5  A    between atoms: O11_11  and  C12_12
REMARK    6  A    between atoms: C17_17  and  C18_18
REMARK                            x       y       z     vdW  Elec       q    Type
REMARK                         _______ _______ _______ _____ _____    ______ ____
ROOT
ATOM      1  O   UNL     1       1.091 -46.937  12.900  0.00  0.00    -0.386 OA
ATOM      2  C   UNL     1       2.282 -46.624  12.801  0.00  0.00    +0.301 C 
ATOM      3  N   UNL     1       3.101 -46.365  14.009  0.00  0.00    -0.179 N 
ATOM      4  H   UNL     1       4.063 -46.053  13.874  0.00  0.00    +0.241 HD
ATOM      5  C   UNL     1       2.619 -46.528  15.396  0.00  0.00    +0.209 A 
ATOM      6  S   UNL     1       1.300 -47.356  15.948  0.00  0.00    +0.023 S 
ATOM      7  C   UNL     1       1.451 -47.075  17.556  0.00  0.00    +0.083 A 
ATOM      8  C   UNL     1       2.602 -46.262  17.814  0.00  0.00    +0.010 A 
ATOM     15  N   UNL     1       3.285 -45.958  16.508  0.00  0.00    -0.314 NA
ATOM     16  N   UNL     1       2.890 -46.502  11.473  0.00  0.00    -0.252 N 
ATOM     17  H   UNL     1       3.264 -47.343  11.033  0.00  0.00    +0.189 HD
ENDROOT
BRANCH   8   9
ATOM      9  C   UNL     1       3.080 -45.795  19.180  0.00  0.00    -0.008 A 
ATOM     10  C   UNL     1       2.548 -46.355  20.354  0.00  0.00    +0.036 A 
ATOM     11  C   UNL     1       3.007 -45.908  21.601  0.00  0.00    +0.086 A 
ATOM     12  N   UNL     1       3.979 -44.942  21.683  0.00  0.00    -0.304 NA
ATOM     13  C   UNL     1       4.517 -44.387  20.582  0.00  0.00    +0.086 A 
ATOM     14  C   UNL     1       4.088 -44.795  19.306  0.00  0.00    +0.036 A 
ENDBRANCH   8   9
BRANCH  16  18
ATOM     18  C   UNL     1       2.989 -45.219  10.736  0.00  0.00    +0.143 C 
ATOM     27  C   UNL     1       3.797 -44.185  11.509  0.00  0.00    +0.050 C 
BRANCH  18  19
ATOM     19  C   UNL     1       1.652 -44.618  10.289  0.00  0.00    -0.027 A 
ATOM     20  C   UNL     1       0.797 -45.366   9.455  0.00  0.00    +0.018 A 
ATOM     21  C   UNL     1      -0.441 -44.823   9.031  0.00  0.00    +0.084 A 
ATOM     24  C   UNL     1      -0.817 -43.537   9.446  0.00  0.00    +0.009 A 
ATOM     25  C   UNL     1       0.031 -42.787  10.278  0.00  0.00    -0.020 A 
ATOM     26  C   UNL     1       1.257 -43.331  10.692  0.00  0.00    -0.023 A 
BRANCH  21  22
ATOM     22  O   UNL     1      -1.268 -45.588   8.216  0.00  0.00    -0.323 OA
ATOM     23  C   UNL     1      -1.446 -46.939   8.525  0.00  0.00    +0.232 C 
ENDBRANCH  21  22
ENDBRANCH  18  19
ENDBRANCH  16  18
TORSDOF 4
