REMARK  Name = 2vtt_ligand
REMARK  4 active torsions:
REMARK  status: ('A' for Active; 'I' for Inactive)
REMARK    1  A    between atoms: C5_4  and  N6_5
REMARK    2  A    between atoms: C7_6  and  C9_8
REMARK    3  A    between atoms: C13_12  and  N14_13
REMARK    4  A    between atoms: C15_14  and  C17_16
REMARK                            x       y       z     vdW  Elec       q    Type
REMARK                         _______ _______ _______ _____ _____    ______ ____
ROOT
ATOM     10  C   UNL     1      28.011   5.323  64.560  0.00  0.00    +0.166 A 
ATOM     11  C   UNL     1      26.899   4.962  63.810  0.00  0.00    +0.100 A 
ATOM     24  C   UNL     1      26.671   3.618  64.094  0.00  0.00    +0.100 A 
ATOM     25  N   UNL     1      27.634   3.232  64.962  0.00  0.00    -0.215 NA
ATOM     26  N   UNL     1      28.467   4.259  65.277  0.00  0.00    -0.219 N 
ATOM     27  H   UNL     1      29.271   4.237  65.920  0.00  0.00    +0.249 HD
ENDROOT
BRANCH  10   9
ATOM      7  N   UNL     1      29.880   6.733  65.139  0.00  0.00    -0.281 N 
ATOM      8  H   UNL     1      30.317   5.906  65.493  0.00  0.00    +0.184 HD
ATOM      9  C   UNL     1      28.643   6.657  64.598  0.00  0.00    +0.213 C 
ATOM     28  O   UNL     1      28.066   7.635  64.130  0.00  0.00    -0.398 OA
BRANCH   7   6
ATOM      1  C   UNL     1      33.000   9.661  65.065  0.00  0.00    +0.129 C 
ATOM      2  N   UNL     1      31.997   9.648  63.962  0.00  0.00    +0.229 N 
ATOM      3  H   UNL     1      31.318  10.374  64.127  0.00  0.00    +0.201 HD
ATOM      4  H   UNL     1      32.468   9.821  63.088  0.00  0.00    +0.201 HD
ATOM      5  C   UNL     1      31.295   8.335  63.884  0.00  0.00    +0.157 C 
ATOM      6  C   UNL     1      30.588   8.014  65.213  0.00  0.00    +0.141 C 
ATOM     29  C   UNL     1      31.588   8.039  66.369  0.00  0.00    +0.038 C 
ATOM     30  C   UNL     1      32.327   9.372  66.403  0.00  0.00    +0.053 C 
ENDBRANCH   7   6
ENDBRANCH  10   9
BRANCH  11  12
ATOM     12  N   UNL     1      26.230   5.835  62.963  0.00  0.00    -0.245 N 
ATOM     13  H   UNL     1      26.473   6.803  63.025  0.00  0.00    +0.217 HD
ATOM     14  C   UNL     1      25.284   5.499  62.066  0.00  0.00    +0.225 C 
ATOM     23  O   UNL     1      24.809   4.363  61.981  0.00  0.00    -0.381 OA
BRANCH  14  15
ATOM     15  C   UNL     1      24.831   6.597  61.158  0.00  0.00    +0.121 A 
ATOM     16  C   UNL     1      23.514   7.003  61.141  0.00  0.00    +0.152 A 
ATOM     17  F   UNL     1      22.650   6.398  61.977  0.00  0.00    -0.178 F 
ATOM     18  C   UNL     1      23.071   8.022  60.298  0.00  0.00    +0.032 A 
ATOM     19  C   UNL     1      23.969   8.647  59.443  0.00  0.00    +0.002 A 
ATOM     20  C   UNL     1      25.299   8.258  59.436  0.00  0.00    +0.032 A 
ATOM     21  C   UNL     1      25.721   7.234  60.286  0.00  0.00    +0.152 A 
ATOM     22  F   UNL     1      27.013   6.846  60.285  0.00  0.00    -0.178 F 
ENDBRANCH  14  15
ENDBRANCH  11  12
TORSDOF 4
