REMARK  Name = 5CAU
REMARK  9 active torsions:
REMARK  status: ('A' for Active; 'I' for Inactive)
REMARK    1  A    between atoms: C_1  and  C_7
REMARK    2  A    between atoms: C_7  and  C_8
REMARK    3  A    between atoms: C_7  and  N_14
REMARK    4  A    between atoms: C_9  and  C_11
REMARK    5  A    between atoms: C_10  and  C_11
REMARK    6  A    between atoms: C_11  and  O_34
REMARK    7  A    between atoms: N_18  and  C_19
REMARK    8  A    between atoms: C_28  and  O_32
REMARK    9  A    between atoms: O_32  and  C_33
REMARK                            x       y       z     vdW  Elec       q    Type
REMARK                         _______ _______ _______ _____ _____    ______ ____
ROOT
ATOM      6  N   UNL     1     -51.396  -0.573 -20.330  0.00  0.00    -0.314 N 
ATOM      7  C   UNL     1     -51.177  -0.228 -19.013  0.00  0.00    +0.140 A 
ATOM      8  N   UNL     1     -51.992   0.719 -18.664  0.00  0.00    -0.228 NA
ATOM      9  C   UNL     1     -52.744   1.099 -19.716  0.00  0.00    +0.108 A 
ATOM     10  C   UNL     1     -53.721   2.075 -19.881  0.00  0.00    +0.142 A 
ATOM     11  N   UNL     1     -54.297   2.223 -21.059  0.00  0.00    -0.238 NA
ATOM     12  C   UNL     1     -53.995   1.474 -22.121  0.00  0.00    +0.126 A 
ATOM     13  N   UNL     1     -54.686   1.785 -23.290  0.00  0.00    -0.284 N 
ATOM     14  H   UNL     1     -55.113   2.766 -23.325  0.00  0.00    +0.155 HD
ATOM     30  C   UNL     1     -53.003   0.493 -22.047  0.00  0.00    +0.071 A 
ATOM     35  C   UNL     1     -52.364   0.285 -20.817  0.00  0.00    +0.074 A 
ENDROOT
BRANCH  13  15
ATOM     15  C   UNL     1     -54.898   1.005 -24.411  0.00  0.00    +0.129 A 
ATOM     16  N   UNL     1     -53.961   0.175 -24.865  0.00  0.00    -0.199 NA
ATOM     17  C   UNL     1     -54.149  -0.595 -25.938  0.00  0.00    +0.220 A 
ATOM     18  N   UNL     1     -53.095  -1.408 -26.376  0.00  0.00    -0.297 N 
ATOM     19  C   UNL     1     -52.074  -1.856 -25.398  0.00  0.00    +0.147 C 
ATOM     20  C   UNL     1     -50.694  -1.863 -26.080  0.00  0.00    +0.212 C 
ATOM     21  F   UNL     1     -50.355  -0.559 -26.461  0.00  0.00    -0.241 F 
ATOM     22  C   UNL     1     -50.744  -2.732 -27.360  0.00  0.00    +0.155 C 
ATOM     25  C   UNL     1     -51.819  -2.223 -28.344  0.00  0.00    +0.053 C 
ATOM     26  C   UNL     1     -53.194  -2.154 -27.653  0.00  0.00    +0.110 C 
ATOM     27  N   UNL     1     -55.291  -0.489 -26.626  0.00  0.00    -0.223 NA
ATOM     28  C   UNL     1     -56.262   0.341 -26.246  0.00  0.00    +0.118 A 
ATOM     29  C   UNL     1     -56.111   1.123 -25.109  0.00  0.00    +0.063 A 
BRANCH  22  23
ATOM     23  O   UNL     1     -49.477  -2.673 -28.018  0.00  0.00    -0.377 OA
ATOM     24  C   UNL     1     -48.589  -3.741 -27.671  0.00  0.00    +0.194 C 
ENDBRANCH  22  23
ENDBRANCH  13  15
BRANCH   6   5
ATOM      5  C   UNL     1     -50.669  -1.611 -21.087  0.00  0.00    +0.190 C 
ATOM     36  C   UNL     1     -51.525  -2.736 -21.694  0.00  0.00    +0.040 C 
BRANCH   5   1
ATOM      1  C   UNL     1     -49.603  -1.012 -21.997  0.00  0.00    +0.410 C 
ATOM      2  F   UNL     1     -48.815  -2.026 -22.525  0.00  0.00    -0.168 F 
ATOM      3  F   UNL     1     -48.808  -0.140 -21.255  0.00  0.00    -0.168 F 
ATOM      4  F   UNL     1     -50.177  -0.304 -23.039  0.00  0.00    -0.168 F 
ENDBRANCH   5   1
ENDBRANCH   6   5
BRANCH   7  31
ATOM     31  C   UNL     1     -50.177  -0.864 -18.069  0.00  0.00    +0.177 C 
ATOM     34  C   UNL     1     -50.114  -0.173 -16.704  0.00  0.00    +0.046 C 
BRANCH  31  32
ATOM     32  O   UNL     1     -50.588  -2.206 -17.873  0.00  0.00    -0.384 OA
ATOM     33  H   UNL     1     -51.552  -2.220 -17.457  0.00  0.00    +0.210 HD
ENDBRANCH  31  32
ENDBRANCH   7  31
TORSDOF 6
