REMARK  Name = 4YJU
REMARK  5 active torsions:
REMARK  status: ('A' for Active; 'I' for Inactive)
REMARK    1  A    between atoms: O_1  and  S_2
REMARK    2  A    between atoms: S_2  and  O_3
REMARK    3  A    between atoms: C_11  and  N_12
REMARK    4  A    between atoms: N_20  and  C_21
REMARK    5  A    between atoms: N_20  and  C_22
REMARK                            x       y       z     vdW  Elec       q    Type
REMARK                         _______ _______ _______ _____ _____    ______ ____
ROOT
ATOM      7  N   UNL     1      35.823  40.501  34.705  0.00  0.00    -0.283 N 
ATOM      8  H   UNL     1      35.705  41.055  35.517  0.00  0.00    +0.155 HD
ATOM      9  C   UNL     1      34.663  39.889  34.341  0.00  0.00    +0.221 A 
ATOM     10  N   UNL     1      34.581  39.178  33.211  0.00  0.00    -0.196 NA
ATOM     11  C   UNL     1      33.459  38.527  32.899  0.00  0.00    +0.166 A 
ATOM     12  N   UNL     1      33.502  37.815  31.711  0.00  0.00    -0.285 N 
ATOM     23  C   UNL     1      34.773  37.419  31.092  0.00  0.00    +0.137 C 
ATOM     24  C   UNL     1      32.342  38.686  33.760  0.00  0.00    +0.181 A 
ATOM     25  F   UNL     1      31.173  38.053  33.527  0.00  0.00    -0.200 F 
ATOM     26  C   UNL     1      32.493  39.454  34.905  0.00  0.00    +0.156 A 
ATOM     27  N   UNL     1      33.660  40.067  35.202  0.00  0.00    -0.220 NA
ENDROOT
BRANCH   7   6
ATOM      3  S   UNL     1      39.352  39.064  31.107  0.00  0.00    -0.108 S 
ATOM      4  C   UNL     1      38.730  39.918  32.476  0.00  0.00    +0.082 A 
ATOM      5  C   UNL     1      37.452  39.761  32.973  0.00  0.00    +0.050 A 
ATOM      6  C   UNL     1      37.083  40.499  34.132  0.00  0.00    +0.035 A 
ATOM     28  C   UNL     1      38.035  41.388  34.692  0.00  0.00    +0.024 A 
ATOM     29  C   UNL     1      39.325  41.487  34.174  0.00  0.00    +0.008 A 
ATOM     30  C   UNL     1      39.678  40.749  33.053  0.00  0.00    -0.008 A 
ATOM     31  C   UNL     1      41.021  40.755  32.348  0.00  0.00    +0.140 C 
ATOM     32  N   UNL     1      40.800  39.862  31.195  0.00  0.00    -0.210 NA
ATOM     33  H   UNL     1      41.553  39.605  30.571  0.00  0.00    +0.146 HD
BRANCH   3   1
ATOM      1  O   UNL     1      38.715  39.404  29.854  0.00  0.00    -0.280 OA
ATOM      2  H   UNL     1      39.260  38.987  29.059  0.00  0.00    +0.242 HD
ENDBRANCH   3   1
BRANCH   3  34
ATOM     34  O   UNL     1      39.493  37.684  31.446  0.00  0.00    -0.280 OA
ATOM     35  H   UNL     1      38.544  37.237  31.498  0.00  0.00    +0.242 HD
ENDBRANCH   3  34
ENDBRANCH   7   6
BRANCH  12  13
ATOM     13  C   UNL     1      32.322  37.550  30.991  0.00  0.00    +0.046 A 
ATOM     14  C   UNL     1      31.898  36.244  30.749  0.00  0.00    +0.041 A 
ATOM     15  C   UNL     1      32.403  34.940  31.101  0.00  0.00    +0.144 A 
ATOM     16  N   UNL     1      31.577  34.033  30.611  0.00  0.00    -0.181 NA
ATOM     17  N   UNL     1      30.537  34.672  30.008  0.00  0.00    -0.277 N 
ATOM     18  H   UNL     1      29.856  34.212  29.470  0.00  0.00    +0.189 HD
ATOM     19  C   UNL     1      30.695  36.006  30.044  0.00  0.00    +0.068 A 
ATOM     20  C   UNL     1      29.952  37.037  29.570  0.00  0.00    +0.028 A 
ATOM     21  C   UNL     1      30.394  38.356  29.774  0.00  0.00    +0.004 A 
ATOM     22  C   UNL     1      31.553  38.611  30.505  0.00  0.00    +0.024 A 
ENDBRANCH  12  13
TORSDOF 4
