REMARK  Name = 3vqh_ligand
REMARK  8 active torsions:
REMARK  status: ('A' for Active; 'I' for Inactive)
REMARK    1  A    between atoms: C1_1  and  S_11
REMARK    2  A    between atoms: S_11  and  N1'_14
REMARK    3  A    between atoms: N1'_14  and  C2'_15
REMARK    4  A    between atoms: C2'_15  and  C3'_16
REMARK    5  A    between atoms: C3'_16  and  N4'_17
REMARK    6  A    between atoms: N4'_17  and  C5'_18
REMARK    7  A    between atoms: C5'_18  and  C6'_19
REMARK    8  A    between atoms: C7'_20  and  C1'_21
REMARK                            x       y       z     vdW  Elec       q    Type
REMARK                         _______ _______ _______ _____ _____    ______ ____
ROOT
ATOM      3  N   UNL     1      -8.911   8.493  -4.608  0.00  0.00    -0.242 NA
ATOM      4  H   UNL     1      -8.981   8.248  -5.575  0.00  0.00    +0.168 HD
ENDROOT
BRANCH   3   2
ATOM      2  S   UNL     1      -8.489   9.993  -4.108  0.00  0.00    +0.071 S 
ATOM     20  O   UNL     1      -9.611  10.603  -3.339  0.00  0.00    -0.150 OA
ATOM     21  O   UNL     1      -8.218  10.851  -5.286  0.00  0.00    -0.150 OA
BRANCH   2   1
ATOM      1  C   UNL     1      -7.062   9.949  -3.038  0.00  0.00    +0.123 A 
ATOM     22  C   UNL     1      -5.750   9.866  -3.531  0.00  0.00    +0.024 A 
ATOM     23  C   UNL     1      -5.478   9.806  -4.902  0.00  0.00    +0.042 A 
ATOM     24  C   UNL     1      -4.153   9.720  -5.340  0.00  0.00    +0.085 A 
ATOM     25  N   UNL     1      -3.148   9.691  -4.475  0.00  0.00    -0.297 NA
ATOM     26  C   UNL     1      -3.368   9.747  -3.163  0.00  0.00    +0.107 A 
ATOM     27  C   UNL     1      -4.666   9.839  -2.652  0.00  0.00    +0.011 A 
ATOM     28  C   UNL     1      -4.883   9.896  -1.268  0.00  0.00    +0.021 A 
ATOM     29  C   UNL     1      -6.187   9.986  -0.777  0.00  0.00    +0.011 A 
ATOM     30  C   UNL     1      -7.265  10.017  -1.659  0.00  0.00    +0.039 A 
ENDBRANCH   2   1
ENDBRANCH   3   2
BRANCH   3   5
ATOM      5  C   UNL     1      -9.183   7.520  -3.511  0.00  0.00    +0.172 C 
BRANCH   5   6
ATOM      6  C   UNL     1     -10.668   7.500  -3.095  0.00  0.00    +0.151 C 
BRANCH   6   7
ATOM      7  N   UNL     1     -11.564   7.601  -4.257  0.00  0.00    +0.243 N 
ATOM      8  H   UNL     1     -11.094   7.247  -5.075  0.00  0.00    +0.203 HD
ATOM      9  H   UNL     1     -12.397   7.059  -4.087  0.00  0.00    +0.203 HD
BRANCH   7  10
ATOM     10  C   UNL     1     -11.932   9.014  -4.474  0.00  0.00    +0.204 C 
BRANCH  10  11
ATOM     11  C   UNL     1     -12.605   9.544  -3.369  0.00  0.00    +0.052 C 
ATOM     12  C   UNL     1     -12.361  10.867  -2.999  0.00  0.00    -0.016 C 
BRANCH  12  13
ATOM     13  C   UNL     1     -12.989  11.487  -1.912  0.00  0.00    -0.039 A 
ATOM     14  C   UNL     1     -12.693  12.810  -1.613  0.00  0.00    -0.001 A 
ATOM     15  C   UNL     1     -13.291  13.449  -0.531  0.00  0.00    +0.005 A 
ATOM     16  C   UNL     1     -14.210  12.757   0.259  0.00  0.00    +0.008 A 
ATOM     17 BR   UNL     1     -15.076  13.616   1.725  0.00  0.00    -0.054 Br
ATOM     18  C   UNL     1     -14.513  11.430  -0.045  0.00  0.00    +0.005 A 
ATOM     19  C   UNL     1     -13.906  10.796  -1.126  0.00  0.00    -0.001 A 
ENDBRANCH  12  13
ENDBRANCH  10  11
ENDBRANCH   7  10
ENDBRANCH   6   7
ENDBRANCH   5   6
ENDBRANCH   3   5
TORSDOF 8
