REMARK  Name = 2r3l_ligand
REMARK  4 active torsions:
REMARK  status: ('A' for Active; 'I' for Inactive)
REMARK    1  A    between atoms: C07_7  and  C11_11
REMARK    2  A    between atoms: C09_9  and  N10_10
REMARK    3  A    between atoms: N10_10  and  C12_12
REMARK    4  A    between atoms: C12_12  and  C13_13
REMARK                            x       y       z     vdW  Elec       q    Type
REMARK                         _______ _______ _______ _____ _____    ______ ____
ROOT
ATOM      1  C   UNL     1      -0.238  32.484   8.990  0.00  0.00    +0.120 A 
ATOM      2 BR   UNL     1      -1.838  33.093   9.698  0.00  0.00    -0.035 Br
ATOM      3  C   UNL     1       0.614  33.162   8.110  0.00  0.00    +0.033 A 
ATOM      4  N   UNL     1       1.686  32.376   7.796  0.00  0.00    -0.336 NA
ATOM      5  C   UNL     1       1.483  31.231   8.510  0.00  0.00    +0.168 A 
ATOM      6  C   UNL     1       2.306  30.046   8.566  0.00  0.00    +0.093 A 
ATOM     16  C   UNL     1       1.858  28.992   9.370  0.00  0.00    +0.007 A 
ATOM     17  C   UNL     1       0.645  29.081  10.110  0.00  0.00    +0.001 A 
ATOM     24  C   UNL     1      -0.105  30.227  10.032  0.00  0.00    +0.183 A 
ATOM     25  N   UNL     1       0.329  31.283   9.231  0.00  0.00    -0.209 N 
ENDROOT
BRANCH  17  18
ATOM     18  C   UNL     1       0.228  27.980  11.017  0.00  0.00    -0.026 A 
ATOM     19  C   UNL     1       0.485  26.634  10.688  0.00  0.00    +0.002 A 
ATOM     20  C   UNL     1       0.119  25.605  11.563  0.00  0.00    -0.003 A 
ATOM     21  C   UNL     1      -0.509  25.908  12.780  0.00  0.00    -0.004 A 
ATOM     22  C   UNL     1      -0.754  27.236  13.121  0.00  0.00    -0.003 A 
ATOM     23  C   UNL     1      -0.374  28.270  12.251  0.00  0.00    +0.002 A 
ENDBRANCH  17  18
BRANCH   6   7
ATOM      7  N   UNL     1       3.478  30.076   7.863  0.00  0.00    -0.307 N 
ATOM      8  H   UNL     1       3.632  30.773   7.120  0.00  0.00    +0.179 HD
BRANCH   7   9
ATOM      9  C   UNL     1       4.517  29.081   8.198  0.00  0.00    +0.209 C 
BRANCH   9  10
ATOM     10  C   UNL     1       4.563  28.033   7.128  0.00  0.00    +0.032 A 
ATOM     11  C   UNL     1       4.784  28.368   5.785  0.00  0.00    +0.121 A 
ATOM     12  N   UNL     1       4.842  27.455   4.809  0.00  0.00    -0.270 NA
ATOM     13  C   UNL     1       4.671  26.182   5.189  0.00  0.00    +0.190 A 
ATOM     14  N   UNL     1       4.441  25.723   6.439  0.00  0.00    -0.270 NA
ATOM     15  C   UNL     1       4.406  26.662   7.406  0.00  0.00    +0.121 A 
ENDBRANCH   9  10
ENDBRANCH   7   9
ENDBRANCH   6   7
TORSDOF 4
