REMARK  Name = 2ydj_ligand
REMARK  4 active torsions:
REMARK  status: ('A' for Active; 'I' for Inactive)
REMARK    1  A    between atoms: C3_3  and  C7_8
REMARK    2  A    between atoms: C9_10  and  N3_22
REMARK    3  A    between atoms: C10_11  and  C11_13
REMARK    4  A    between atoms: N1_15  and  C12_16
REMARK                            x       y       z     vdW  Elec       q    Type
REMARK                         _______ _______ _______ _____ _____    ______ ____
ROOT
ATOM      7  C   UNL     1       5.973  -2.544  45.273  0.00  0.00    +0.037 A 
ATOM      8  S   UNL     1       4.854  -3.803  45.621  0.00  0.00    -0.045 S 
ATOM      9  C   UNL     1       3.665  -3.228  44.521  0.00  0.00    +0.105 A 
ATOM     22  C   UNL     1       4.124  -2.085  43.901  0.00  0.00    +0.074 A 
ATOM     30  C   UNL     1       5.424  -1.707  44.322  0.00  0.00    +0.018 A 
ENDROOT
BRANCH   7   6
ATOM      1  C   UNL     1       9.218  -1.233  46.609  0.00  0.00    -0.002 A 
ATOM      2  C   UNL     1       9.774  -2.371  47.151  0.00  0.00    +0.032 A 
ATOM      3  C   UNL     1       9.058  -3.551  47.090  0.00  0.00    +0.133 A 
ATOM      4  F   UNL     1       9.557  -4.680  47.623  0.00  0.00    -0.184 F 
ATOM      5  C   UNL     1       7.815  -3.610  46.501  0.00  0.00    +0.041 A 
ATOM      6  C   UNL     1       7.263  -2.477  45.942  0.00  0.00    -0.008 A 
ATOM     31  C   UNL     1       7.969  -1.294  46.007  0.00  0.00    +0.002 A 
ENDBRANCH   7   6
BRANCH  22  23
ATOM     23  N   UNL     1       3.335  -1.436  42.957  0.00  0.00    -0.225 N 
ATOM     24  H   UNL     1       2.547  -1.922  42.578  0.00  0.00    +0.224 HD
ATOM     25  C   UNL     1       3.589  -0.159  42.523  0.00  0.00    +0.283 C 
ATOM     26  N   UNL     1       2.505   0.342  41.832  0.00  0.00    -0.282 N 
ATOM     27  H   UNL     1       1.686  -0.219  41.712  0.00  0.00    +0.181 HD
ATOM     28  H   UNL     1       2.538   1.266  41.452  0.00  0.00    +0.181 HD
ATOM     29  O   UNL     1       4.634   0.454  42.708  0.00  0.00    -0.391 OA
ENDBRANCH  22  23
BRANCH   9  10
ATOM     10  C   UNL     1       2.383  -3.849  44.287  0.00  0.00    +0.185 C 
ATOM     11  N   UNL     1       2.111  -5.030  44.949  0.00  0.00    -0.285 N 
ATOM     12  H   UNL     1       2.826  -5.573  45.389  0.00  0.00    +0.183 HD
ATOM     21  O   UNL     1       1.559  -3.344  43.524  0.00  0.00    -0.408 OA
BRANCH  11  13
ATOM     13  C   UNL     1       0.714  -5.428  44.962  0.00  0.00    +0.141 C 
ATOM     14  C   UNL     1       0.107  -4.985  46.282  0.00  0.00    +0.157 C 
ATOM     15  N   UNL     1      -1.231  -5.622  46.471  0.00  0.00    +0.229 N 
ATOM     16  H   UNL     1      -1.846  -5.270  45.754  0.00  0.00    +0.201 HD
ATOM     17  H   UNL     1      -1.580  -5.348  47.376  0.00  0.00    +0.201 HD
ATOM     18  C   UNL     1      -1.252  -7.116  46.403  0.00  0.00    +0.129 C 
ATOM     19  C   UNL     1      -0.849  -7.423  44.975  0.00  0.00    +0.053 C 
ATOM     20  C   UNL     1       0.565  -6.922  44.711  0.00  0.00    +0.038 C 
ENDBRANCH  11  13
ENDBRANCH   9  10
TORSDOF 4
