REMARK  Name = 5AAA
REMARK  6 active torsions:
REMARK  status: ('A' for Active; 'I' for Inactive)
REMARK    1  A    between atoms: C_7  and  C_10
REMARK    2  A    between atoms: C_10  and  C_11
REMARK    3  A    between atoms: C_10  and  O_12
REMARK    4  A    between atoms: O_12  and  C_13
REMARK    5  A    between atoms: C_19  and  C_20
REMARK    6  A    between atoms: N_23  and  C_25
REMARK                            x       y       z     vdW  Elec       q    Type
REMARK                         _______ _______ _______ _____ _____    ______ ____
ROOT
ATOM      6  C   UNL     1      29.762  44.843   9.059  0.00  0.00    +0.161 A 
ATOM      7  C   UNL     1      28.764  44.615  10.063  0.00  0.00    +0.158 A 
ATOM      8  N   UNL     1      27.717  45.443  10.301  0.00  0.00    -0.236 NA
ATOM      9  C   UNL     1      27.594  46.575   9.541  0.00  0.00    +0.121 A 
ATOM     10  C   UNL     1      28.511  46.937   8.506  0.00  0.00    +0.007 A 
ATOM     23  N   UNL     1      28.853  43.456  10.865  0.00  0.00    -0.340 N 
ATOM     24  H   UNL     1      28.117  43.270  11.619  0.00  0.00    +0.144 HD
ATOM     25  H   UNL     1      29.656  42.764  10.719  0.00  0.00    +0.144 HD
ATOM     26  C   UNL     1      29.605  46.043   8.275  0.00  0.00    +0.059 A 
ENDROOT
BRANCH  10  11
ATOM     11  C   UNL     1      28.345  48.202   7.675  0.00  0.00    +0.021 A 
ATOM     12  C   UNL     1      27.225  49.026   7.598  0.00  0.00    +0.117 A 
ATOM     13  N   UNL     1      27.606  50.037   6.694  0.00  0.00    -0.268 N 
ATOM     21  N   UNL     1      28.807  49.876   6.258  0.00  0.00    -0.179 NA
ATOM     22  C   UNL     1      29.323  48.821   6.780  0.00  0.00    +0.143 A 
BRANCH  13  14
ATOM     14  C   UNL     1      26.760  51.181   6.257  0.00  0.00    +0.110 C 
ATOM     15  C   UNL     1      25.293  50.738   6.022  0.00  0.00    +0.042 C 
ATOM     16  C   UNL     1      24.456  51.956   5.575  0.00  0.00    +0.083 C 
ATOM     17  N   UNL     1      24.539  53.086   6.547  0.00  0.00    -0.316 NA
ATOM     18  H   UNL     1      24.007  53.923   6.145  0.00  0.00    +0.122 HD
ATOM     19  C   UNL     1      25.943  53.504   6.827  0.00  0.00    +0.083 C 
ATOM     20  C   UNL     1      26.825  52.322   7.299  0.00  0.00    +0.042 C 
ENDBRANCH  13  14
ENDBRANCH  10  11
BRANCH   6   5
ATOM      5  O   UNL     1      30.785  43.893   8.893  0.00  0.00    -0.481 OA
BRANCH   5   4
ATOM      4  C   UNL     1      32.062  44.107   8.196  0.00  0.00    +0.204 C 
ATOM     27  C   UNL     1      32.774  42.741   8.190  0.00  0.00    +0.057 C 
BRANCH   4   3
ATOM      1 CL   UNL     1      32.866  46.648   6.427  0.00  0.00    -0.083 Cl
ATOM      2  C   UNL     1      33.362  46.379   8.070  0.00  0.00    +0.049 A 
ATOM      3  C   UNL     1      32.973  45.206   8.846  0.00  0.00    +0.032 A 
ATOM     28  C   UNL     1      33.462  45.097  10.228  0.00  0.00    +0.084 A 
ATOM     29 CL   UNL     1      33.075  43.745  11.276  0.00  0.00    -0.080 Cl
ATOM     30  C   UNL     1      34.299  46.130  10.779  0.00  0.00    +0.142 A 
ATOM     31  F   UNL     1      34.756  46.051  12.034  0.00  0.00    -0.204 F 
ATOM     32  C   UNL     1      34.655  47.258   9.992  0.00  0.00    +0.041 A 
ATOM     33  C   UNL     1      34.192  47.381   8.655  0.00  0.00    +0.023 A 
ENDBRANCH   4   3
ENDBRANCH   5   4
ENDBRANCH   6   5
TORSDOF 5
