REMARK  Name = 5DR2
REMARK  3 active torsions:
REMARK  status: ('A' for Active; 'I' for Inactive)
REMARK    1  A    between atoms: C_7  and  C_8
REMARK    2  A    between atoms: C_13  and  C_14
REMARK    3  A    between atoms: C_14  and  O_16
REMARK                            x       y       z     vdW  Elec       q    Type
REMARK                         _______ _______ _______ _____ _____    ______ ____
ROOT
ATOM      5  C   UNL     1      -7.794 -11.668  13.877  0.00  0.00    +0.072 A 
ATOM      6  N   UNL     1      -8.576 -11.978  12.856  0.00  0.00    -0.247 NA
ATOM      7  C   UNL     1      -8.812 -11.019  11.909  0.00  0.00    +0.072 A 
ATOM      8  C   UNL     1      -9.621 -11.387  10.802  0.00  0.00    +0.028 A 
ATOM      9  C   UNL     1      -9.884 -10.476   9.831  0.00  0.00    +0.002 A 
ATOM     10  C   UNL     1      -9.337  -9.164   9.906  0.00  0.00    +0.001 A 
ATOM     11  C   UNL     1      -8.553  -8.794  10.951  0.00  0.00    +0.011 A 
ATOM     12  C   UNL     1      -8.275  -9.713  11.982  0.00  0.00    +0.014 A 
ATOM     13  C   UNL     1      -7.459  -9.430  13.104  0.00  0.00    +0.070 A 
ATOM     18  C   UNL     1      -7.206 -10.387  14.038  0.00  0.00    +0.044 A 
ENDROOT
BRANCH   5   4
ATOM      1 BR   UNL     1      -8.888 -16.596  15.449  0.00  0.00    -0.050 Br
ATOM      2  C   UNL     1      -7.925 -14.913  15.657  0.00  0.00    +0.018 A 
ATOM      3  C   UNL     1      -8.179 -13.951  14.709  0.00  0.00    +0.025 A 
ATOM      4  C   UNL     1      -7.538 -12.728  14.853  0.00  0.00    +0.001 A 
ATOM     19  C   UNL     1      -6.670 -12.512  15.936  0.00  0.00    +0.010 A 
ATOM     20  C   UNL     1      -6.454 -13.531  16.855  0.00  0.00    +0.002 A 
ATOM     21  C   UNL     1      -7.082 -14.756  16.726  0.00  0.00    +0.015 A 
ENDBRANCH   5   4
BRANCH  13  14
ATOM     14  C   UNL     1      -6.838  -8.108  13.279  0.00  0.00    +0.338 C 
ATOM     17  O   UNL     1      -6.417  -7.670  14.318  0.00  0.00    -0.245 OA
BRANCH  14  15
ATOM     15  O   UNL     1      -6.677  -7.301  12.207  0.00  0.00    -0.477 OA
ATOM     16  H   UNL     1      -6.070  -7.779  11.496  0.00  0.00    +0.295 HD
ENDBRANCH  14  15
ENDBRANCH  13  14
TORSDOF 3
