REMARK  Name = 5XDL
REMARK  10 active torsions:
REMARK  status: ('A' for Active; 'I' for Inactive)
REMARK    1  A    between atoms: C_2  and  C_29
REMARK    2  A    between atoms: C_7  and  O_40
REMARK    3  A    between atoms: C_8  and  C_22
REMARK    4  A    between atoms: C_16  and  C_17
REMARK    5  A    between atoms: C_17  and  C_23
REMARK    6  A    between atoms: C_24  and  N_33
REMARK    7  A    between atoms: C_25  and  N_34
REMARK    8  A    between atoms: C_26  and  N_37
REMARK    9  A    between atoms: C_27  and  N_35
REMARK   10  A    between atoms: C_28  and  O_40
REMARK                            x       y       z     vdW  Elec       q    Type
REMARK                         _______ _______ _______ _____ _____    ______ ____
ROOT
ATOM      1  C   UNL     1     -50.914   0.709 -21.119  0.00  0.00    +0.147 A 
ATOM      2  N   UNL     1     -49.945  -0.081 -21.608  0.00  0.00    -0.230 NA
ATOM     15  N   UNL     1     -50.985   0.980 -19.810  0.00  0.00    -0.312 N 
ATOM     16  H   UNL     1     -50.247   0.558 -19.160  0.00  0.00    +0.170 HD
ATOM     17  C   UNL     1     -51.942   1.759 -19.275  0.00  0.00    +0.199 A 
ATOM     18  N   UNL     1     -52.042   2.055 -17.948  0.00  0.00    -0.282 N 
ATOM     19  H   UNL     1     -52.901   2.610 -17.634  0.00  0.00    +0.155 HD
ATOM     37  N   UNL     1     -52.864   2.286 -20.094  0.00  0.00    -0.224 NA
ATOM     38  C   UNL     1     -52.845   2.035 -21.468  0.00  0.00    +0.130 A 
ATOM     39  C   UNL     1     -51.854   1.230 -22.014  0.00  0.00    +0.115 A 
ENDROOT
BRANCH   2   3
ATOM      3  C   UNL     1     -49.058  -0.552 -20.724  0.00  0.00    +0.068 A 
ATOM      4  C   UNL     1     -49.163  -1.853 -20.188  0.00  0.00    +0.051 A 
ATOM      5  C   UNL     1     -48.224  -2.320 -19.255  0.00  0.00    +0.035 A 
ATOM     12  C   UNL     1     -47.192  -1.468 -18.879  0.00  0.00    +0.023 A 
ATOM     13  C   UNL     1     -47.080  -0.183 -19.401  0.00  0.00    +0.004 A 
ATOM     14  C   UNL     1     -48.012   0.283 -20.325  0.00  0.00    +0.028 A 
BRANCH   5   6
ATOM      6  N   UNL     1     -48.205  -3.547 -18.685  0.00  0.00    -0.285 N 
ATOM      7  H   UNL     1     -47.736  -3.653 -17.729  0.00  0.00    +0.155 HD
ATOM      8  C   UNL     1     -48.747  -4.649 -19.257  0.00  0.00    +0.217 C 
ATOM      9  O   UNL     1     -49.386  -4.684 -20.312  0.00  0.00    -0.276 OA
BRANCH   8  10
ATOM     10  C   UNL     1     -48.511  -5.935 -18.461  0.00  0.00    +0.096 C 
ATOM     11  C   UNL     1     -49.737  -6.861 -18.532  0.00  0.00    +0.010 C 
ENDBRANCH   8  10
ENDBRANCH   5   6
ENDBRANCH   2   3
BRANCH  18  20
ATOM     20  C   UNL     1     -51.140   1.704 -16.987  0.00  0.00    +0.076 A 
ATOM     21  C   UNL     1     -51.112   2.554 -15.883  0.00  0.00    +0.143 A 
ATOM     24  C   UNL     1     -50.244   2.318 -14.812  0.00  0.00    +0.070 A 
ATOM     25  C   UNL     1     -49.379   1.213 -14.806  0.00  0.00    +0.033 A 
ATOM     35  C   UNL     1     -49.402   0.358 -15.917  0.00  0.00    +0.025 A 
ATOM     36  C   UNL     1     -50.279   0.598 -16.983  0.00  0.00    +0.029 A 
BRANCH  25  26
ATOM     26  N   UNL     1     -48.542   1.028 -13.734  0.00  0.00    -0.327 N 
ATOM     27  C   UNL     1     -48.264   2.145 -12.786  0.00  0.00    +0.124 C 
ATOM     28  C   UNL     1     -46.797   2.602 -12.949  0.00  0.00    +0.126 C 
ATOM     29  N   UNL     1     -45.847   1.435 -12.873  0.00  0.00    -0.299 N 
ATOM     30  C   UNL     1     -44.632   1.603 -12.274  0.00  0.00    +0.213 C 
ATOM     31  O   UNL     1     -43.779   0.717 -12.154  0.00  0.00    -0.276 OA
ATOM     32  C   UNL     1     -44.360   3.012 -11.703  0.00  0.00    +0.109 C 
ATOM     33  C   UNL     1     -46.240   0.099 -13.480  0.00  0.00    +0.126 C 
ATOM     34  C   UNL     1     -47.763  -0.212 -13.468  0.00  0.00    +0.124 C 
ENDBRANCH  25  26
BRANCH  21  22
ATOM     22  O   UNL     1     -51.980   3.622 -15.931  0.00  0.00    -0.493 OA
ATOM     23  C   UNL     1     -51.920   4.551 -14.836  0.00  0.00    +0.277 C 
ENDBRANCH  21  22
ENDBRANCH  18  20
BRANCH  39  40
ATOM     40  C   UNL     1     -51.847   0.963 -23.419  0.00  0.00    +0.422 C 
ATOM     41  F   UNL     1     -52.776   1.802 -24.060  0.00  0.00    -0.166 F 
ATOM     42  F   UNL     1     -50.651   1.118 -23.943  0.00  0.00    -0.166 F 
ATOM     43  F   UNL     1     -52.211  -0.365 -23.666  0.00  0.00    -0.166 F 
ENDBRANCH  39  40
TORSDOF 7
