REMARK  Name = 1YI4
REMARK  6 active torsions:
REMARK  status: ('A' for Active; 'I' for Inactive)
REMARK    1  A    between atoms: O5*_1  and  C5*_2
REMARK    2  A    between atoms: C5*_2  and  C4*_3
REMARK    3  A    between atoms: C3*_5  and  O3*_6
REMARK    4  A    between atoms: C2*_7  and  O2*_8
REMARK    5  A    between atoms: C1*_9  and  N9_10
REMARK    6  A    between atoms: C6_14  and  N6_15
REMARK                            x       y       z     vdW  Elec       q    Type
REMARK                         _______ _______ _______ _____ _____    ______ ____
ROOT
ATOM      4  C4*   A A   1     -18.711  36.734  -4.721  0.00  0.00    +0.177 C 
ATOM      5  C3*   A A   1     -18.223  38.128  -4.344  0.00  0.00    +0.178 C 
ATOM      6  C2*   A A   1     -19.483  38.766  -3.796  0.00  0.00    +0.195 C 
ATOM      7  C1*   A A   1     -20.212  37.595  -3.129  0.00  0.00    +0.253 C 
ATOM     24  O4*   A A   1     -19.703  36.424  -3.759  0.00  0.00    -0.346 OA
ENDROOT
BRANCH   7   8
ATOM      8  N9    A A   1     -19.913  37.547  -1.682  0.00  0.00    -0.285 N 
ATOM      9  C4    A A   1     -20.494  38.379  -0.732  0.00  0.00    +0.167 A 
ATOM     10  N3    A A   1     -21.418  39.353  -0.867  0.00  0.00    -0.216 NA
ATOM     11  C2    A A   1     -21.794  39.981   0.251  0.00  0.00    +0.225 A 
ATOM     12  N1    A A   1     -21.320  39.711   1.479  0.00  0.00    -0.219 NA
ATOM     13  C6    A A   1     -20.401  38.741   1.595  0.00  0.00    +0.147 A 
ATOM     17  C5    A A   1     -19.949  38.036   0.520  0.00  0.00    +0.147 A 
ATOM     18  N7    A A   1     -19.039  37.003   0.337  0.00  0.00    -0.231 NA
ATOM     19  C8    A A   1     -19.064  36.756  -0.990  0.00  0.00    +0.203 A 
BRANCH  13  14
ATOM     14  N6    A A   1     -19.937  38.487   2.830  0.00  0.00    -0.341 N 
ATOM     15  H61   A A   1     -20.301  39.049   3.664  0.00  0.00    +0.144 HD
ATOM     16  H62   A A   1     -19.203  37.723   2.979  0.00  0.00    +0.144 HD
ENDBRANCH  13  14
ENDBRANCH   7   8
BRANCH   6  20
ATOM     20  O2*   A A   1     -20.235  39.239  -4.880  0.00  0.00    -0.385 OA
ATOM     21  H2*   A A   1     -19.673  39.947  -5.414  0.00  0.00    +0.210 HD
ENDBRANCH   6  20
BRANCH   5  22
ATOM     22  O3*   A A   1     -17.746  38.829  -5.506  0.00  0.00    -0.386 OA
ATOM     23  H3*   A A   1     -16.950  38.295  -5.935  0.00  0.00    +0.210 HD
ENDBRANCH   5  22
BRANCH   4   3
ATOM      3  C5*   A A   1     -17.619  35.660  -4.722  0.00  0.00    +0.190 C 
BRANCH   3   1
ATOM      1  O5*   A A   1     -16.339  36.219  -4.866  0.00  0.00    -0.392 OA
ATOM      2  H5*   A A   1     -16.286  36.744  -5.774  0.00  0.00    +0.209 HD
ENDBRANCH   3   1
ENDBRANCH   4   3
TORSDOF 6
