REMARK  Name = 5DPV
REMARK  3 active torsions:
REMARK  status: ('A' for Active; 'I' for Inactive)
REMARK    1  A    between atoms: O_1  and  C_2
REMARK    2  A    between atoms: C_2  and  C_4
REMARK    3  A    between atoms: C_6  and  C_7
REMARK                            x       y       z     vdW  Elec       q    Type
REMARK                         _______ _______ _______ _____ _____    ______ ____
ROOT
ATOM      4  C   UNL     1      -5.637  -9.029  12.907  0.00  0.00    +0.070 A 
ATOM      5  C   UNL     1      -6.326  -9.092  11.669  0.00  0.00    +0.017 A 
ATOM      6  C   UNL     1      -6.355  -8.024  10.742  0.00  0.00    +0.011 A 
ATOM      7  C   UNL     1      -7.041  -8.158   9.566  0.00  0.00    +0.004 A 
ATOM      8  C   UNL     1      -7.731  -9.349   9.252  0.00  0.00    +0.040 A 
ATOM      9  C   UNL     1      -7.713 -10.397  10.144  0.00  0.00    +0.149 A 
ATOM     10  F   UNL     1      -8.356 -11.516   9.857  0.00  0.00    -0.203 F 
ATOM     11  C   UNL     1      -7.003 -10.295  11.388  0.00  0.00    +0.108 A 
ATOM     12  N   UNL     1      -7.021 -11.378  12.242  0.00  0.00    -0.244 NA
ATOM     13  C   UNL     1      -6.359 -11.273  13.393  0.00  0.00    +0.073 A 
ATOM     21  C   UNL     1      -5.642 -10.090  13.765  0.00  0.00    +0.044 A 
ENDROOT
BRANCH  13  14
ATOM     14  C   UNL     1      -6.385 -12.435  14.295  0.00  0.00    +0.001 A 
ATOM     15  C   UNL     1      -7.083 -13.592  13.938  0.00  0.00    +0.025 A 
ATOM     16  C   UNL     1      -7.075 -14.654  14.823  0.00  0.00    +0.018 A 
ATOM     17 BR   UNL     1      -8.040 -16.262  14.333  0.00  0.00    -0.050 Br
ATOM     18  C   UNL     1      -6.416 -14.632  16.036  0.00  0.00    +0.015 A 
ATOM     19  C   UNL     1      -5.726 -13.474  16.380  0.00  0.00    +0.002 A 
ATOM     20  C   UNL     1      -5.711 -12.385  15.517  0.00  0.00    +0.010 A 
ENDBRANCH  13  14
BRANCH   4   3
ATOM      3  C   UNL     1      -4.901  -7.800  13.278  0.00  0.00    +0.338 C 
ATOM     22  O   UNL     1      -3.695  -7.661  13.265  0.00  0.00    -0.245 OA
BRANCH   3   1
ATOM      1  O   UNL     1      -5.618  -6.721  13.672  0.00  0.00    -0.477 OA
ATOM      2  H   UNL     1      -5.345  -6.457  14.651  0.00  0.00    +0.295 HD
ENDBRANCH   3   1
ENDBRANCH   4   3
TORSDOF 3
