REMARK  Name = 1UKI
REMARK  0 active torsions:
REMARK  status: ('A' for Active; 'I' for Inactive)
REMARK                            x       y       z     vdW  Elec       q    Type
REMARK                         _______ _______ _______ _____ _____    ______ ____
ROOT
ATOM      1  C   UNL     1       5.465  39.879  31.253  0.00  0.00    +0.001 A 
ATOM      2  C   UNL     1       5.691  40.655  30.078  0.00  0.00    +0.001 A 
ATOM      3  C   UNL     1       4.707  40.685  29.041  0.00  0.00    +0.012 A 
ATOM      4  C   UNL     1       3.484  39.940  29.174  0.00  0.00    +0.032 A 
ATOM      5  C   UNL     1       2.459  39.953  28.115  0.00  0.00    +0.195 A 
ATOM      6  O   UNL     1       2.627  40.645  27.028  0.00  0.00    -0.287 OA
ATOM      7  C   UNL     1       1.261  39.189  28.296  0.00  0.00    +0.034 A 
ATOM      8  C   UNL     1       0.171  39.093  27.360  0.00  0.00    +0.012 A 
ATOM      9  C   UNL     1      -0.978  38.264  27.694  0.00  0.00    +0.003 A 
ATOM     10  C   UNL     1      -1.022  37.544  28.958  0.00  0.00    +0.028 A 
ATOM     11  C   UNL     1       0.094  37.689  29.835  0.00  0.00    +0.067 A 
ATOM     12  N   UNL     1       0.375  37.171  31.065  0.00  0.00    -0.276 N 
ATOM     13  H   UNL     1      -0.267  36.513  31.613  0.00  0.00    +0.189 HD
ATOM     14  N   UNL     1       1.571  37.605  31.490  0.00  0.00    -0.173 NA
ATOM     15  C   UNL     1       2.058  38.419  30.501  0.00  0.00    +0.102 A 
ATOM     16  C   UNL     1       1.141  38.462  29.494  0.00  0.00    +0.038 A 
ATOM     17  C   UNL     1       3.272  39.148  30.392  0.00  0.00    +0.014 A 
ATOM     18  C   UNL     1       4.256  39.126  31.413  0.00  0.00    +0.011 A 
ENDROOT
TORSDOF 0
