REMARK  Name = 6Q4C
REMARK  0 active torsions:
REMARK  status: ('A' for Active; 'I' for Inactive)
REMARK                            x       y       z     vdW  Elec       q    Type
REMARK                         _______ _______ _______ _____ _____    ______ ____
ROOT
ATOM      1  C   UNL     1      -0.728  -6.325 -26.412  0.00  0.00    +0.000 A 
ATOM      2  N   UNL     1      -1.649  -5.804 -25.566  0.00  0.00    -0.380 NA
ATOM      3  C   UNL     1      -1.942  -4.522 -25.701  0.00  0.00    +0.250 A 
ATOM      4  C   UNL     1      -1.386  -3.655 -26.654  0.00  0.00    -0.130 A 
ATOM      5  C   UNL     1      -0.456  -4.149 -27.496  0.00  0.00    -0.130 A 
ATOM      6  N   UNL     1      -0.435  -7.649 -26.271  0.00  0.00    -0.380 NA
ATOM      7  C   UNL     1       0.471  -8.167 -27.087  0.00  0.00    +0.250 A 
ATOM      8  C   UNL     1       1.141  -7.430 -28.081  0.00  0.00    -0.130 A 
ATOM      9  C   UNL     1       0.851  -6.129 -28.230  0.00  0.00    +0.000 A 
ATOM     10 BR   UNL     1       1.741  -5.048 -29.511  0.00  0.00    +0.000 Br
ATOM     11  C   UNL     1      -0.100  -5.518 -27.404  0.00  0.00    +0.000 A 
ENDROOT
TORSDOF 0
