REMARK  Name = 1sm2_ligand
REMARK  5 active torsions:
REMARK  status: ('A' for Active; 'I' for Inactive)
REMARK    1  A    between atoms: C24_24  and  C35_35
REMARK    2  A    between atoms: C25_25  and  O33_33
REMARK    3  A    between atoms: C26_26  and  N31_31
REMARK    4  A    between atoms: N31_31  and  C32_32
REMARK    5  A    between atoms: O33_33  and  C34_34
REMARK                            x       y       z     vdW  Elec       q    Type
REMARK                         _______ _______ _______ _____ _____    ______ ____
ROOT
ATOM      1  C   UNL     1      18.810  -7.376   4.901  0.00  0.00    -0.013 A 
ATOM      2  C   UNL     1      19.901  -8.144   5.432  0.00  0.00    -0.007 A 
ATOM      3  C   UNL     1      21.123  -8.311   4.859  0.00  0.00    +0.001 A 
ATOM      4  C   UNL     1      21.809  -7.883   3.624  0.00  0.00    -0.017 A 
ATOM      5  C   UNL     1      21.284  -6.979   2.499  0.00  0.00    +0.196 C 
ATOM      6  N   UNL     1      22.474  -6.863   1.617  0.00  0.00    -0.279 N 
ATOM      7  H   UNL     1      22.523  -6.289   0.800  0.00  0.00    +0.186 HD
ATOM      8  C   UNL     1      23.481  -7.641   2.072  0.00  0.00    +0.187 C 
ATOM      9  O   UNL     1      24.544  -7.794   1.495  0.00  0.00    -0.396 OA
ATOM     10  C   UNL     1      23.103  -8.238   3.352  0.00  0.00    +0.032 A 
ATOM     11  C   UNL     1      23.796  -9.028   4.267  0.00  0.00    -0.002 A 
ATOM     12  C   UNL     1      25.062  -9.596   4.333  0.00  0.00    -0.007 A 
ATOM     13  C   UNL     1      26.108  -9.510   3.349  0.00  0.00    -0.011 A 
ATOM     14  C   UNL     1      27.330 -10.211   3.596  0.00  0.00    -0.023 A 
ATOM     15  C   UNL     1      27.505 -10.983   4.796  0.00  0.00    -0.016 A 
ATOM     16  C   UNL     1      26.466 -11.066   5.782  0.00  0.00    +0.014 A 
ATOM     17  C   UNL     1      25.250 -10.376   5.556  0.00  0.00    +0.068 A 
ATOM     18  N   UNL     1      24.075 -10.303   6.316  0.00  0.00    -0.238 N 
ATOM     19  C   UNL     1      23.844 -10.938   7.617  0.00  0.00    +0.260 C 
ATOM     20  O   UNL     1      22.426 -11.189   7.808  0.00  0.00    -0.315 OA
ATOM     21  C   UNL     1      21.503 -10.157   8.146  0.00  0.00    +0.202 C 
ATOM     22  C   UNL     1      20.386 -10.880   8.903  0.00  0.00    +0.079 C 
ATOM     23  C   UNL     1      22.088  -9.106   9.177  0.00  0.00    +0.227 C 
ATOM     26  C   UNL     1      23.326  -9.763   9.815  0.00  0.00    +0.102 C 
ATOM     31  N   UNL     1      21.082  -9.437   6.911  0.00  0.00    -0.229 N 
ATOM     32  C   UNL     1      24.348 -10.043   8.758  0.00  0.00    +0.120 C 
ATOM     33  C   UNL     1      23.256  -9.509   5.512  0.00  0.00    +0.095 A 
ATOM     34  C   UNL     1      21.860  -9.127   5.805  0.00  0.00    +0.098 A 
ATOM     35  C   UNL     1      19.847  -8.811   6.663  0.00  0.00    +0.070 A 
ATOM     36  C   UNL     1      18.617  -8.703   7.430  0.00  0.00    +0.013 A 
ATOM     37  C   UNL     1      17.494  -7.916   6.918  0.00  0.00    -0.018 A 
ATOM     38  C   UNL     1      17.588  -7.253   5.654  0.00  0.00    -0.024 A 
ENDROOT
BRANCH  26  27
ATOM     27  N   UNL     1      23.893  -8.867  10.823  0.00  0.00    +0.229 N 
ATOM     28  H   UNL     1      24.461  -8.182  10.349  0.00  0.00    +0.201 HD
ATOM     29  H   UNL     1      23.132  -8.404  11.294  0.00  0.00    +0.201 HD
ATOM     30  C   UNL     1      24.734  -9.533  11.850  0.00  0.00    +0.189 C 
ENDBRANCH  26  27
BRANCH  23  24
ATOM     24  O   UNL     1      22.612  -7.906   8.545  0.00  0.00    -0.369 OA
ATOM     25  C   UNL     1      21.853  -6.710   8.556  0.00  0.00    +0.195 C 
ENDBRANCH  23  24
TORSDOF 2
