REMARK  Name = 75F
REMARK  2 active torsions:
REMARK  status: ('A' for Active; 'I' for Inactive)
REMARK    1  A    between atoms: C6_12  and  C13_13
REMARK    2  A    between atoms: C6_12  and  C7_19
REMARK                            x       y       z     vdW  Elec       q    Type
REMARK                         _______ _______ _______ _____ _____    ______ ____
ROOT
ATOM      3  C   UNL     1     -17.591  22.592  -3.781  0.00  0.00    +0.054 C 
ATOM     10  C   UNL     1     -18.894  22.252  -3.144  0.00  0.00    +0.040 A 
ATOM     11  C   UNL     1     -19.330  21.012  -2.800  0.00  0.00    +0.121 A 
ATOM     12  N   UNL     1     -20.555  21.227  -2.262  0.00  0.00    -0.145 NA
ATOM     13  N   UNL     1     -20.879  22.590  -2.271  0.00  0.00    -0.129 NA
ATOM     14  C   UNL     1     -19.828  23.157  -2.813  0.00  0.00    +0.181 A 
ATOM     15  N   UNL     1     -19.613  24.494  -3.076  0.00  0.00    -0.234 NA
ATOM     16  C   UNL     1     -18.704  24.950  -3.850  0.00  0.00    +0.046 C 
ATOM     17  C   UNL     1     -18.723  26.393  -4.198  0.00  0.00    +0.042 C 
ATOM     18  C   UNL     1     -17.329  26.956  -4.190  0.00  0.00    +0.012 C 
ATOM     19  C   UNL     1     -16.864  27.163  -2.773  0.00  0.00    +0.001 C 
ATOM     20  C   UNL     1     -17.421  28.290  -4.869  0.00  0.00    +0.001 C 
ATOM     21  C   UNL     1     -16.337  26.111  -4.949  0.00  0.00    +0.065 C 
ATOM     22  C   UNL     1     -16.356  24.660  -4.586  0.00  0.00    +0.156 C 
ATOM     23  O   UNL     1     -15.325  24.048  -4.481  0.00  0.00    -0.296 OA
ATOM     24  C   UNL     1     -17.673  23.997  -4.438  0.00  0.00    +0.101 C 
ENDROOT
BRANCH   3   4
ATOM      4  C   UNL     1     -16.625  22.556  -2.650  0.00  0.00    -0.018 A 
ATOM      5  C   UNL     1     -16.494  23.664  -1.861  0.00  0.00    -0.004 A 
ATOM      6  C   UNL     1     -15.616  23.657  -0.800  0.00  0.00    -0.000 A 
ATOM      7  C   UNL     1     -14.875  22.540  -0.516  0.00  0.00    -0.000 A 
ATOM      8  C   UNL     1     -15.005  21.421  -1.294  0.00  0.00    -0.000 A 
ATOM      9  C   UNL     1     -15.883  21.432  -2.350  0.00  0.00    -0.004 A 
ENDBRANCH   3   4
BRANCH   3   2
ATOM      1  C   UNL     1     -18.061  21.714  -6.096  0.00  0.00    +0.001 C 
ATOM      2  C   UNL     1     -17.248  21.568  -4.839  0.00  0.00    +0.009 C 
ENDBRANCH   3   2
TORSDOF 2
