REMARK  Name = 2xix_ligand
REMARK  0 active torsions:
REMARK  status: ('A' for Active; 'I' for Inactive)
REMARK                            x       y       z     vdW  Elec       q    Type
REMARK                         _______ _______ _______ _____ _____    ______ ____
ROOT
ATOM      1  N   UNL     1     -21.901 -35.517  -1.133  0.00  0.00    -0.297 NA
ATOM      2  C   UNL     1     -21.861 -34.562  -0.185  0.00  0.00    +0.210 A 
ATOM      3  N   UNL     1     -21.482 -33.294  -0.395  0.00  0.00    -0.297 N 
ATOM      4  H   UNL     1     -21.479 -32.622   0.385  0.00  0.00    +0.180 HD
ATOM      5  H   UNL     1     -21.194 -32.992  -1.337  0.00  0.00    +0.180 HD
ATOM      6  N   UNL     1     -22.253 -35.068   0.985  0.00  0.00    -0.195 N 
ATOM      7  H   UNL     1     -22.334 -34.596   1.897  0.00  0.00    +0.242 HD
ATOM      8  C   UNL     1     -22.515 -36.348   0.676  0.00  0.00    +0.210 A 
ATOM      9  N   UNL     1     -22.950 -37.278   1.533  0.00  0.00    -0.297 N 
ATOM     10  H   UNL     1     -23.110 -37.034   2.521  0.00  0.00    +0.180 HD
ATOM     11  H   UNL     1     -23.125 -38.239   1.205  0.00  0.00    +0.180 HD
ATOM     12  N   UNL     1     -22.290 -36.581  -0.627  0.00  0.00    -0.297 NA
ENDROOT
TORSDOF 0
