REMARK  Name = 4pp9_ligand
REMARK  5 active torsions:
REMARK  status: ('A' for Active; 'I' for Inactive)
REMARK    1  A    between atoms: C7_7  and  C11_10
REMARK    2  A    between atoms: N13_12  and  C14_13
REMARK    3  A    between atoms: N17_16  and  C19_18
REMARK    4  A    between atoms: C19_18  and  C20_19
REMARK    5  A    between atoms: C24_23  and  C26_25
REMARK                            x       y       z     vdW  Elec       q    Type
REMARK                         _______ _______ _______ _____ _____    ______ ____
ROOT
ATOM      5  C   UNL     1     -11.307   4.863 -25.076  0.00  0.00    +0.231 C 
ATOM      6  N   UNL     1     -11.119   5.233 -26.376  0.00  0.00    -0.253 N 
ATOM      7  H   UNL     1     -10.780   6.158 -26.546  0.00  0.00    +0.212 HD
ATOM     22  O   UNL     1     -11.725   3.752 -24.787  0.00  0.00    -0.380 OA
ENDROOT
BRANCH   5   4
ATOM      1  C   UNL     1     -10.995   4.526 -20.351  0.00  0.00    -0.018 A 
ATOM      2  C   UNL     1     -11.147   4.405 -21.715  0.00  0.00    -0.004 A 
ATOM      3  C   UNL     1     -10.955   5.533 -22.533  0.00  0.00    +0.028 A 
ATOM      4  C   UNL     1     -11.008   5.814 -23.980  0.00  0.00    +0.139 A 
ATOM     23  N   UNL     1     -10.729   7.097 -24.106  0.00  0.00    -0.176 NA
ATOM     24  N   UNL     1     -10.489   7.672 -22.980  0.00  0.00    -0.205 N 
ATOM     25  H   UNL     1     -10.238   8.665 -22.874  0.00  0.00    +0.250 HD
ATOM     26  C   UNL     1     -10.612   6.786 -21.941  0.00  0.00    +0.093 A 
ATOM     27  C   UNL     1     -10.478   6.883 -20.547  0.00  0.00    +0.022 A 
ATOM     28  C   UNL     1     -10.672   5.761 -19.769  0.00  0.00    -0.012 A 
ENDBRANCH   5   4
BRANCH   6   8
ATOM      8  C   UNL     1     -11.366   4.410 -27.510  0.00  0.00    +0.074 A 
ATOM      9  C   UNL     1     -11.245   4.784 -28.815  0.00  0.00    +0.139 A 
ATOM     10  N   UNL     1     -11.552   3.708 -29.595  0.00  0.00    -0.211 N 
ATOM     20  N   UNL     1     -11.873   2.649 -28.748  0.00  0.00    -0.223 NA
ATOM     21  C   UNL     1     -11.756   3.059 -27.515  0.00  0.00    +0.082 A 
BRANCH  10  11
ATOM     11  C   UNL     1     -11.550   3.640 -31.056  0.00  0.00    +0.260 C 
BRANCH  11  12
ATOM     12  C   UNL     1     -12.819   4.252 -31.564  0.00  0.00    -0.001 A 
ATOM     13  C   UNL     1     -12.846   5.605 -31.883  0.00  0.00    +0.043 A 
ATOM     14  C   UNL     1     -14.043   6.185 -32.336  0.00  0.00    +0.089 A 
ATOM     17  C   UNL     1     -15.199   5.396 -32.453  0.00  0.00    +0.032 A 
ATOM     18  C   UNL     1     -15.156   4.045 -32.128  0.00  0.00    +0.005 A 
ATOM     19  C   UNL     1     -13.967   3.474 -31.680  0.00  0.00    +0.014 A 
BRANCH  14  15
ATOM     15  C   UNL     1     -14.076   7.575 -32.677  0.00  0.00    +0.099 C 
ATOM     16  N   UNL     1     -14.096   8.679 -32.946  0.00  0.00    -0.328 NA
ENDBRANCH  14  15
ENDBRANCH  11  12
ENDBRANCH  10  11
ENDBRANCH   6   8
TORSDOF 5
