REMARK  Name = 4A07
REMARK  5 active torsions:
REMARK  status: ('A' for Active; 'I' for Inactive)
REMARK    1  A    between atoms: C_9  and  C_12
REMARK    2  A    between atoms: C_12  and  C_13
REMARK    3  A    between atoms: C_13  and  C_14
REMARK    4  A    between atoms: C_13  and  C_18
REMARK    5  A    between atoms: C_14  and  C_15
REMARK                            x       y       z     vdW  Elec       q    Type
REMARK                         _______ _______ _______ _____ _____    ______ ____
ROOT
ATOM      9  C   UNL     1      -9.672  40.164  -9.179  0.00  0.00    +0.082 C 
ENDROOT
BRANCH   9   8
ATOM      1 CL   UNL     1     -14.834  40.347 -14.925  0.00  0.00    -0.083 Cl
ATOM      2  C   UNL     1     -14.075  40.076 -13.322  0.00  0.00    +0.044 A 
ATOM      3  C   UNL     1     -12.740  40.438 -13.118  0.00  0.00    +0.050 A 
ATOM      4  C   UNL     1     -12.131  40.234 -11.884  0.00  0.00    +0.092 A 
ATOM      5  C   UNL     1     -12.911  39.631 -10.790  0.00  0.00    +0.085 A 
ATOM      6  N   UNL     1     -12.084  39.554  -9.729  0.00  0.00    -0.341 N 
ATOM      7  H   UNL     1     -12.340  39.175  -8.762  0.00  0.00    +0.167 HD
ATOM      8  C   UNL     1     -10.870  40.040 -10.096  0.00  0.00    +0.109 A 
ATOM     22  C   UNL     1     -14.324  39.260 -11.054  0.00  0.00    +0.068 A 
ATOM     23 CL   UNL     1     -15.332  38.520  -9.770  0.00  0.00    -0.081 Cl
ATOM     24  N   UNL     1     -10.910  40.462 -11.380  0.00  0.00    -0.232 NA
ATOM     25  C   UNL     1     -14.851  39.499 -12.318  0.00  0.00    +0.042 A 
ENDBRANCH   9   8
BRANCH   9  10
ATOM     10  C   UNL     1      -8.796  38.936  -8.893  0.00  0.00    +0.032 C 
BRANCH  10  11
ATOM     11  C   UNL     1      -9.375  37.591  -9.153  0.00  0.00    -0.043 A 
ATOM     12  C   UNL     1     -10.460  37.128  -8.419  0.00  0.00    +0.005 A 
ATOM     13  C   UNL     1     -10.957  35.852  -8.661  0.00  0.00    +0.020 A 
ATOM     14  C   UNL     1     -10.362  35.029  -9.616  0.00  0.00    +0.041 A 
ATOM     15 CL   UNL     1     -11.012  33.379  -9.918  0.00  0.00    -0.084 Cl
ATOM     16  C   UNL     1      -9.263  35.484 -10.338  0.00  0.00    +0.020 A 
ATOM     17  C   UNL     1      -8.766  36.759 -10.091  0.00  0.00    +0.005 A 
ENDBRANCH  10  11
BRANCH  10  18
ATOM     18  C   UNL     1      -7.448  39.043  -9.605  0.00  0.00    +0.060 C 
BRANCH  18  19
ATOM     19  C   UNL     1      -6.480  38.102  -8.919  0.00  0.00    +0.042 C 
ATOM     20  O   UNL     1      -6.279  38.247  -7.692  0.00  0.00    -0.550 OA
ATOM     21  O   UNL     1      -5.923  37.209  -9.597  0.00  0.00    -0.550 OA
ENDBRANCH  18  19
ENDBRANCH  10  18
ENDBRANCH   9  10
TORSDOF 5
