REMARK  Name = 5NGU
REMARK  4 active torsions:
REMARK  status: ('A' for Active; 'I' for Inactive)
REMARK    1  A    between atoms: C_6  and  N_24
REMARK    2  A    between atoms: C_12  and  C_13
REMARK    3  A    between atoms: C_26  and  N_27
REMARK    4  A    between atoms: N_29  and  C_30
REMARK                            x       y       z     vdW  Elec       q    Type
REMARK                         _______ _______ _______ _____ _____    ______ ____
ROOT
ATOM     11  N   UNL     1     -19.008  12.586  42.186  0.00  0.00    -0.284 N 
ATOM     12  H   UNL     1     -19.802  12.775  41.494  0.00  0.00    +0.155 HD
ATOM     13  C   UNL     1     -17.917  12.045  41.392  0.00  0.00    +0.220 A 
ATOM     14  N   UNL     1     -16.648  12.540  41.461  0.00  0.00    -0.213 NA
ATOM     15  C   UNL     1     -15.650  12.001  40.707  0.00  0.00    +0.094 A 
ATOM     27  C   UNL     1     -15.926  10.933  39.857  0.00  0.00    +0.050 A 
ATOM     28  C   UNL     1     -17.224  10.446  39.804  0.00  0.00    +0.116 A 
ATOM     29  N   UNL     1     -18.184  11.002  40.566  0.00  0.00    -0.223 NA
ENDROOT
BRANCH  15  16
ATOM     16  C   UNL     1     -14.247  12.501  40.774  0.00  0.00    +0.090 A 
ATOM     17  N   UNL     1     -14.016  13.571  41.557  0.00  0.00    -0.249 NA
ATOM     18  C   UNL     1     -12.699  13.835  41.489  0.00  0.00    +0.056 A 
ATOM     19  C   UNL     1     -12.124  12.895  40.647  0.00  0.00    +0.060 A 
ATOM     20  C   UNL     1     -10.655  12.966  40.438  0.00  0.00    +0.246 C 
ATOM     21  O   UNL     1     -10.161  12.302  39.541  0.00  0.00    -0.270 OA
ATOM     22  N   UNL     1      -9.857  13.765  41.320  0.00  0.00    -0.311 N 
ATOM     23  H   UNL     1      -9.147  13.102  41.769  0.00  0.00    +0.149 HD
ATOM     24  C   UNL     1     -10.462  14.528  42.416  0.00  0.00    +0.111 C 
ATOM     25  C   UNL     1     -11.930  14.936  42.193  0.00  0.00    +0.075 C 
ATOM     26  C   UNL     1     -13.088  12.037  40.175  0.00  0.00    +0.044 A 
ENDBRANCH  15  16
BRANCH  11  10
ATOM      7  C   UNL     1     -18.735  16.156  44.607  0.00  0.00    +0.030 A 
ATOM      8  C   UNL     1     -17.718  15.182  44.566  0.00  0.00    +0.025 A 
ATOM      9  C   UNL     1     -17.790  14.025  43.794  0.00  0.00    +0.025 A 
ATOM     10  C   UNL     1     -18.911  13.779  43.004  0.00  0.00    +0.034 A 
ATOM     30  C   UNL     1     -19.954  14.702  43.014  0.00  0.00    +0.025 A 
ATOM     31  C   UNL     1     -19.857  15.855  43.801  0.00  0.00    +0.025 A 
BRANCH   7   6
ATOM      1  C   UNL     1     -19.403  19.656  45.888  0.00  0.00    +0.103 C 
ATOM      2  N   UNL     1     -18.012  20.153  45.794  0.00  0.00    -0.302 NA
ATOM      3  C   UNL     1     -17.853  21.339  46.649  0.00  0.00    +0.105 C 
ATOM      4  C   UNL     1     -17.064  19.105  46.225  0.00  0.00    +0.103 C 
ATOM      5  C   UNL     1     -17.236  17.885  45.320  0.00  0.00    +0.120 C 
ATOM      6  N   UNL     1     -18.610  17.359  45.429  0.00  0.00    -0.328 N 
ATOM     32  C   UNL     1     -19.574  18.402  45.023  0.00  0.00    +0.120 C 
ENDBRANCH   7   6
ENDBRANCH  11  10
TORSDOF 3
