REMARK  Name = 4D4L
REMARK  2 active torsions:
REMARK  status: ('A' for Active; 'I' for Inactive)
REMARK    1  A    between atoms: N_2  and  C_9
REMARK    2  A    between atoms: C_13  and  C_18
REMARK                            x       y       z     vdW  Elec       q    Type
REMARK                         _______ _______ _______ _____ _____    ______ ____
ROOT
ATOM      6  N   UNL     1     -39.530 -40.951 -11.180  0.00  0.00    -0.300 N 
ATOM      7  C   UNL     1     -40.854 -41.325 -11.316  0.00  0.00    +0.153 C 
ATOM      8  C   UNL     1     -41.504 -40.327 -12.090  0.00  0.00    +0.091 C 
ATOM      9  C   UNL     1     -42.900 -40.532 -12.379  0.00  0.00    +0.261 C 
ATOM     10  N   UNL     1     -43.414 -41.690 -11.799  0.00  0.00    -0.313 N 
ATOM     11  H   UNL     1     -44.448 -41.913 -11.961  0.00  0.00    +0.170 HD
ATOM     12  C   UNL     1     -42.691 -42.554 -11.042  0.00  0.00    +0.201 C 
ATOM     13  O   UNL     1     -43.609 -39.816 -13.087  0.00  0.00    -0.267 OA
ATOM     14  C   UNL     1     -40.516 -39.326 -12.397  0.00  0.00    +0.015 C 
ATOM     22  N   UNL     1     -41.417 -42.438 -10.776  0.00  0.00    -0.219 NA
ATOM     23  C   UNL     1     -39.343 -39.757 -11.836  0.00  0.00    +0.102 C 
ENDROOT
BRANCH  14  15
ATOM     15  C   UNL     1     -40.652 -38.062 -13.163  0.00  0.00    -0.016 A 
ATOM     16  C   UNL     1     -39.630 -37.630 -14.004  0.00  0.00    +0.010 A 
ATOM     17  C   UNL     1     -39.760 -36.462 -14.740  0.00  0.00    +0.020 A 
ATOM     18  C   UNL     1     -40.917 -35.728 -14.623  0.00  0.00    +0.041 A 
ATOM     19  C   UNL     1     -41.942 -36.118 -13.789  0.00  0.00    +0.020 A 
ATOM     20 CL   UNL     1     -41.089 -34.257 -15.553  0.00  0.00    -0.084 Cl
ATOM     21  C   UNL     1     -41.805 -37.292 -13.064  0.00  0.00    +0.010 A 
ENDBRANCH  14  15
BRANCH   6   4
ATOM      1  C   UNL     1     -36.580 -43.122  -9.098  0.00  0.00    +0.000 A 
ATOM      2  C   UNL     1     -36.961 -41.871  -8.650  0.00  0.00    +0.002 A 
ATOM      3  C   UNL     1     -37.915 -41.140  -9.339  0.00  0.00    +0.026 A 
ATOM      4  C   UNL     1     -38.495 -41.673 -10.488  0.00  0.00    +0.048 A 
ATOM      5  C   UNL     1     -38.110 -42.931 -10.943  0.00  0.00    +0.026 A 
ATOM     24  C   UNL     1     -37.153 -43.650 -10.242  0.00  0.00    +0.002 A 
ENDBRANCH   6   4
TORSDOF 2
