REMARK  Name = 4bgg_ligand
REMARK  9 active torsions:
REMARK  status: ('A' for Active; 'I' for Inactive)
REMARK    1  A    between atoms: C01_1  and  O02_2
REMARK    2  A    between atoms: O02_2  and  C03_3
REMARK    3  A    between atoms: C04_4  and  O05_5
REMARK    4  A    between atoms: O05_5  and  C06_6
REMARK    5  A    between atoms: C07_7  and  O29_29
REMARK    6  A    between atoms: C09_9  and  C11_11
REMARK    7  A    between atoms: C13_13  and  C17_17
REMARK    8  A    between atoms: C20_20  and  N23_23
REMARK    9  A    between atoms: O29_29  and  C30_30
REMARK                            x       y       z     vdW  Elec       q    Type
REMARK                         _______ _______ _______ _____ _____    ______ ____
ROOT
ATOM      6  C   UNL     1      43.784 -43.964  53.511  0.00  0.00    -0.005 A 
ATOM      7  C   UNL     1      43.955 -42.804  54.266  0.00  0.00    +0.092 A 
ATOM      8  N   UNL     1      42.963 -42.393  55.036  0.00  0.00    -0.301 NA
ATOM      9  C   UNL     1      41.764 -43.043  55.148  0.00  0.00    +0.092 A 
ATOM     10  C   UNL     1      41.559 -44.209  54.403  0.00  0.00    -0.001 A 
ATOM     25  C   UNL     1      42.569 -44.687  53.597  0.00  0.00    +0.036 A 
ENDROOT
BRANCH   6   5
ATOM      3  C   UNL     1      47.216 -45.110  52.180  0.00  0.00    +0.114 A 
ATOM      4  C   UNL     1      46.249 -44.572  53.029  0.00  0.00    +0.002 A 
ATOM      5  C   UNL     1      44.885 -44.511  52.580  0.00  0.00    -0.039 A 
ATOM     26  C   UNL     1      44.552 -44.978  51.291  0.00  0.00    +0.002 A 
ATOM     27  C   UNL     1      45.591 -45.480  50.413  0.00  0.00    +0.114 A 
ATOM     30  C   UNL     1      46.896 -45.574  50.879  0.00  0.00    +0.150 A 
BRANCH   3   2
ATOM      1  C   UNL     1      48.764 -44.910  53.872  0.00  0.00    +0.228 C 
ATOM      2  O   UNL     1      48.548 -45.186  52.550  0.00  0.00    -0.328 OA
ENDBRANCH   3   2
BRANCH  27  28
ATOM     28  O   UNL     1      45.348 -45.977  49.120  0.00  0.00    -0.328 OA
ATOM     29  C   UNL     1      44.205 -45.662  48.459  0.00  0.00    +0.228 C 
ENDBRANCH  27  28
BRANCH  30  31
ATOM     31  O   UNL     1      47.932 -46.077  50.084  0.00  0.00    -0.327 OA
ATOM     32  C   UNL     1      48.896 -45.125  49.716  0.00  0.00    +0.226 C 
ENDBRANCH  30  31
ENDBRANCH   6   5
BRANCH  10  11
ATOM     11  C   UNL     1      40.310 -44.968  54.502  0.00  0.00    -0.024 A 
ATOM     12  C   UNL     1      39.874 -45.751  53.438  0.00  0.00    -0.003 A 
ATOM     13  C   UNL     1      38.653 -46.544  53.526  0.00  0.00    +0.011 A 
ATOM     14  C   UNL     1      37.907 -46.523  54.641  0.00  0.00    +0.043 A 
ATOM     23  C   UNL     1      38.346 -45.729  55.747  0.00  0.00    +0.011 A 
ATOM     24  C   UNL     1      39.583 -44.961  55.678  0.00  0.00    -0.003 A 
BRANCH  14  15
ATOM     15  N   UNL     1      36.733 -47.289  54.711  0.00  0.00    -0.297 N 
ATOM     16  C   UNL     1      36.204 -47.570  55.999  0.00  0.00    +0.181 C 
ATOM     17  C   UNL     1      34.749 -48.014  55.904  0.00  0.00    +0.153 C 
ATOM     18  N   UNL     1      34.669 -49.297  55.266  0.00  0.00    +0.230 N 
ATOM     19  H   UNL     1      33.709 -49.465  55.010  0.00  0.00    +0.202 HD
ATOM     20  H   UNL     1      34.969 -49.999  55.925  0.00  0.00    +0.202 HD
ATOM     21  C   UNL     1      35.474 -49.408  54.091  0.00  0.00    +0.153 C 
ATOM     22  C   UNL     1      36.141 -48.089  53.659  0.00  0.00    +0.181 C 
ENDBRANCH  14  15
ENDBRANCH  10  11
TORSDOF 6
