REMARK  Name = 2v7a_ligand
REMARK  7 active torsions:
REMARK  status: ('A' for Active; 'I' for Inactive)
REMARK    1  A    between atoms: C6_6  and  C7_7
REMARK    2  A    between atoms: N17_17  and  C24_24
REMARK    3  A    between atoms: N20_20  and  C23_23
REMARK    4  A    between atoms: C25_25  and  C20_32
REMARK    5  A    between atoms: C29_29  and  C20_32
REMARK    6  A    between atoms: C20_32  and  O34_35
REMARK    7  A    between atoms: C36_34  and  O34_35
REMARK                            x       y       z     vdW  Elec       q    Type
REMARK                         _______ _______ _______ _____ _____    ______ ____
ROOT
ATOM      1  N   UNL     1     -41.534 -46.382 -10.483  0.00  0.00    -0.253 N 
ATOM      2  C   UNL     1     -42.055 -45.590  -9.533  0.00  0.00    +0.222 C 
ATOM     12  O   UNL     1     -41.558 -44.504  -9.240  0.00  0.00    -0.391 OA
ATOM     13  C   UNL     1     -40.324 -45.950 -11.215  0.00  0.00    +0.231 C 
ATOM     14  C   UNL     1     -39.968 -47.217 -11.913  0.00  0.00    +0.079 A 
ATOM     15  C   UNL     1     -40.962 -48.228 -11.730  0.00  0.00    +0.015 A 
ATOM     16  C   UNL     1     -40.468 -49.327 -12.404  0.00  0.00    +0.103 A 
ATOM     17  N   UNL     1     -41.012 -50.585 -12.547  0.00  0.00    -0.239 N 
ATOM     18  H   UNL     1     -40.388 -51.321 -12.809  0.00  0.00    +0.219 HD
ATOM     19  C   UNL     1     -42.282 -50.910 -12.370  0.00  0.00    +0.218 C 
ATOM     20  O   UNL     1     -43.160 -50.119 -12.080  0.00  0.00    -0.382 OA
ATOM     35  N   UNL     1     -39.269 -49.059 -12.953  0.00  0.00    -0.240 NA
ATOM     36  N   UNL     1     -38.944 -47.712 -12.637  0.00  0.00    -0.243 N 
ATOM     37  H   UNL     1     -38.088 -47.209 -12.910  0.00  0.00    +0.239 HD
ATOM     38  C   UNL     1     -42.089 -47.714 -10.890  0.00  0.00    +0.167 C 
ENDROOT
BRANCH  19  21
ATOM     21  C   UNL     1     -42.655 -52.330 -12.557  0.00  0.00    +0.041 A 
ATOM     22  C   UNL     1     -41.865 -53.185 -13.311  0.00  0.00    +0.011 A 
ATOM     23  C   UNL     1     -42.286 -54.496 -13.439  0.00  0.00    +0.015 A 
ATOM     24  C   UNL     1     -43.478 -54.936 -12.833  0.00  0.00    +0.046 A 
ATOM     33  C   UNL     1     -44.250 -54.070 -12.091  0.00  0.00    +0.015 A 
ATOM     34  C   UNL     1     -43.825 -52.765 -11.954  0.00  0.00    +0.011 A 
BRANCH  24  25
ATOM     25  N   UNL     1     -43.909 -56.266 -12.977  0.00  0.00    -0.296 N 
ATOM     26  C   UNL     1     -43.291 -57.097 -14.015  0.00  0.00    +0.182 C 
ATOM     27  C   UNL     1     -42.624 -58.195 -13.189  0.00  0.00    +0.155 C 
ATOM     28  N   UNL     1     -43.611 -58.884 -12.312  0.00  0.00    +0.236 N 
ATOM     29  H   UNL     1     -44.123 -59.545 -12.875  0.00  0.00    +0.203 HD
ATOM     30  C   UNL     1     -42.861 -59.626 -11.280  0.00  0.00    +0.190 C 
ATOM     31  C   UNL     1     -44.570 -57.990 -11.714  0.00  0.00    +0.155 C 
ATOM     32  C   UNL     1     -44.807 -56.774 -12.228  0.00  0.00    +0.182 C 
ENDBRANCH  24  25
ENDBRANCH  19  21
BRANCH   2   3
ATOM      3  C   UNL     1     -43.274 -46.054  -8.797  0.00  0.00    +0.280 C 
BRANCH   3   6
ATOM      6  C   UNL     1     -42.840 -47.076  -7.795  0.00  0.00    +0.004 A 
ATOM      7  C   UNL     1     -41.746 -46.822  -6.941  0.00  0.00    +0.001 A 
ATOM      8  C   UNL     1     -41.330 -47.788  -6.039  0.00  0.00    -0.008 A 
ATOM      9  C   UNL     1     -42.012 -49.007  -5.966  0.00  0.00    -0.012 A 
ATOM     10  C   UNL     1     -43.114 -49.281  -6.801  0.00  0.00    -0.008 A 
ATOM     11  C   UNL     1     -43.529 -48.309  -7.710  0.00  0.00    +0.001 A 
ENDBRANCH   3   6
BRANCH   3   4
ATOM      4  O   UNL     1     -43.908 -44.917  -8.207  0.00  0.00    -0.347 OA
ATOM      5  C   UNL     1     -45.142 -45.211  -7.523  0.00  0.00    +0.201 C 
ENDBRANCH   3   4
ENDBRANCH   2   3
TORSDOF 5
