REMARK  Name = 2p2i_ligand
REMARK  6 active torsions:
REMARK  status: ('A' for Active; 'I' for Inactive)
REMARK    1  A    between atoms: C12_3  and  N2_22
REMARK    2  A    between atoms: C15_6  and  O2_24
REMARK    3  A    between atoms: C18_10  and  C7_20
REMARK    4  A    between atoms: C19_13  and  C24_21
REMARK    5  A    between atoms: N1_19  and  C7_20
REMARK    6  A    between atoms: O2_24  and  C5_29
REMARK                            x       y       z     vdW  Elec       q    Type
REMARK                         _______ _______ _______ _____ _____    ______ ____
ROOT
ATOM     13  N   UNL     1      36.923  35.807  12.222  0.00  0.00    -0.240 N 
ATOM     14  H   UNL     1      35.929  35.827  12.328  0.00  0.00    +0.222 HD
ATOM     15  C   UNL     1      37.569  34.671  12.526  0.00  0.00    +0.230 C 
ATOM     16  O   UNL     1      38.795  34.645  12.552  0.00  0.00    -0.379 OA
ENDROOT
BRANCH  15  17
ATOM     17  C   UNL     1      36.697  33.507  12.793  0.00  0.00    +0.101 A 
ATOM     18  C   UNL     1      37.191  32.322  13.408  0.00  0.00    +0.135 A 
ATOM     19  N   UNL     1      38.494  32.298  13.810  0.00  0.00    -0.291 N 
ATOM     20  H   UNL     1      39.086  33.128  13.660  0.00  0.00    +0.186 HD
ATOM     28  N   UNL     1      36.369  31.206  13.595  0.00  0.00    -0.279 NA
ATOM     29  C   UNL     1      35.056  31.207  13.199  0.00  0.00    +0.082 A 
ATOM     30  C   UNL     1      34.475  32.362  12.577  0.00  0.00    +0.019 A 
ATOM     31  C   UNL     1      35.309  33.501  12.384  0.00  0.00    +0.041 A 
BRANCH  19  21
ATOM     21  C   UNL     1      39.062  31.119  14.447  0.00  0.00    +0.211 C 
BRANCH  21  22
ATOM     22  C   UNL     1      39.502  29.988  13.508  0.00  0.00    -0.001 A 
ATOM     23  C   UNL     1      39.931  28.773  14.193  0.00  0.00    +0.035 A 
ATOM     24  C   UNL     1      40.381  27.715  13.364  0.00  0.00    +0.083 A 
ATOM     25  N   UNL     1      40.364  27.940  11.998  0.00  0.00    -0.307 NA
ATOM     26  C   UNL     1      39.955  29.086  11.291  0.00  0.00    +0.083 A 
ATOM     27  C   UNL     1      39.491  30.194  12.066  0.00  0.00    +0.035 A 
ENDBRANCH  21  22
ENDBRANCH  19  21
ENDBRANCH  15  17
BRANCH  13  12
ATOM      1  C   UNL     1      39.083  38.074  10.221  0.00  0.00    +0.011 A 
ATOM      2  C   UNL     1      38.770  39.299  10.953  0.00  0.00    +0.101 A 
ATOM     10  C   UNL     1      37.849  39.356  12.098  0.00  0.00    +0.011 A 
ATOM     11  C   UNL     1      37.216  38.135  12.522  0.00  0.00    +0.000 A 
ATOM     12  C   UNL     1      37.540  36.926  11.781  0.00  0.00    +0.056 A 
ATOM     32  C   UNL     1      38.452  36.862  10.648  0.00  0.00    +0.000 A 
BRANCH   2   3
ATOM      3  O   UNL     1      39.462  40.425  10.423  0.00  0.00    -0.267 OA
BRANCH   3   4
ATOM      4  C   UNL     1      39.068  41.740  10.553  0.00  0.00    +0.112 A 
ATOM      5  C   UNL     1      39.485  42.488  11.740  0.00  0.00    +0.026 A 
ATOM      6  C   UNL     1      39.106  43.875  11.867  0.00  0.00    -0.011 A 
ATOM      7  C   UNL     1      38.318  44.446  10.782  0.00  0.00    -0.020 A 
ATOM      8  C   UNL     1      37.898  43.704   9.599  0.00  0.00    -0.011 A 
ATOM      9  C   UNL     1      38.281  42.312   9.480  0.00  0.00    +0.026 A 
ENDBRANCH   3   4
ENDBRANCH   2   3
ENDBRANCH  13  12
TORSDOF 6
