REMARK  Name = 4deh_ligand
REMARK  3 active torsions:
REMARK  status: ('A' for Active; 'I' for Inactive)
REMARK    1  A    between atoms: C13_10  and  C12_11
REMARK    2  A    between atoms: C12_11  and  N4_12
REMARK    3  A    between atoms: N1_21  and  C4_22
REMARK                            x       y       z     vdW  Elec       q    Type
REMARK                         _______ _______ _______ _____ _____    ______ ____
ROOT
ATOM      4  N   UNL     1      20.471  13.148  56.155  0.00  0.00    -0.150 N 
ATOM      5  N   UNL     1      21.032  14.237  55.962  0.00  0.00    -0.088 NA
ATOM      6  N   UNL     1      20.533  15.132  56.662  0.00  0.00    -0.212 NA
ATOM      7  C   UNL     1      19.552  14.610  57.396  0.00  0.00    +0.066 A 
ATOM      8  C   UNL     1      18.658  15.092  58.348  0.00  0.00    +0.101 C 
ATOM      9  C   UNL     1      18.164  14.260  59.354  0.00  0.00    +0.185 C 
ATOM     10  N   UNL     1      17.842  12.903  58.796  0.00  0.00    -0.218 N 
ATOM     17  C   UNL     1      18.554  12.434  57.654  0.00  0.00    +0.256 C 
ATOM     18  O   UNL     1      18.309  11.324  57.176  0.00  0.00    -0.378 OA
ATOM     19  C   UNL     1      19.504  13.272  57.058  0.00  0.00    +0.187 A 
ENDROOT
BRANCH  10  11
ATOM     11  C   UNL     1      16.842  12.092  59.402  0.00  0.00    +0.069 A 
ATOM     12  C   UNL     1      15.576  12.619  59.676  0.00  0.00    +0.009 A 
ATOM     13  C   UNL     1      14.582  11.831  60.262  0.00  0.00    -0.018 A 
ATOM     14  C   UNL     1      14.851  10.501  60.586  0.00  0.00    -0.028 A 
ATOM     15  C   UNL     1      16.115   9.972  60.311  0.00  0.00    -0.018 A 
ATOM     16  C   UNL     1      17.104  10.764  59.729  0.00  0.00    +0.009 A 
ENDBRANCH  10  11
BRANCH   4   3
ATOM      3  C   UNL     1      20.822  11.895  55.471  0.00  0.00    +0.275 C 
BRANCH   3   2
ATOM      1  C   UNL     1      21.044   9.735  56.769  0.00  0.00    +0.012 A 
ATOM      2  C   UNL     1      21.600  10.962  56.408  0.00  0.00    -0.004 A 
ATOM     20  C   UNL     1      22.865  11.323  56.883  0.00  0.00    +0.014 A 
ATOM     21  C   UNL     1      23.573  10.467  57.730  0.00  0.00    +0.022 A 
ATOM     22  C   UNL     1      23.012   9.240  58.083  0.00  0.00    +0.042 A 
ATOM     23  N   UNL     1      23.680   8.412  58.894  0.00  0.00    -0.298 NA
ATOM     24  C   UNL     1      23.182   7.230  59.263  0.00  0.00    +0.093 A 
ATOM     25  C   UNL     1      21.934   6.819  58.813  0.00  0.00    +0.035 A 
ATOM     26  C   UNL     1      21.207   7.650  57.967  0.00  0.00    +0.037 A 
ATOM     27  C   UNL     1      21.751   8.879  57.603  0.00  0.00    -0.001 A 
ENDBRANCH   3   2
ENDBRANCH   4   3
TORSDOF 3
