REMARK  Name = 2VGF
REMARK  9 active torsions:
REMARK  status: ('A' for Active; 'I' for Inactive)
REMARK    1  A    between atoms: P_1  and  O_5
REMARK    2  A    between atoms: O_5  and  C_6
REMARK    3  A    between atoms: C_6  and  C_7
REMARK    4  A    between atoms: C_7  and  O_8
REMARK    5  A    between atoms: C_9  and  O_10
REMARK    6  A    between atoms: C_11  and  O_12
REMARK    7  A    between atoms: C_13  and  C_15
REMARK    8  A    between atoms: C_15  and  O_16
REMARK    9  A    between atoms: O_16  and  P_17
REMARK                            x       y       z     vdW  Elec       q    Type
REMARK                         _______ _______ _______ _____ _____    ______ ____
ROOT
ATOM      4  C   UNL     1      26.697 -27.541  33.366  0.00  0.00    +0.221 C 
ATOM      5  O   UNL     1      27.384 -26.308  33.456  0.00  0.00    -0.336 OA
ATOM      6  C   UNL     1      27.804 -25.874  32.176  0.00  0.00    +0.179 C 
ATOM     13  C   UNL     1      27.031 -26.719  31.162  0.00  0.00    +0.179 C 
ATOM     16  C   UNL     1      26.815 -28.007  31.922  0.00  0.00    +0.207 C 
ENDROOT
BRANCH  13  14
ATOM     14  O   UNL     1      27.748 -26.959  29.969  0.00  0.00    -0.386 OA
ATOM     15  H   UNL     1      28.683 -27.378  30.200  0.00  0.00    +0.210 HD
ENDBRANCH  13  14
BRANCH  16  17
ATOM     17  O   UNL     1      25.667 -28.701  31.501  0.00  0.00    -0.384 OA
ATOM     18  H   UNL     1      25.525 -29.546  32.109  0.00  0.00    +0.210 HD
ENDBRANCH  16  17
BRANCH   4  19
ATOM     19  O   UNL     1      25.315 -27.307  33.687  0.00  0.00    -0.361 OA
ATOM     20  H   UNL     1      24.783 -28.210  33.625  0.00  0.00    +0.213 HD
ENDBRANCH   4  19
BRANCH   4   3
ATOM      3  C   UNL     1      27.285 -28.546  34.353  0.00  0.00    +0.231 C 
BRANCH   3   2
ATOM      2  O   UNL     1      28.669 -28.643  34.092  0.00  0.00    -0.362 OA
BRANCH   2   1
ATOM      1  P   UNL     1      29.690 -29.325  35.102  0.00  0.00    -0.015 P 
ATOM     21  O   UNL     1      30.987 -29.402  34.363  0.00  0.00    -0.638 OA
ATOM     22  O   UNL     1      29.912 -28.462  36.313  0.00  0.00    -0.577 OA
ATOM     23  O   UNL     1      29.144 -30.674  35.486  0.00  0.00    -0.577 OA
ENDBRANCH   2   1
ENDBRANCH   3   2
ENDBRANCH   4   3
BRANCH   6   7
ATOM      7  C   UNL     1      27.600 -24.367  32.048  0.00  0.00    +0.198 C 
BRANCH   7   8
ATOM      8  O   UNL     1      28.554 -23.902  31.133  0.00  0.00    -0.365 OA
BRANCH   8   9
ATOM      9  P   UNL     1      29.054 -22.400  31.091  0.00  0.00    -0.015 P 
ATOM     10  O   UNL     1      27.931 -21.579  31.638  0.00  0.00    -0.638 OA
ATOM     11  O   UNL     1      29.439 -22.007  29.689  0.00  0.00    -0.577 OA
ATOM     12  O   UNL     1      30.274 -22.250  31.949  0.00  0.00    -0.577 OA
ENDBRANCH   8   9
ENDBRANCH   7   8
ENDBRANCH   6   7
TORSDOF 9
