REMARK  Name = 5IHC
REMARK  5 active torsions:
REMARK  status: ('A' for Active; 'I' for Inactive)
REMARK    1  A    between atoms: C_1  and  C_2
REMARK    2  A    between atoms: O_4  and  C_18
REMARK    3  A    between atoms: O_4  and  C_19
REMARK    4  A    between atoms: C_9  and  N_25
REMARK    5  A    between atoms: C_19  and  C_20
REMARK                            x       y       z     vdW  Elec       q    Type
REMARK                         _______ _______ _______ _____ _____    ______ ____
ROOT
ATOM     13  C   UNL     1      -5.648  -8.422   3.301  0.00  0.00    +0.030 A 
ATOM     14  C   UNL     1      -5.662  -9.613   4.090  0.00  0.00    +0.146 A 
ATOM     15  C   UNL     1      -6.463  -9.607   5.274  0.00  0.00    +0.157 A 
ATOM     16  N   UNL     1      -7.162  -8.536   5.699  0.00  0.00    -0.260 NA
ATOM     17  C   UNL     1      -7.120  -7.413   4.959  0.00  0.00    +0.111 A 
ATOM     27  C   UNL     1      -6.384  -7.302   3.770  0.00  0.00    +0.032 A 
ENDROOT
BRANCH  13   1
ATOM      1  C   UNL     1      -4.856  -8.264   2.059  0.00  0.00    +0.024 A 
ATOM      2  C   UNL     1      -4.027  -9.176   1.472  0.00  0.00    +0.123 A 
ATOM      3  N   UNL     1      -3.465  -8.585   0.359  0.00  0.00    -0.236 N 
ATOM      4  N   UNL     1      -3.937  -7.321   0.218  0.00  0.00    -0.174 NA
ATOM     12  C   UNL     1      -4.738  -7.107   1.249  0.00  0.00    +0.143 A 
BRANCH   3   5
ATOM      5  C   UNL     1      -2.555  -9.132  -0.594  0.00  0.00    +0.100 A 
ATOM      6  C   UNL     1      -2.640  -8.736  -1.958  0.00  0.00    +0.030 A 
ATOM      7  C   UNL     1      -1.774  -9.296  -2.926  0.00  0.00    +0.002 A 
ATOM      8  C   UNL     1      -0.795 -10.242  -2.547  0.00  0.00    +0.003 A 
ATOM      9  C   UNL     1      -0.696 -10.641  -1.194  0.00  0.00    +0.040 A 
ATOM     10  C   UNL     1      -1.549 -10.068  -0.222  0.00  0.00    +0.149 A 
ATOM     11  F   UNL     1      -1.408 -10.479   1.058  0.00  0.00    -0.203 F 
ENDBRANCH   3   5
ENDBRANCH  13   1
BRANCH  14  18
ATOM     18  O   UNL     1      -4.948 -10.716   3.647  0.00  0.00    -0.490 OA
BRANCH  18  19
ATOM     19  C   UNL     1      -4.633 -11.789   4.541  0.00  0.00    +0.232 C 
BRANCH  19  20
ATOM     20  C   UNL     1      -3.694 -12.768   3.832  0.00  0.00    +0.029 C 
ATOM     21  C   UNL     1      -2.318 -12.117   3.526  0.00  0.00    +0.022 C 
ATOM     22  C   UNL     1      -1.294 -13.133   2.965  0.00  0.00    +0.081 C 
ATOM     23  N   UNL     1      -1.195 -14.291   3.866  0.00  0.00    -0.316 NA
ATOM     24  H   UNL     1      -0.486 -14.979   3.455  0.00  0.00    +0.122 HD
ATOM     25  C   UNL     1      -2.467 -14.996   4.059  0.00  0.00    +0.081 C 
ATOM     26  C   UNL     1      -3.513 -14.045   4.688  0.00  0.00    +0.022 C 
ENDBRANCH  19  20
ENDBRANCH  18  19
ENDBRANCH  14  18
TORSDOF 5
