REMARK  Name = 2a4z_ligand
REMARK  1 active torsions:
REMARK  status: ('A' for Active; 'I' for Inactive)
REMARK    1  A    between atoms: C15_8  and  C18_18
REMARK                            x       y       z     vdW  Elec       q    Type
REMARK                         _______ _______ _______ _____ _____    ______ ____
ROOT
ATOM      5  C   UNL     1      43.335  13.684  30.340  0.00  0.00    -0.046 A 
ATOM      6  C   UNL     1      43.651  12.483  29.480  0.00  0.00    -0.023 A 
ATOM      7  C   UNL     1      44.887  12.305  28.959  0.00  0.00    +0.013 A 
ATOM      8  C   UNL     1      45.918  13.313  29.245  0.00  0.00    +0.132 A 
ATOM      9  O   UNL     1      47.211  13.278  28.804  0.00  0.00    -0.228 OA
ATOM     10  C   UNL     1      47.801  14.297  29.652  0.00  0.00    +0.528 C 
ATOM     11  F   UNL     1      48.736  14.975  28.906  0.00  0.00    -0.140 F 
ATOM     12  F   UNL     1      48.429  13.723  30.745  0.00  0.00    -0.140 F 
ATOM     13  O   UNL     1      46.760  15.197  30.136  0.00  0.00    -0.230 OA
ATOM     14  C   UNL     1      45.662  14.382  29.998  0.00  0.00    +0.131 A 
ATOM     15  C   UNL     1      44.329  14.608  30.581  0.00  0.00    +0.016 A 
ENDROOT
BRANCH   5   4
ATOM      1  C   UNL     1      40.170  14.192  32.572  0.00  0.00    +0.243 C 
ATOM      2  O   UNL     1      39.297  13.525  32.017  0.00  0.00    -0.376 OA
ATOM      3  C   UNL     1      41.532  14.365  32.045  0.00  0.00    +0.114 C 
ATOM      4  C   UNL     1      41.939  13.797  30.882  0.00  0.00    +0.019 C 
ATOM     16  S   UNL     1      42.468  15.390  33.151  0.00  0.00    +0.040 S 
ATOM     17  C   UNL     1      41.086  15.569  34.236  0.00  0.00    +0.281 C 
ATOM     18  O   UNL     1      41.101  16.232  35.272  0.00  0.00    -0.371 OA
ATOM     19  N   UNL     1      39.942  14.870  33.792  0.00  0.00    -0.188 N 
ATOM     20  H   UNL     1      39.071  14.856  34.283  0.00  0.00    +0.225 HD
ENDBRANCH   5   4
TORSDOF 1
