REMARK  Name = 1NN3
REMARK  5 active torsions:
REMARK  status: ('A' for Active; 'I' for Inactive)
REMARK    1  A    between atoms: P_1  and  O_5
REMARK    2  A    between atoms: O_5  and  C_16
REMARK    3  A    between atoms: N_6  and  C_19
REMARK    4  A    between atoms: C_13  and  C_14
REMARK    5  A    between atoms: C_16  and  C_17
REMARK                            x       y       z     vdW  Elec       q    Type
REMARK                         _______ _______ _______ _____ _____    ______ ____
ROOT
ATOM      4  C   UNL     1      14.460  74.991  26.244  0.00  0.00    +0.170 C 
ATOM      5  C   UNL     1      13.335  75.641  26.940  0.00  0.00    +0.007 C 
ATOM      6  C   UNL     1      13.097  76.845  26.494  0.00  0.00    +0.025 C 
ATOM      7  C   UNL     1      14.093  77.150  25.423  0.00  0.00    +0.248 C 
ATOM     18  O   UNL     1      14.795  75.948  25.189  0.00  0.00    -0.343 OA
ENDROOT
BRANCH   7   8
ATOM      8  N   UNL     1      13.482  77.552  24.148  0.00  0.00    -0.270 N 
ATOM      9  C   UNL     1      13.875  78.787  23.640  0.00  0.00    +0.332 C 
ATOM     10  N   UNL     1      13.411  79.079  22.374  0.00  0.00    -0.275 N 
ATOM     11  H   UNL     1      13.684  80.027  21.959  0.00  0.00    +0.173 HD
ATOM     12  C   UNL     1      12.629  78.258  21.601  0.00  0.00    +0.257 C 
ATOM     13  C   UNL     1      12.287  77.014  22.200  0.00  0.00    +0.030 C 
ATOM     14  C   UNL     1      11.413  76.081  21.371  0.00  0.00    +0.051 C 
ATOM     15  O   UNL     1      12.293  78.654  20.474  0.00  0.00    -0.267 OA
ATOM     16  O   UNL     1      14.563  79.588  24.265  0.00  0.00    -0.246 OA
ATOM     17  C   UNL     1      12.696  76.660  23.425  0.00  0.00    +0.102 C 
ENDBRANCH   7   8
BRANCH   4   3
ATOM      3  C   UNL     1      14.130  73.662  25.600  0.00  0.00    +0.199 C 
BRANCH   3   2
ATOM      2  O   UNL     1      13.979  72.801  26.758  0.00  0.00    -0.364 OA
BRANCH   2   1
ATOM      1  P   UNL     1      13.090  71.495  26.706  0.00  0.00    -0.015 P 
ATOM     19  O   UNL     1      11.738  71.684  26.085  0.00  0.00    -0.577 OA
ATOM     20  O   UNL     1      13.292  70.931  28.078  0.00  0.00    -0.638 OA
ATOM     21  O   UNL     1      14.001  70.652  25.809  0.00  0.00    -0.577 OA
ENDBRANCH   2   1
ENDBRANCH   3   2
ENDBRANCH   4   3
TORSDOF 4
