REMARK  Name = 6Q7K
REMARK  0 active torsions:
REMARK  status: ('A' for Active; 'I' for Inactive)
REMARK                            x       y       z     vdW  Elec       q    Type
REMARK                         _______ _______ _______ _____ _____    ______ ____
ROOT
ATOM      1  C   UNL     1      10.857   9.351  43.766  0.00  0.00    +0.000 A 
ATOM      2  N   UNL     1       9.971   8.452  44.275  0.00  0.00    -0.500 NA
ATOM      3  C   UNL     1      10.487   7.218  44.139  0.00  0.00    +0.200 A 
ATOM      4  N   UNL     1       9.881   6.098  44.533  0.00  0.00    -0.700 NA
ATOM      5  N   UNL     1      11.695   7.313  43.548  0.00  0.00    -0.200 NA
ATOM      6  C   UNL     1      11.910   8.652  43.322  0.00  0.00    +0.000 A 
ENDROOT
TORSDOF 0
