REMARK  Name = 4FT7
REMARK  5 active torsions:
REMARK  status: ('A' for Active; 'I' for Inactive)
REMARK    1  A    between atoms: C_2  and  C_3
REMARK    2  A    between atoms: C_8  and  N_9
REMARK    3  A    between atoms: N_12  and  C_13
REMARK    4  A    between atoms: C_19  and  N_20
REMARK    5  A    between atoms: C_25  and  O_26
REMARK                            x       y       z     vdW  Elec       q    Type
REMARK                         _______ _______ _______ _____ _____    ______ ____
ROOT
ATOM     12  C   UNL     1      18.571  -4.503   9.693  0.00  0.00    +0.057 A 
ATOM     13  C   UNL     1      18.980  -5.690  10.340  0.00  0.00    +0.051 A 
ATOM     22  C   UNL     1      20.279  -6.156  10.154  0.00  0.00    +0.026 A 
ATOM     23  C   UNL     1      21.180  -5.458   9.374  0.00  0.00    +0.017 A 
ATOM     24  C   UNL     1      20.778  -4.293   8.769  0.00  0.00    +0.020 A 
ATOM     25 BR   UNL     1      22.013  -3.339   7.684  0.00  0.00    -0.050 Br
ATOM     26  C   UNL     1      19.495  -3.800   8.912  0.00  0.00    +0.040 A 
ENDROOT
BRANCH  12  10
ATOM      7  N   UNL     1      15.344  -2.691   9.594  0.00  0.00    -0.253 N 
ATOM      8  H   UNL     1      14.921  -1.864   9.182  0.00  0.00    +0.158 HD
ATOM      9  C   UNL     1      16.618  -2.990   9.171  0.00  0.00    +0.309 C 
ATOM     10  N   UNL     1      17.211  -4.053   9.824  0.00  0.00    -0.268 N 
ATOM     11  H   UNL     1      16.659  -4.610  10.468  0.00  0.00    +0.156 HD
ATOM     27  O   UNL     1      17.173  -2.337   8.291  0.00  0.00    -0.252 OA
BRANCH   7   6
ATOM      3  C   UNL     1      12.716  -4.406  12.229  0.00  0.00    +0.158 A 
ATOM      4  C   UNL     1      13.915  -5.083  11.848  0.00  0.00    +0.151 A 
ATOM      5  N   UNL     1      14.778  -4.515  10.998  0.00  0.00    -0.236 NA
ATOM      6  C   UNL     1      14.467  -3.306  10.500  0.00  0.00    +0.144 A 
ATOM     28  C   UNL     1      13.283  -2.647  10.884  0.00  0.00    +0.156 A 
ATOM     29  N   UNL     1      12.422  -3.182  11.755  0.00  0.00    -0.240 NA
BRANCH   3   2
ATOM      1  N   UNL     1      10.983  -5.553  13.715  0.00  0.00    -0.189 NA
ATOM      2  C   UNL     1      11.760  -5.037  13.061  0.00  0.00    +0.121 C 
ENDBRANCH   3   2
ENDBRANCH   7   6
ENDBRANCH  12  10
BRANCH  13  14
ATOM     14  N   UNL     1      18.148  -6.374  11.260  0.00  0.00    -0.326 N 
ATOM     15  C   UNL     1      18.037  -5.876  12.630  0.00  0.00    +0.136 C 
ATOM     16  C   UNL     1      17.057  -6.588  13.539  0.00  0.00    +0.132 C 
ATOM     19  C   UNL     1      16.839  -8.041  13.188  0.00  0.00    +0.034 C 
ATOM     20  C   UNL     1      16.481  -8.197  11.713  0.00  0.00    +0.021 C 
ATOM     21  C   UNL     1      17.589  -7.654  10.813  0.00  0.00    +0.105 C 
BRANCH  16  17
ATOM     17  O   UNL     1      17.496  -6.448  14.891  0.00  0.00    -0.390 OA
ATOM     18  H   UNL     1      16.742  -6.731  15.471  0.00  0.00    +0.210 HD
ENDBRANCH  16  17
ENDBRANCH  13  14
TORSDOF 5
