REMARK  Name = 4YKN
REMARK  10 active torsions:
REMARK  status: ('A' for Active; 'I' for Inactive)
REMARK    1  A    between atoms: C_3  and  S_22
REMARK    2  A    between atoms: C_5  and  C_28
REMARK    3  A    between atoms: C_6  and  O_7
REMARK    4  A    between atoms: O_7  and  C_8
REMARK    5  A    between atoms: C_11  and  C_14
REMARK    6  A    between atoms: C_15  and  C_16
REMARK    7  A    between atoms: C_16  and  N_17
REMARK    8  A    between atoms: N_17  and  C_18
REMARK    9  A    between atoms: S_22  and  N_25
REMARK   10  A    between atoms: C_31  and  C_33
REMARK                            x       y       z     vdW  Elec       q    Type
REMARK                         _______ _______ _______ _____ _____    ______ ____
ROOT
ATOM      9  C   UNL     1       1.414   4.893 -42.139  0.00  0.00    +0.137 C 
ENDROOT
BRANCH   9   2
ATOM      1  C   UNL     1       0.728   2.556 -41.418  0.00  0.00    +0.013 A 
ATOM      2  C   UNL     1       1.717   3.419 -41.878  0.00  0.00    -0.029 A 
ATOM      3  C   UNL     1       2.997   2.948 -42.102  0.00  0.00    +0.015 A 
ATOM      4  C   UNL     1       3.292   1.619 -41.868  0.00  0.00    -0.002 A 
ATOM      8  C   UNL     1       2.309   0.753 -41.410  0.00  0.00    +0.018 A 
ATOM     28  C   UNL     1       1.026   1.220 -41.185  0.00  0.00    -0.016 A 
BRANCH  28  29
ATOM     29  C   UNL     1       0.046   0.350 -40.720  0.00  0.00    +0.001 A 
ATOM     30  C   UNL     1       0.050  -0.981 -41.108  0.00  0.00    +0.123 A 
ATOM     31  N   UNL     1      -0.878  -1.808 -40.658  0.00  0.00    -0.221 NA
ATOM     32  C   UNL     1      -1.823  -1.398 -39.827  0.00  0.00    +0.214 A 
ATOM     33  C   UNL     1      -1.889  -0.084 -39.395  0.00  0.00    +0.068 A 
ATOM     36  C   UNL     1      -0.931   0.806 -39.847  0.00  0.00    +0.015 A 
BRANCH  32  34
ATOM     34  O   UNL     1      -2.784  -2.317 -39.385  0.00  0.00    -0.480 OA
ATOM     35  C   UNL     1      -3.558  -1.883 -38.304  0.00  0.00    +0.278 C 
ENDBRANCH  32  34
ENDBRANCH  28  29
BRANCH   4   5
ATOM      5  C   UNL     1       4.710   1.116 -42.122  0.00  0.00    +0.072 C 
ATOM      6  O   UNL     1       4.895   0.055 -42.776  0.00  0.00    -0.545 OA
ATOM      7  O   UNL     1       5.693   1.761 -41.664  0.00  0.00    -0.545 OA
ENDBRANCH   4   5
ENDBRANCH   9   2
BRANCH   9  10
ATOM     10  N   UNL     1       0.128   5.274 -41.588  0.00  0.00    -0.340 N 
ATOM     11  H   UNL     1      -0.550   4.478 -41.816  0.00  0.00    +0.146 HD
BRANCH  10  12
ATOM     12  C   UNL     1      -0.018   5.550 -40.168  0.00  0.00    +0.028 A 
ATOM     13  C   UNL     1       0.967   5.159 -39.271  0.00  0.00    +0.025 A 
ATOM     14  C   UNL     1       0.820   5.424 -37.918  0.00  0.00    +0.027 A 
ATOM     15  C   UNL     1      -0.314   6.082 -37.465  0.00  0.00    +0.073 A 
ATOM     26  C   UNL     1      -1.299   6.472 -38.358  0.00  0.00    +0.027 A 
ATOM     27  C   UNL     1      -1.150   6.207 -39.711  0.00  0.00    +0.025 A 
BRANCH  15  16
ATOM     16  S   UNL     1      -0.525   6.435 -35.695  0.00  0.00    -0.058 S 
ATOM     24  O   UNL     1       0.623   5.973 -34.913  0.00  0.00    -0.184 OA
ATOM     25  O   UNL     1      -0.524   7.878 -35.439  0.00  0.00    -0.184 OA
BRANCH  16  17
ATOM     17  N   UNL     1      -1.958   5.696 -35.135  0.00  0.00    -0.514 NA
ATOM     18  C   UNL     1      -2.228   4.343 -35.575  0.00  0.00    +0.028 A 
ATOM     19  S   UNL     1      -3.752   3.534 -35.590  0.00  0.00    -0.075 S 
ATOM     20  C   UNL     1      -3.119   2.065 -36.240  0.00  0.00    +0.098 A 
ATOM     21  N   UNL     1      -1.823   2.263 -36.402  0.00  0.00    -0.148 NA
ATOM     22  C   UNL     1      -3.893   0.791 -36.566  0.00  0.00    +0.075 C 
ATOM     23  N   UNL     1      -1.341   3.486 -36.045  0.00  0.00    -0.165 NA
ENDBRANCH  16  17
ENDBRANCH  15  16
ENDBRANCH  10  12
ENDBRANCH   9  10
TORSDOF 8
