REMARK  Name = 1w84_ligand
REMARK  3 active torsions:
REMARK  status: ('A' for Active; 'I' for Inactive)
REMARK    1  A    between atoms: C4_1  and  C5_2
REMARK    2  A    between atoms: C5_2  and  C6_3
REMARK    3  A    between atoms: C6_3  and  C7_4
REMARK                            x       y       z     vdW  Elec       q    Type
REMARK                         _______ _______ _______ _____ _____    ______ ____
ROOT
ATOM      1  C   UNL     1       4.261  12.202  29.501  0.00  0.00    -0.044 A 
ATOM      2  C   UNL     1       5.343  12.450  30.472  0.00  0.00    -0.021 A 
ATOM      3  C   UNL     1       6.379  11.527  30.167  0.00  0.00    +0.060 A 
ATOM      4  N   UNL     1       5.951  10.804  29.096  0.00  0.00    -0.289 N 
ATOM      5  H   UNL     1       6.494  10.058  28.639  0.00  0.00    +0.222 HD
ATOM      6  C   UNL     1       7.561  11.498  30.917  0.00  0.00    +0.010 A 
ATOM      7  C   UNL     1       7.703  12.392  31.971  0.00  0.00    -0.024 A 
ATOM      8  C   UNL     1       6.683  13.303  32.275  0.00  0.00    -0.028 A 
ATOM      9  C   UNL     1       5.518  13.336  31.544  0.00  0.00    -0.021 A 
ATOM     10  C   UNL     1       4.693  11.206  28.708  0.00  0.00    +0.096 A 
ENDROOT
BRANCH   1  11
ATOM     11  C   UNL     1       2.935  12.927  29.382  0.00  0.00    +0.050 C 
BRANCH  11  12
ATOM     12  C   UNL     1       1.957  12.588  30.518  0.00  0.00    +0.086 C 
BRANCH  12  13
ATOM     13  C   UNL     1       1.540  11.138  30.481  0.00  0.00    -0.022 A 
ATOM     14  C   UNL     1       0.668  10.640  29.515  0.00  0.00    +0.033 A 
ATOM     15  C   UNL     1       0.328   9.289  29.530  0.00  0.00    +0.083 A 
ATOM     16  N   UNL     1       0.823   8.465  30.442  0.00  0.00    -0.307 NA
ATOM     17  C   UNL     1       1.656   8.919  31.368  0.00  0.00    +0.083 A 
ATOM     18  C   UNL     1       2.036  10.248  31.419  0.00  0.00    +0.033 A 
ENDBRANCH  12  13
ENDBRANCH  11  12
ENDBRANCH   1  11
TORSDOF 3
