REMARK  Name = 4wwo_ligand
REMARK  4 active torsions:
REMARK  status: ('A' for Active; 'I' for Inactive)
REMARK    1  A    between atoms: N13_10  and  C12_11
REMARK    2  A    between atoms: C12_11  and  C30_12
REMARK    3  A    between atoms: C12_11  and  C7_13
REMARK    4  A    between atoms: C2_23  and  C1_24
REMARK                            x       y       z     vdW  Elec       q    Type
REMARK                         _______ _______ _______ _____ _____    ______ ____
ROOT
ATOM      6  C   UNL     1      21.191  16.872  20.507  0.00  0.00    +0.019 A 
ATOM      7  C   UNL     1      20.159  17.719  20.058  0.00  0.00    +0.057 A 
ATOM     15  N   UNL     1      19.656  17.619  18.822  0.00  0.00    -0.295 NA
ATOM     16  C   UNL     1      20.142  16.743  17.937  0.00  0.00    +0.053 A 
ATOM     17  C   UNL     1      19.605  16.673  16.646  0.00  0.00    +0.059 A 
ATOM     18 CL   UNL     1      18.315  17.719  16.117  0.00  0.00    -0.068 Cl
ATOM     19  C   UNL     1      20.119  15.745  15.747  0.00  0.00    +0.019 A 
ATOM     20  C   UNL     1      21.152  14.895  16.124  0.00  0.00    +0.005 A 
ATOM     21  C   UNL     1      21.685  14.974  17.404  0.00  0.00    +0.013 A 
ATOM     22  C   UNL     1      21.182  15.887  18.319  0.00  0.00    -0.002 A 
ATOM     23  C   UNL     1      21.723  15.951  19.609  0.00  0.00    +0.034 A 
ENDROOT
BRANCH   7   8
ATOM      8  C   UNL     1      19.553  18.648  20.883  0.00  0.00    -0.001 A 
ATOM      9  C   UNL     1      19.987  19.960  21.019  0.00  0.00    +0.007 A 
ATOM     10  C   UNL     1      19.295  20.826  21.873  0.00  0.00    +0.001 A 
ATOM     11  C   UNL     1      18.180  20.373  22.578  0.00  0.00    +0.036 A 
ATOM     12  C   UNL     1      17.759  19.051  22.422  0.00  0.00    +0.135 A 
ATOM     13  F   UNL     1      16.688  18.568  23.077  0.00  0.00    -0.183 F 
ATOM     14  C   UNL     1      18.444  18.198  21.577  0.00  0.00    +0.046 A 
ENDBRANCH   7   8
BRANCH   6   5
ATOM      5  C   UNL     1      21.742  16.984  21.943  0.00  0.00    +0.151 C 
ATOM     24  C   UNL     1      22.881  18.009  21.904  0.00  0.00    +0.052 C 
BRANCH   5   3
ATOM      1  C   UNL     1      22.097  13.474  23.383  0.00  0.00    +0.155 A 
ATOM      2  C   UNL     1      21.510  14.664  22.916  0.00  0.00    +0.157 A 
ATOM      3  N   UNL     1      22.264  15.686  22.456  0.00  0.00    -0.286 N 
ATOM      4  H   UNL     1      23.286  15.557  22.460  0.00  0.00    +0.187 HD
ATOM     25  N   UNL     1      20.174  14.750  22.959  0.00  0.00    -0.269 NA
ATOM     26  C   UNL     1      19.428  13.741  23.429  0.00  0.00    +0.148 A 
ATOM     27  N   UNL     1      19.964  12.606  23.869  0.00  0.00    -0.295 NA
ATOM     28  C   UNL     1      21.289  12.453  23.854  0.00  0.00    +0.102 A 
ATOM     29  N   UNL     1      22.074  11.457  24.220  0.00  0.00    -0.286 NA
ATOM     30  C   UNL     1      23.334  11.820  23.992  0.00  0.00    +0.251 A 
ATOM     31  N   UNL     1      23.355  13.049  23.486  0.00  0.00    -0.241 N 
ATOM     32  H   UNL     1      24.197  13.580  23.220  0.00  0.00    +0.238 HD
ENDBRANCH   5   3
ENDBRANCH   6   5
TORSDOF 3
