REMARK  Name = 2xk4_ligand
REMARK  12 active torsions:
REMARK  status: ('A' for Active; 'I' for Inactive)
REMARK    1  A    between atoms: C01_1  and  C02_2
REMARK    2  A    between atoms: C02_2  and  O03_3
REMARK    3  A    between atoms: O03_3  and  C04_4
REMARK    4  A    between atoms: C06_6  and  C07_7
REMARK    5  A    between atoms: C09_9  and  C10_10
REMARK    6  A    between atoms: C12_12  and  O13_13
REMARK    7  A    between atoms: O13_13  and  C14_14
REMARK    8  A    between atoms: C15_15  and  O16_16
REMARK    9  A    between atoms: O16_16  and  C17_17
REMARK   10  A    between atoms: C18_18  and  O19_19
REMARK   11  A    between atoms: O19_19  and  C20_20
REMARK   12  A    between atoms: C28_28  and  C29_29
REMARK                            x       y       z     vdW  Elec       q    Type
REMARK                         _______ _______ _______ _____ _____    ______ ____
ROOT
ATOM     12  C   UNL     1     -25.353  22.353 -18.616  0.00  0.00    +0.097 A 
ATOM     13  C   UNL     1     -25.292  23.595 -19.255  0.00  0.00    +0.148 A 
ATOM     14  N   UNL     1     -24.663  24.721 -18.595  0.00  0.00    -0.314 N 
ATOM     15  H   UNL     1     -24.237  24.601 -17.676  0.00  0.00    +0.181 HD
ATOM     16  H   UNL     1     -24.646  25.634 -19.049  0.00  0.00    +0.181 HD
ATOM     17  N   UNL     1     -25.853  23.749 -20.464  0.00  0.00    -0.261 NA
ATOM     18  C   UNL     1     -26.429  22.715 -21.086  0.00  0.00    +0.117 A 
ATOM     19  C   UNL     1     -26.443  21.464 -20.462  0.00  0.00    +0.054 A 
ATOM     32  N   UNL     1     -25.877  21.308 -19.260  0.00  0.00    -0.280 NA
ENDROOT
BRANCH  12  11
ATOM      4  C   UNL     1     -24.676  21.313 -15.140  0.00  0.00    +0.107 A 
ATOM      5  C   UNL     1     -23.345  21.741 -15.013  0.00  0.00    +0.039 A 
ATOM      9  C   UNL     1     -22.696  22.366 -16.080  0.00  0.00    +0.008 A 
ATOM     10  C   UNL     1     -23.383  22.565 -17.280  0.00  0.00    -0.005 A 
ATOM     11  C   UNL     1     -24.716  22.155 -17.405  0.00  0.00    -0.005 A 
ATOM     33  C   UNL     1     -25.367  21.522 -16.341  0.00  0.00    +0.035 A 
BRANCH   5   6
ATOM      6  C   UNL     1     -22.577  21.529 -13.715  0.00  0.00    +0.059 C 
ATOM      7  O   UNL     1     -21.203  21.272 -13.792  0.00  0.00    -0.564 OA
ATOM      8  O   UNL     1     -23.081  21.794 -12.675  0.00  0.00    -0.564 OA
ENDBRANCH   5   6
BRANCH   4   3
ATOM      3  O   UNL     1     -25.322  20.715 -14.054  0.00  0.00    -0.315 OA
BRANCH   3   2
ATOM      1  C   UNL     1     -26.999  19.133 -13.122  0.00  0.00    +0.040 C 
ATOM      2  C   UNL     1     -25.984  19.496 -14.205  0.00  0.00    +0.191 C 
ENDBRANCH   3   2
ENDBRANCH   4   3
ENDBRANCH  12  11
BRANCH  19  20
ATOM     20  C   UNL     1     -27.002  20.353 -21.071  0.00  0.00    -0.029 A 
ATOM     21  C   UNL     1     -27.662  20.458 -22.302  0.00  0.00    +0.002 A 
ATOM     22  C   UNL     1     -28.201  19.316 -22.910  0.00  0.00    +0.114 A 
ATOM     25  C   UNL     1     -28.078  18.064 -22.273  0.00  0.00    +0.150 A 
ATOM     28  C   UNL     1     -27.412  17.964 -21.043  0.00  0.00    +0.114 A 
ATOM     31  C   UNL     1     -26.873  19.110 -20.443  0.00  0.00    +0.002 A 
BRANCH  22  23
ATOM     23  O   UNL     1     -28.873  19.453 -24.131  0.00  0.00    -0.328 OA
ATOM     24  C   UNL     1     -28.371  18.798 -25.257  0.00  0.00    +0.228 C 
ENDBRANCH  22  23
BRANCH  25  26
ATOM     26  O   UNL     1     -28.570  16.886 -22.850  0.00  0.00    -0.327 OA
ATOM     27  C   UNL     1     -27.656  15.942 -23.358  0.00  0.00    +0.226 C 
ENDBRANCH  25  26
BRANCH  28  29
ATOM     29  O   UNL     1     -27.303  16.718 -20.407  0.00  0.00    -0.328 OA
ATOM     30  C   UNL     1     -26.781  16.644 -19.109  0.00  0.00    +0.228 C 
ENDBRANCH  28  29
ENDBRANCH  19  20
TORSDOF 8
