REMARK  Name = 5J5T
REMARK  4 active torsions:
REMARK  status: ('A' for Active; 'I' for Inactive)
REMARK    1  A    between atoms: C_6  and  O_23
REMARK    2  A    between atoms: C_7  and  C_8
REMARK    3  A    between atoms: C_7  and  O_23
REMARK    4  A    between atoms: C_15  and  C_16
REMARK                            x       y       z     vdW  Elec       q    Type
REMARK                         _______ _______ _______ _____ _____    ______ ____
ROOT
ATOM      1  C   UNL     1      20.189  -9.050  15.371  0.00  0.00    +0.346 C 
ATOM      2  N   UNL     1      21.140  -9.321  16.262  0.00  0.00    -0.244 N 
ATOM      3  H   UNL     1      20.877  -9.540  17.276  0.00  0.00    +0.288 HD
ATOM      4  H   UNL     1      22.168  -9.320  15.964  0.00  0.00    +0.288 HD
ATOM      5  N   UNL     1      18.889  -9.036  15.695  0.00  0.00    -0.075 NA
ATOM      6  C   UNL     1      17.935  -8.747  14.712  0.00  0.00    +0.327 C 
ATOM      7  C   UNL     1      18.333  -8.462  13.410  0.00  0.00    +0.013 C 
ATOM      8  C   UNL     1      17.412  -8.194  12.487  0.00  0.00    +0.020 C 
ATOM      9  S   UNL     1      15.792  -8.192  12.748  0.00  0.00    -0.076 S 
ATOM     10  C   UNL     1      15.423  -7.779  11.211  0.00  0.00    +0.077 C 
ATOM     18  N   UNL     1      16.545  -7.640  10.497  0.00  0.00    -0.276 NA
ATOM     19  C   UNL     1      17.663  -7.868  11.215  0.00  0.00    +0.185 C 
ATOM     20  C   UNL     1      19.685  -8.488  13.077  0.00  0.00    +0.062 C 
ATOM     21  C   UNL     1      20.611  -8.776  14.076  0.00  0.00    +0.211 C 
ENDROOT
BRANCH  10  11
ATOM     11  C   UNL     1      14.013  -7.593  10.667  0.00  0.00    +0.047 C 
ATOM     12  C   UNL     1      12.995  -8.089  11.681  0.00  0.00    +0.025 C 
ATOM     13  C   UNL     1      11.602  -7.890  11.107  0.00  0.00    +0.081 C 
ATOM     14  N   UNL     1      11.347  -6.470  10.822  0.00  0.00    -0.316 NA
ATOM     15  H   UNL     1      11.431  -5.904  11.726  0.00  0.00    +0.122 HD
ATOM     16  C   UNL     1      12.333  -5.980   9.844  0.00  0.00    +0.081 C 
ATOM     17  C   UNL     1      13.747  -6.124  10.384  0.00  0.00    +0.025 C 
ENDBRANCH  10  11
BRANCH  21  22
ATOM     22  O   UNL     1      21.957  -8.830  13.867  0.00  0.00    -0.480 OA
BRANCH  22  23
ATOM     23  C   UNL     1      22.328  -8.553  12.511  0.00  0.00    +0.265 C 
BRANCH  23  24
ATOM     24  C   UNL     1      23.697  -8.762  12.363  0.00  0.00    -0.007 A 
ATOM     25  C   UNL     1      24.423  -9.347  13.395  0.00  0.00    +0.026 A 
ATOM     26  C   UNL     1      25.790  -9.563  13.258  0.00  0.00    +0.111 A 
ATOM     27  N   UNL     1      26.438  -9.194  12.074  0.00  0.00    -0.263 NA
ATOM     28  C   UNL     1      25.705  -8.608  11.036  0.00  0.00    +0.111 A 
ATOM     29  C   UNL     1      24.338  -8.396  11.184  0.00  0.00    +0.026 A 
ENDBRANCH  23  24
ENDBRANCH  22  23
ENDBRANCH  21  22
TORSDOF 4
