REMARK  Name = 4ZLZ
REMARK  4 active torsions:
REMARK  status: ('A' for Active; 'I' for Inactive)
REMARK    1  A    between atoms: C_3  and  C_4
REMARK    2  A    between atoms: C_6  and  N_15
REMARK    3  A    between atoms: C_7  and  C_19
REMARK    4  A    between atoms: C_8  and  C_9
REMARK                            x       y       z     vdW  Elec       q    Type
REMARK                         _______ _______ _______ _____ _____    ______ ____
ROOT
ATOM      7  C   UNL     1     -22.108   8.035  -2.735  0.00  0.00    +0.012 A 
ATOM      8  C   UNL     1     -21.034   7.218  -2.318  0.00  0.00    +0.103 A 
ATOM      9  N   UNL     1     -20.076   6.826  -3.170  0.00  0.00    -0.148 NA
ATOM     10  N   UNL     1     -19.089   6.095  -2.810  0.00  0.00    -0.142 NA
ATOM     11  C   UNL     1     -18.919   5.657  -1.555  0.00  0.00    +0.169 A 
ATOM     17  C   UNL     1     -19.860   6.002  -0.561  0.00  0.00    +0.067 A 
ATOM     21  C   UNL     1     -20.958   6.818  -0.960  0.00  0.00    +0.026 A 
ATOM     22  C   UNL     1     -21.954   7.230  -0.060  0.00  0.00    +0.012 A 
ATOM     23  C   UNL     1     -22.988   8.025  -0.482  0.00  0.00    +0.001 A 
ATOM     24  C   UNL     1     -23.069   8.421  -1.801  0.00  0.00    +0.011 A 
ENDROOT
BRANCH   7   4
ATOM      1  C   UNL     1     -22.583   9.355  -6.742  0.00  0.00    +0.111 A 
ATOM      2  N   UNL     1     -23.341   8.388  -6.237  0.00  0.00    -0.263 NA
ATOM      3  C   UNL     1     -23.212   7.963  -4.990  0.00  0.00    +0.119 A 
ATOM      4  C   UNL     1     -22.232   8.514  -4.143  0.00  0.00    +0.005 A 
ATOM      5  C   UNL     1     -21.408   9.554  -4.648  0.00  0.00    -0.040 A 
ATOM      6  C   UNL     1     -20.338  10.227  -3.805  0.00  0.00    +0.044 C 
ATOM     25  C   UNL     1     -21.602   9.970  -5.968  0.00  0.00    +0.023 A 
ENDBRANCH   7   4
BRANCH  11  12
ATOM     12  C   UNL     1     -17.713   4.859  -1.296  0.00  0.00    +0.264 C 
ATOM     13  O   UNL     1     -17.525   4.326  -0.219  0.00  0.00    -0.269 OA
ATOM     14  N   UNL     1     -16.771   4.778  -2.259  0.00  0.00    -0.324 N 
ATOM     15  H   UNL     1     -15.884   4.203  -2.093  0.00  0.00    +0.145 HD
ATOM     16  H   UNL     1     -16.911   5.289  -3.188  0.00  0.00    +0.145 HD
ENDBRANCH  11  12
BRANCH  17  18
ATOM     18  N   UNL     1     -19.746   5.611   0.756  0.00  0.00    -0.356 N 
ATOM     19  H   UNL     1     -20.491   5.902   1.467  0.00  0.00    +0.142 HD
ATOM     20  H   UNL     1     -18.913   5.016   1.067  0.00  0.00    +0.142 HD
ENDBRANCH  17  18
TORSDOF 3
