REMARK  Name = 4j8m_ligand
REMARK  5 active torsions:
REMARK  status: ('A' for Active; 'I' for Inactive)
REMARK    1  A    between atoms: N03_3  and  C04_4
REMARK    2  A    between atoms: C08_8  and  C09_9
REMARK    3  A    between atoms: N14_14  and  C15_15
REMARK    4  A    between atoms: C20_20  and  N21_21
REMARK    5  A    between atoms: C31_31  and  C32_32
REMARK                            x       y       z     vdW  Elec       q    Type
REMARK                         _______ _______ _______ _____ _____    ______ ____
ROOT
ATOM      5  C   UNL     1     117.287 104.412 157.323  0.00  0.00    +0.057 A 
ATOM      6  C   UNL     1     116.627 104.004 158.472  0.00  0.00    -0.002 A 
ATOM      7  C   UNL     1     117.334 103.384 159.483  0.00  0.00    -0.000 A 
ATOM      8  C   UNL     1     118.696 103.179 159.337  0.00  0.00    +0.051 A 
ATOM     30  C   UNL     1     119.353 103.582 158.192  0.00  0.00    -0.000 A 
ATOM     31  C   UNL     1     118.653 104.201 157.185  0.00  0.00    -0.002 A 
ENDROOT
BRANCH   8   9
ATOM      9  N   UNL     1     119.423 102.520 160.363  0.00  0.00    -0.253 N 
ATOM     10  H   UNL     1     119.588 101.506 160.290  0.00  0.00    +0.214 HD
ATOM     11  C   UNL     1     119.931 103.229 161.495  0.00  0.00    +0.192 A 
ATOM     12  N   UNL     1     119.641 104.527 161.632  0.00  0.00    -0.236 NA
ATOM     13  C   UNL     1     120.130 105.171 162.700  0.00  0.00    +0.131 A 
ATOM     14  N   UNL     1     119.849 106.556 162.929  0.00  0.00    -0.258 N 
ATOM     15  H   UNL     1     120.136 106.963 163.831  0.00  0.00    +0.213 HD
ATOM     16  C   UNL     1     119.190 107.420 161.978  0.00  0.00    +0.097 A 
ATOM     17  C   UNL     1     118.713 107.219 160.652  0.00  0.00    -0.003 A 
ATOM     18  C   UNL     1     118.165 108.443 160.298  0.00  0.00    +0.062 A 
ATOM     24  N   UNL     1     118.320 109.306 161.302  0.00  0.00    -0.233 N 
ATOM     25  H   UNL     1     118.031 110.295 161.287  0.00  0.00    +0.245 HD
ATOM     26  N   UNL     1     118.921 108.676 162.352  0.00  0.00    -0.228 NA
ATOM     27  C   UNL     1     120.915 104.527 163.671  0.00  0.00    +0.055 A 
ATOM     28  C   UNL     1     121.172 103.179 163.463  0.00  0.00    +0.085 A 
ATOM     29  N   UNL     1     120.680 102.555 162.395  0.00  0.00    -0.270 NA
BRANCH  18  19
ATOM     19  C   UNL     1     117.512 108.887 158.987  0.00  0.00    +0.070 C 
ATOM     20  C   UNL     1     116.178 108.305 158.762  0.00  0.00    +0.022 C 
ATOM     21  C   UNL     1     115.997 108.238 157.294  0.00  0.00    +0.003 C 
ATOM     22  C   UNL     1     117.315 108.584 156.639  0.00  0.00    +0.003 C 
ATOM     23  C   UNL     1     118.313 108.779 157.755  0.00  0.00    +0.022 C 
ENDBRANCH  18  19
ENDBRANCH   8   9
BRANCH   5   3
ATOM      1  O   UNL     1     117.987 104.807 154.495  0.00  0.00    -0.382 OA
ATOM      2  C   UNL     1     116.916 105.222 154.930  0.00  0.00    +0.314 C 
ATOM      3  N   UNL     1     116.511 105.056 156.321  0.00  0.00    -0.221 N 
ATOM      4  H   UNL     1     115.621 105.423 156.590  0.00  0.00    +0.223 HD
ATOM     32  N   UNL     1     115.947 105.943 154.146  0.00  0.00    -0.209 N 
ATOM     33  H   UNL     1     115.130 106.256 154.631  0.00  0.00    +0.226 HD
BRANCH  32  34
ATOM     34  C   UNL     1     116.019 106.268 152.735  0.00  0.00    +0.096 A 
ATOM     35  C   UNL     1     117.242 106.200 152.030  0.00  0.00    +0.058 A 
ATOM     36  C   UNL     1     117.281 106.501 150.670  0.00  0.00    +0.033 A 
ATOM     41  C   UNL     1     116.106 106.865 150.003  0.00  0.00    +0.029 A 
ATOM     42  C   UNL     1     114.886 106.918 150.700  0.00  0.00    +0.023 A 
ATOM     43  C   UNL     1     114.850 106.622 152.072  0.00  0.00    +0.064 A 
BRANCH  36  37
ATOM     37  C   UNL     1     118.598 106.449 149.926  0.00  0.00    +0.373 C 
ATOM     38  F   UNL     1     118.399 106.621 148.614  0.00  0.00    -0.221 F 
ATOM     39  F   UNL     1     119.365 107.429 150.400  0.00  0.00    -0.221 F 
ATOM     40  F   UNL     1     119.208 105.288 150.152  0.00  0.00    -0.221 F 
ENDBRANCH  36  37
ENDBRANCH  32  34
ENDBRANCH   5   3
TORSDOF 5
