REMARK  Name = 3ID8
REMARK  5 active torsions:
REMARK  status: ('A' for Active; 'I' for Inactive)
REMARK    1  A    between atoms: C_7  and  C_10
REMARK    2  A    between atoms: C_9  and  N_23
REMARK    3  A    between atoms: C_12  and  S_16
REMARK    4  A    between atoms: S_16  and  C_18
REMARK    5  A    between atoms: N_17  and  C_22
REMARK                            x       y       z     vdW  Elec       q    Type
REMARK                         _______ _______ _______ _____ _____    ______ ____
ROOT
ATOM      6  C   UNL     1      -9.047   1.964  20.286  0.00  0.00    +0.059 A 
ATOM      7  C   UNL     1     -10.119   2.555  20.960  0.00  0.00    +0.033 A 
ATOM      8  C   UNL     1     -10.543   3.847  20.638  0.00  0.00    +0.051 A 
ATOM     16  C   UNL     1      -9.901   4.552  19.610  0.00  0.00    +0.139 A 
ATOM     17  C   UNL     1      -8.843   3.950  18.926  0.00  0.00    +0.063 A 
ATOM     18  F   UNL     1     -10.280   5.801  19.248  0.00  0.00    -0.204 F 
ATOM     19  C   UNL     1      -8.427   2.663  19.250  0.00  0.00    +0.040 A 
ENDROOT
BRANCH   6   5
ATOM      1  S   UNL     1      -7.954  -2.279  21.297  0.00  0.00    -0.060 S 
ATOM      2  C   UNL     1      -8.692  -1.121  22.345  0.00  0.00    +0.165 A 
ATOM      3  N   UNL     1      -8.962   0.154  21.917  0.00  0.00    -0.261 N 
ATOM      4  H   UNL     1      -9.425   0.839  22.596  0.00  0.00    +0.157 HD
ATOM      5  C   UNL     1      -8.667   0.572  20.678  0.00  0.00    +0.252 C 
ATOM     23  O   UNL     1      -8.139  -0.151  19.843  0.00  0.00    -0.270 OA
ATOM     24  N   UNL     1      -8.987  -1.543  23.591  0.00  0.00    -0.233 NA
ATOM     25  C   UNL     1      -8.601  -2.843  23.752  0.00  0.00    +0.120 A 
ATOM     26  C   UNL     1      -8.007  -3.410  22.628  0.00  0.00    +0.068 A 
ENDBRANCH   6   5
BRANCH  19  20
ATOM     20  N   UNL     1      -7.413   2.123  18.551  0.00  0.00    -0.357 N 
ATOM     21  H   UNL     1      -6.953   2.678  17.761  0.00  0.00    +0.142 HD
ATOM     22  H   UNL     1      -7.066   1.138  18.785  0.00  0.00    +0.142 HD
ENDBRANCH  19  20
BRANCH   8   9
ATOM      9  S   UNL     1     -11.849   4.485  21.522  0.00  0.00    -0.052 S 
BRANCH   9  10
ATOM     10  C   UNL     1     -11.878   6.133  21.742  0.00  0.00    +0.157 C 
ATOM     11  N   UNL     1     -11.154   6.739  22.677  0.00  0.00    -0.262 NA
ATOM     12  C   UNL     1     -11.160   8.339  22.408  0.00  0.00    +0.163 C 
ATOM     13  C   UNL     1     -12.579   8.195  21.534  0.00  0.00    +0.130 C 
ATOM     14  N   UNL     1     -12.670   6.989  21.084  0.00  0.00    -0.311 N 
ATOM     15  C   UNL     1     -13.609   6.691  20.004  0.00  0.00    +0.131 C 
ENDBRANCH   9  10
ENDBRANCH   8   9
TORSDOF 4
