REMARK  Name = 3ncz_ligand
REMARK  3 active torsions:
REMARK  status: ('A' for Active; 'I' for Inactive)
REMARK    1  A    between atoms: C1_1  and  C20_20
REMARK    2  A    between atoms: C4_4  and  N22_22
REMARK    3  A    between atoms: C15_15  and  N19_19
REMARK                            x       y       z     vdW  Elec       q    Type
REMARK                         _______ _______ _______ _____ _____    ______ ____
ROOT
ATOM      2  C   UNL     1     -14.384  -3.015  41.306  0.00  0.00    +0.208 C 
ATOM      3  O   UNL     1     -14.840  -3.123  40.195  0.00  0.00    -0.384 OA
ATOM      4  N   UNL     1     -13.567  -1.996  41.615  0.00  0.00    -0.233 N 
ATOM      5  H   UNL     1     -13.157  -1.985  42.549  0.00  0.00    +0.228 HD
ENDROOT
BRANCH   4   6
ATOM      6  C   UNL     1     -13.235  -0.941  40.743  0.00  0.00    +0.074 A 
ATOM      7  C   UNL     1     -14.214  -0.439  39.903  0.00  0.00    -0.005 A 
ATOM      8  C   UNL     1     -13.936   0.633  39.058  0.00  0.00    -0.049 A 
ATOM      9  C   UNL     1     -14.943   1.175  38.139  0.00  0.00    -0.024 A 
ATOM     10  C   UNL     1     -14.633   2.209  37.345  0.00  0.00    +0.163 A 
ATOM     11  N   UNL     1     -13.405   2.799  37.361  0.00  0.00    -0.227 N 
ATOM     12  H   UNL     1     -13.224   3.592  36.745  0.00  0.00    +0.248 HD
ATOM     13  C   UNL     1     -12.423   2.357  38.174  0.00  0.00    +0.217 A 
ATOM     14  O   UNL     1     -11.341   2.909  38.143  0.00  0.00    -0.399 OA
ATOM     15  C   UNL     1     -12.652   1.220  39.081  0.00  0.00    +0.034 A 
ATOM     16  C   UNL     1     -11.676   0.721  39.948  0.00  0.00    +0.012 A 
ATOM     17  C   UNL     1     -11.972  -0.333  40.773  0.00  0.00    +0.057 A 
ATOM     18 CL   UNL     1     -10.774  -0.975  41.867  0.00  0.00    -0.088 Cl
ENDBRANCH   4   6
BRANCH   2   1
ATOM      1  C   UNL     1     -14.717  -4.032  42.361  0.00  0.00    +0.110 C 
ATOM     19  C   UNL     1     -15.774  -3.394  43.262  0.00  0.00    +0.031 C 
ATOM     20  C   UNL     1     -16.318  -4.367  44.302  0.00  0.00    +0.057 C 
ATOM     21  C   UNL     1     -16.889  -5.584  43.607  0.00  0.00    +0.061 C 
ATOM     26  C   UNL     1     -15.755  -6.217  42.811  0.00  0.00    +0.057 C 
ATOM     27  C   UNL     1     -15.324  -5.259  41.708  0.00  0.00    +0.031 C 
BRANCH  21  22
ATOM     22  N   UNL     1     -17.940  -5.161  42.685  0.00  0.00    +0.221 N 
ATOM     23  H   UNL     1     -17.547  -4.524  41.993  0.00  0.00    +0.200 HD
ATOM     24  H   UNL     1     -18.677  -4.686  43.206  0.00  0.00    +0.200 HD
ATOM     25  H   UNL     1     -18.327  -5.979  42.215  0.00  0.00    +0.200 HD
ENDBRANCH  21  22
ENDBRANCH   2   1
TORSDOF 3
