REMARK  Name = 2x4z_ligand
REMARK  10 active torsions:
REMARK  status: ('A' for Active; 'I' for Inactive)
REMARK    1  A    between atoms: C5_5  and  C10_10
REMARK    2  A    between atoms: C5_5  and  C11_11
REMARK    3  A    between atoms: N7_7  and  C12_12
REMARK    4  A    between atoms: N16_16  and  C21_21
REMARK    5  A    between atoms: C20_20  and  C25_25
REMARK    6  A    between atoms: C21_21  and  C26_26
REMARK    7  A    between atoms: C21_21  and  C27_27
REMARK    8  A    between atoms: C27_27  and  N30_30
REMARK    9  A    between atoms: N30_30  and  C34_34
REMARK   10  A    between atoms: N30_30  and  C35_35
REMARK                            x       y       z     vdW  Elec       q    Type
REMARK                         _______ _______ _______ _____ _____    ______ ____
ROOT
ATOM      1  C   UNL     1      20.018  20.503  61.240  0.00  0.00    +0.073 A 
ATOM      2  C   UNL     1      20.280  20.706  59.801  0.00  0.00    +0.223 C 
ATOM      3  N   UNL     1      20.624  22.189  59.796  0.00  0.00    -0.287 N 
ATOM      4  C   UNL     1      20.777  22.918  58.654  0.00  0.00    +0.253 C 
ATOM      5  O   UNL     1      21.086  24.107  58.701  0.00  0.00    -0.401 OA
ATOM      6  N   UNL     1      20.603  22.313  57.489  0.00  0.00    -0.254 N 
ATOM      7  H   UNL     1      20.386  21.337  57.465  0.00  0.00    +0.188 HD
ATOM     20  C   UNL     1      20.766  22.816  61.166  0.00  0.00    +0.044 C 
ATOM     21  C   UNL     1      22.199  23.173  61.621  0.00  0.00    -0.047 C 
ATOM     22  C   UNL     1      19.836  24.023  61.414  0.00  0.00    -0.047 C 
ATOM     23  C   UNL     1      19.536  19.589  62.207  0.00  0.00    +0.192 A 
ATOM     24  N   UNL     1      19.456  20.180  63.418  0.00  0.00    -0.142 NA
ATOM     25  N   UNL     1      19.908  21.511  63.262  0.00  0.00    -0.209 N 
ATOM     26  H   UNL     1      19.978  22.231  63.996  0.00  0.00    +0.254 HD
ATOM     27  N   UNL     1      19.225  18.186  61.912  0.00  0.00    -0.243 N 
ATOM     28  H   UNL     1      18.439  17.820  62.469  0.00  0.00    +0.213 HD
ATOM     39  C   UNL     1      20.228  21.648  61.966  0.00  0.00    +0.073 A 
ENDROOT
BRANCH  27  29
ATOM     29  C   UNL     1      19.740  17.283  61.079  0.00  0.00    +0.151 A 
ATOM     30  N   UNL     1      20.715  17.656  60.210  0.00  0.00    -0.265 NA
ATOM     31  C   UNL     1      21.261  16.766  59.348  0.00  0.00    +0.065 A 
ATOM     32  C   UNL     1      22.311  17.221  58.441  0.00  0.00    +0.130 C 
ATOM     33  N   UNL     1      20.839  15.486  59.335  0.00  0.00    -0.305 NA
ATOM     34  C   UNL     1      19.837  15.027  60.202  0.00  0.00    +0.033 A 
ATOM     35  C   UNL     1      19.252  13.728  60.348  0.00  0.00    +0.003 A 
ATOM     36  C   UNL     1      18.259  13.680  61.356  0.00  0.00    +0.097 A 
ATOM     37  S   UNL     1      18.077  15.202  62.080  0.00  0.00    -0.025 S 
ATOM     38  C   UNL     1      19.258  15.966  61.125  0.00  0.00    +0.102 A 
ENDBRANCH  27  29
BRANCH   6   8
ATOM      8  C   UNL     1      20.728  23.074  56.213  0.00  0.00    +0.193 C 
BRANCH   8  14
ATOM     14  C   UNL     1      22.093  23.516  55.799  0.00  0.00    -0.013 A 
ATOM     15  C   UNL     1      23.263  22.859  56.302  0.00  0.00    -0.002 A 
ATOM     16  C   UNL     1      24.560  23.283  55.885  0.00  0.00    -0.009 A 
ATOM     17  C   UNL     1      24.668  24.369  54.960  0.00  0.00    -0.013 A 
ATOM     18  C   UNL     1      23.511  25.032  54.454  0.00  0.00    -0.009 A 
ATOM     19  C   UNL     1      22.218  24.604  54.878  0.00  0.00    -0.002 A 
ENDBRANCH   8  14
BRANCH   8   9
ATOM      9  C   UNL     1      20.019  22.325  55.029  0.00  0.00    +0.173 C 
BRANCH   9  10
ATOM     10  N   UNL     1      18.541  22.324  55.080  0.00  0.00    +0.234 N 
ATOM     11  H   UNL     1      18.244  23.280  54.960  0.00  0.00    +0.203 HD
ATOM     12  C   UNL     1      18.055  21.520  53.937  0.00  0.00    +0.190 C 
ATOM     13  C   UNL     1      17.877  21.821  56.295  0.00  0.00    +0.190 C 
ENDBRANCH   9  10
ENDBRANCH   8   9
ENDBRANCH   6   8
TORSDOF 5
