REMARK  Name = A4N
REMARK  4 active torsions:
REMARK  status: ('A' for Active; 'I' for Inactive)
REMARK    1  A    between atoms: C10_4  and  C11_5
REMARK    2  A    between atoms: C7_9  and  C6_10
REMARK    3  A    between atoms: C10_20  and  C11_21
REMARK    4  A    between atoms: C7_25  and  C6_26
REMARK                            x       y       z     vdW  Elec       q    Type
REMARK                         _______ _______ _______ _____ _____    ______ ____
ROOT
ATOM      1 CL   UNL     1      15.924 155.810 380.202  0.00  0.00    -0.082 Cl
ATOM      2  C   UNL     1      17.393 155.305 379.432  0.00  0.00    +0.057 A 
ATOM      3  C   UNL     1      17.883 154.017 379.638  0.00  0.00    +0.010 A 
ATOM     11  C   UNL     1      19.071 153.672 378.998  0.00  0.00    +0.001 A 
ATOM     12  C   UNL     1      19.725 154.577 378.181  0.00  0.00    -0.003 A 
ATOM     13  C   UNL     1      19.223 155.851 377.975  0.00  0.00    -0.002 A 
ATOM     16  C   UNL     1      18.046 156.208 378.618  0.00  0.00    +0.009 A 
ENDROOT
BRANCH   3   4
ATOM      4  C   UNL     1      17.180 153.004 380.481  0.00  0.00    -0.003 A 
ATOM      5  C   UNL     1      17.631 152.668 381.771  0.00  0.00    -0.022 A 
ATOM      6  C   UNL     1      16.917 151.709 382.487  0.00  0.00    -0.004 A 
ATOM      7  C   UNL     1      15.795 151.100 381.958  0.00  0.00    -0.000 A 
ATOM      8  C   UNL     1      15.361 151.434 380.701  0.00  0.00    -0.000 A 
ATOM      9  C   UNL     1      18.844 153.312 382.387  0.00  0.00    +0.031 C 
ATOM     10  C   UNL     1      16.046 152.381 379.962  0.00  0.00    -0.000 A 
ENDBRANCH   3   4
BRANCH  13  14
ATOM     14  C   UNL     1      19.928 156.824 377.063  0.00  0.00    +0.136 C 
ATOM     15  N   UNL     1      20.450 158.005 377.741  0.00  0.00    -0.126 NA
ENDBRANCH  13  14
TORSDOF 2
