REMARK  Name = 5K72
REMARK  6 active torsions:
REMARK  status: ('A' for Active; 'I' for Inactive)
REMARK    1  A    between atoms: C_1  and  N_15
REMARK    2  A    between atoms: C_4  and  N_20
REMARK    3  A    between atoms: C_8  and  C_10
REMARK    4  A    between atoms: C_14  and  N_15
REMARK    5  A    between atoms: N_15  and  C_16
REMARK    6  A    between atoms: C_19  and  N_20
REMARK                            x       y       z     vdW  Elec       q    Type
REMARK                         _______ _______ _______ _____ _____    ______ ____
ROOT
ATOM      7  C   UNL     1     -46.210  -8.902  -3.851  0.00  0.00    +0.132 A 
ATOM      8  N   UNL     1     -45.457  -8.024  -4.551  0.00  0.00    -0.220 NA
ATOM      9  C   UNL     1     -45.531  -6.748  -4.173  0.00  0.00    +0.225 A 
ATOM     10  N   UNL     1     -46.259  -6.212  -3.190  0.00  0.00    -0.216 NA
ATOM     11  C   UNL     1     -46.973  -7.117  -2.495  0.00  0.00    +0.165 A 
ATOM     12  N   UNL     1     -47.715  -6.853  -1.380  0.00  0.00    -0.235 NA
ATOM     13  C   UNL     1     -48.344  -7.995  -0.998  0.00  0.00    +0.117 A 
ATOM     14  C   UNL     1     -47.965  -9.030  -1.797  0.00  0.00    -0.012 A 
ATOM     21  C   UNL     1     -47.051  -8.473  -2.775  0.00  0.00    +0.064 A 
ENDROOT
BRANCH  14  15
ATOM     15  C   UNL     1     -48.329 -10.484  -1.631  0.00  0.00    +0.026 C 
ATOM     16  C   UNL     1     -49.282 -10.944  -2.735  0.00  0.00    +0.036 C 
ATOM     17  C   UNL     1     -49.674 -12.388  -2.511  0.00  0.00    +0.160 C 
ATOM     18  O   UNL     1     -50.297 -12.566  -1.230  0.00  0.00    -0.380 OA
ATOM     19  C   UNL     1     -49.378 -12.244  -0.181  0.00  0.00    +0.160 C 
ATOM     20  C   UNL     1     -48.948 -10.790  -0.251  0.00  0.00    +0.036 C 
ENDBRANCH  14  15
BRANCH   7   5
ATOM      5  N   UNL     1     -46.305 -10.143  -4.337  0.00  0.00    -0.326 N 
ATOM      6  H   UNL     1     -47.236 -10.602  -4.079  0.00  0.00    +0.148 HD
BRANCH   5   4
ATOM      1  C   UNL     1     -43.682 -12.018  -7.202  0.00  0.00    +0.056 C 
ATOM      2  C   UNL     1     -43.137 -11.688  -5.817  0.00  0.00    +0.020 C 
ATOM      3  C   UNL     1     -43.998 -10.627  -5.143  0.00  0.00    +0.024 C 
ATOM      4  C   UNL     1     -45.466 -11.028  -5.127  0.00  0.00    +0.072 C 
ATOM     22  C   UNL     1     -45.983 -11.280  -6.531  0.00  0.00    +0.024 C 
ATOM     26  C   UNL     1     -45.168 -12.380  -7.212  0.00  0.00    +0.020 C 
BRANCH   1  23
ATOM     23  N   UNL     1     -42.731 -12.822  -8.039  0.00  0.00    -0.305 NA
ATOM     24  C   UNL     1     -43.067 -14.220  -8.349  0.00  0.00    +0.105 C 
ATOM     25  C   UNL     1     -42.414 -12.059  -9.256  0.00  0.00    +0.105 C 
ENDBRANCH   1  23
ENDBRANCH   5   4
ENDBRANCH   7   5
TORSDOF 4
