REMARK  Name = 4FHK
REMARK  4 active torsions:
REMARK  status: ('A' for Active; 'I' for Inactive)
REMARK    1  A    between atoms: N_7  and  C_8
REMARK    2  A    between atoms: C_11  and  C_12
REMARK    3  A    between atoms: C_14  and  C_15
REMARK    4  A    between atoms: N_24  and  C_25
REMARK                            x       y       z     vdW  Elec       q    Type
REMARK                         _______ _______ _______ _____ _____    ______ ____
ROOT
ATOM      9  C   UNL     1      22.049  14.469  21.299  0.00  0.00    +0.250 C 
ATOM     10  C   UNL     1      23.372  14.121  21.078  0.00  0.00    +0.332 C 
ATOM     11  N   UNL     1      24.019  13.159  21.749  0.00  0.00    -0.023 NA
ATOM     18  N   UNL     1      23.879  14.888  20.111  0.00  0.00    -0.186 N 
ATOM     19  H   UNL     1      24.880  14.836  19.736  0.00  0.00    +0.300 HD
ATOM     20  C   UNL     1      22.933  15.733  19.686  0.00  0.00    +0.209 C 
ATOM     21  C   UNL     1      22.943  16.726  18.709  0.00  0.00    +0.071 C 
ATOM     22  C   UNL     1      21.768  17.442  18.506  0.00  0.00    +0.025 C 
ATOM     23  C   UNL     1      20.656  17.128  19.289  0.00  0.00    +0.101 C 
ATOM     24  N   UNL     1      20.715  16.167  20.204  0.00  0.00    -0.300 NA
ATOM     25  H   UNL     1      19.840  15.955  20.782  0.00  0.00    +0.186 HD
ATOM     26  N   UNL     1      21.742  15.506  20.415  0.00  0.00    -0.226 NA
ENDROOT
BRANCH   9   8
ATOM      4  C   UNL     1      19.062  13.542  23.287  0.00  0.00    +0.159 A 
ATOM      5  N   UNL     1      19.643  12.660  24.119  0.00  0.00    -0.214 NA
ATOM      6  C   UNL     1      20.959  12.388  24.029  0.00  0.00    +0.129 A 
ATOM      7  N   UNL     1      21.728  12.986  23.108  0.00  0.00    -0.234 NA
ATOM      8  C   UNL     1      21.209  13.873  22.243  0.00  0.00    +0.090 A 
ATOM     27  C   UNL     1      21.602  11.392  24.984  0.00  0.00    +0.088 C 
ATOM     28  C   UNL     1      19.847  14.167  22.316  0.00  0.00    +0.074 A 
BRANCH   4   3
ATOM      1  C   UNL     1      15.676  14.882  23.230  0.00  0.00    +0.157 C 
ATOM      2  C   UNL     1      17.044  14.818  22.957  0.00  0.00    +0.152 C 
ATOM      3  N   UNL     1      17.744  13.766  23.419  0.00  0.00    -0.209 NA
ATOM     29  N   UNL     1      17.609  15.813  22.241  0.00  0.00    -0.344 N 
ATOM     30  H   UNL     1      18.656  15.779  22.023  0.00  0.00    +0.167 HD
ATOM     31  C   UNL     1      16.882  16.833  21.804  0.00  0.00    +0.104 C 
ATOM     32  C   UNL     1      15.517  16.877  22.084  0.00  0.00    +0.128 C 
ATOM     33  N   UNL     1      14.955  15.903  22.786  0.00  0.00    -0.258 NA
ENDBRANCH   4   3
ENDBRANCH   9   8
BRANCH  11  12
ATOM     12  C   UNL     1      25.297  12.830  21.543  0.00  0.00    +0.263 A 
ATOM     13  N   UNL     1      26.081  13.279  20.566  0.00  0.00    -0.240 N 
ATOM     14  H   UNL     1      25.797  13.973  19.803  0.00  0.00    +0.193 HD
ATOM     15  N   UNL     1      27.191  12.757  20.692  0.00  0.00    -0.179 NA
ATOM     16  C   UNL     1      27.184  11.943  21.750  0.00  0.00    +0.138 A 
ATOM     17  C   UNL     1      25.976  11.987  22.299  0.00  0.00    +0.097 A 
ENDBRANCH  11  12
TORSDOF 3
