REMARK  Name = 3wbl_ligand
REMARK  7 active torsions:
REMARK  status: ('A' for Active; 'I' for Inactive)
REMARK    1  A    between atoms: C15_6  and  N10_7
REMARK    2  A    between atoms: C3_9  and  C14_10
REMARK    3  A    between atoms: C1_17  and  N9_18
REMARK    4  A    between atoms: N9_18  and  C13_19
REMARK    5  A    between atoms: C16_24  and  O21_25
REMARK    6  A    between atoms: O21_25  and  C24_26
REMARK    7  A    between atoms: C24_26  and  C27_27
REMARK                            x       y       z     vdW  Elec       q    Type
REMARK                         _______ _______ _______ _____ _____    ______ ____
ROOT
ATOM      3  N   UNL     1      26.534  63.384   9.560  0.00  0.00    -0.299 N 
ATOM      4  H   UNL     1      26.797  62.446   9.225  0.00  0.00    +0.183 HD
ATOM      5  C   UNL     1      27.109  64.467   8.941  0.00  0.00    +0.096 A 
ATOM      6  N   UNL     1      26.603  65.740   9.067  0.00  0.00    -0.293 NA
ATOM      7  C   UNL     1      27.196  66.783   8.411  0.00  0.00    +0.127 A 
ATOM      8  N   UNL     1      28.339  66.644   7.612  0.00  0.00    -0.127 N 
ATOM      9  C   UNL     1      28.988  65.397   7.427  0.00  0.00    +0.234 A 
ATOM     21  N   UNL     1      28.687  67.869   7.062  0.00  0.00    -0.226 NA
ATOM     22  C   UNL     1      27.736  68.758   7.549  0.00  0.00    +0.029 A 
ATOM     23  C   UNL     1      26.774  68.157   8.373  0.00  0.00    -0.041 A 
ATOM     24  C   UNL     1      28.335  64.224   8.105  0.00  0.00    +0.060 A 
ATOM     25  C   UNL     1      28.880  62.813   7.994  0.00  0.00    +0.057 C 
ENDROOT
BRANCH   3   2
ATOM      1  C   UNL     1      25.120  62.039  11.004  0.00  0.00    +0.038 C 
ATOM      2  C   UNL     1      25.575  63.466  10.661  0.00  0.00    +0.140 C 
ATOM     26  C   UNL     1      26.152  64.212  11.885  0.00  0.00    +0.157 C 
ATOM     27  N   UNL     1      25.324  64.027  13.068  0.00  0.00    +0.229 N 
ATOM     28  H   UNL     1      24.551  64.667  12.978  0.00  0.00    +0.201 HD
ATOM     29  H   UNL     1      25.891  64.294  13.857  0.00  0.00    +0.201 HD
ATOM     30  C   UNL     1      24.744  62.720  13.397  0.00  0.00    +0.129 C 
ATOM     31  C   UNL     1      24.141  62.004  12.177  0.00  0.00    +0.053 C 
ENDBRANCH   3   2
BRANCH   9  10
ATOM     10  N   UNL     1      30.103  65.348   6.650  0.00  0.00    -0.236 N 
ATOM     11  H   UNL     1      30.228  66.113   5.971  0.00  0.00    +0.219 HD
BRANCH  10  12
ATOM     12  C   UNL     1      31.072  64.390   6.678  0.00  0.00    +0.058 A 
ATOM     13  C   UNL     1      31.508  63.892   5.446  0.00  0.00    +0.005 A 
ATOM     14  C   UNL     1      32.489  62.907   5.395  0.00  0.00    +0.010 A 
ATOM     15  C   UNL     1      33.057  62.405   6.581  0.00  0.00    +0.080 A 
ATOM     19  C   UNL     1      32.615  62.895   7.824  0.00  0.00    +0.010 A 
ATOM     20  C   UNL     1      31.630  63.896   7.877  0.00  0.00    +0.005 A 
BRANCH  15  16
ATOM     16  O   UNL     1      34.031  61.418   6.534  0.00  0.00    -0.326 OA
BRANCH  16  17
ATOM     17  C   UNL     1      34.823  61.122   5.372  0.00  0.00    +0.187 C 
ATOM     18  C   UNL     1      36.215  61.726   5.502  0.00  0.00    +0.039 C 
ENDBRANCH  16  17
ENDBRANCH  15  16
ENDBRANCH  10  12
ENDBRANCH   9  10
TORSDOF 5
