REMARK  Name = 1y91_ligand
REMARK  11 active torsions:
REMARK  status: ('A' for Active; 'I' for Inactive)
REMARK    1  A    between atoms: N8_1  and  C4_7
REMARK    2  A    between atoms: C61_2  and  N6_4
REMARK    3  A    between atoms: S1_3  and  N6_4
REMARK    4  A    between atoms: S1_3  and  C16_32
REMARK    5  A    between atoms: N6_4  and  C62_5
REMARK    6  A    between atoms: C1_12  and  N7_13
REMARK    7  A    between atoms: N7_13  and  C7_14
REMARK    8  A    between atoms: C11_18  and  C20_19
REMARK    9  A    between atoms: C20_19  and  C21_20
REMARK   10  A    between atoms: C20_19  and  C22_21
REMARK   11  A    between atoms: N5_26  and  C13_27
REMARK                            x       y       z     vdW  Elec       q    Type
REMARK                         _______ _______ _______ _____ _____    ______ ____
ROOT
ATOM     11  C   UNL     1       0.169  63.427   8.418  0.00  0.00    +0.152 A 
ATOM     12  N   UNL     1      -0.494  64.577   8.514  0.00  0.00    -0.227 NA
ATOM     13  C   UNL     1       0.009  65.657   7.942  0.00  0.00    +0.150 A 
ATOM     14  N   UNL     1       1.121  65.648   7.239  0.00  0.00    -0.181 N 
ATOM     15  C   UNL     1       1.839  64.533   7.095  0.00  0.00    +0.198 A 
ATOM     16  N   UNL     1       2.999  64.579   6.382  0.00  0.00    -0.226 N 
ATOM     17  H   UNL     1       3.181  65.403   5.791  0.00  0.00    +0.248 HD
ATOM     30  N   UNL     1       1.361  66.878   6.789  0.00  0.00    -0.191 N 
ATOM     31  H   UNL     1       2.165  67.165   6.213  0.00  0.00    +0.279 HD
ATOM     32  C   UNL     1       0.363  67.687   7.221  0.00  0.00    +0.234 A 
ATOM     33  C   UNL     1      -0.519  66.920   7.965  0.00  0.00    +0.057 A 
ATOM     37  C   UNL     1       1.349  63.366   7.690  0.00  0.00    +0.147 A 
ENDROOT
BRANCH  16  18
ATOM     18  C   UNL     1       3.916  63.598   6.415  0.00  0.00    +0.098 A 
ATOM     19  C   UNL     1       4.583  63.214   5.233  0.00  0.00    +0.046 A 
ATOM     20  C   UNL     1       5.537  62.200   5.291  0.00  0.00    +0.034 A 
ATOM     21  C   UNL     1       5.818  61.593   6.501  0.00  0.00    +0.110 A 
ATOM     22  C   UNL     1       5.156  61.977   7.672  0.00  0.00    +0.034 A 
ATOM     29  C   UNL     1       4.202  62.975   7.643  0.00  0.00    +0.046 A 
BRANCH  21  23
ATOM     23  S   UNL     1       7.020  60.279   6.619  0.00  0.00    +0.071 S 
ATOM     24  O   UNL     1       7.937  60.700   7.669  0.00  0.00    -0.150 OA
ATOM     25  O   UNL     1       7.614  60.077   5.287  0.00  0.00    -0.150 OA
BRANCH  23  26
ATOM     26  N   UNL     1       6.279  58.886   7.002  0.00  0.00    -0.240 NA
ATOM     27  C   UNL     1       6.104  58.452   8.393  0.00  0.00    +0.151 C 
ATOM     28  C   UNL     1       5.768  58.048   5.913  0.00  0.00    +0.151 C 
ENDBRANCH  23  26
ENDBRANCH  21  23
ENDBRANCH  16  18
BRANCH  33  34
ATOM     34  C   UNL     1      -1.787  67.304   8.615  0.00  0.00    +0.057 C 
ATOM     35  C   UNL     1      -2.975  66.494   8.240  0.00  0.00    +0.031 C 
ATOM     36  C   UNL     1      -1.794  67.671  10.074  0.00  0.00    +0.031 C 
ENDBRANCH  33  34
BRANCH  11   9
ATOM      9  N   UNL     1      -0.404  62.344   8.968  0.00  0.00    -0.297 N 
ATOM     10  H   UNL     1      -0.764  61.650   8.297  0.00  0.00    +0.183 HD
BRANCH   9   8
ATOM      5  C   UNL     1      -2.405  62.252  12.629  0.00  0.00    +0.061 C 
ATOM      6  C   UNL     1      -2.251  60.932  11.863  0.00  0.00    +0.056 C 
ATOM      7  C   UNL     1      -1.891  61.220  10.406  0.00  0.00    +0.033 C 
ATOM      8  C   UNL     1      -0.590  62.009  10.356  0.00  0.00    +0.095 C 
ATOM     38  C   UNL     1      -0.783  63.333  11.065  0.00  0.00    +0.033 C 
ATOM     39  C   UNL     1      -1.114  63.073  12.524  0.00  0.00    +0.056 C 
BRANCH   5   1
ATOM      1  N   UNL     1      -2.688  61.965  14.051  0.00  0.00    +0.221 N 
ATOM      2  H   UNL     1      -3.541  61.433  14.123  0.00  0.00    +0.200 HD
ATOM      3  H   UNL     1      -1.927  61.435  14.445  0.00  0.00    +0.200 HD
ATOM      4  H   UNL     1      -2.789  62.832  14.555  0.00  0.00    +0.200 HD
ENDBRANCH   5   1
ENDBRANCH   9   8
ENDBRANCH  11   9
TORSDOF 7
