REMARK  Name = 2hz4_ligand
REMARK  5 active torsions:
REMARK  status: ('A' for Active; 'I' for Inactive)
REMARK    1  A    between atoms: CAB_1  and  OAQ_2
REMARK    2  A    between atoms: OAQ_2  and  CBF_3
REMARK    3  A    between atoms: CBD_4  and  NAO_5
REMARK    4  A    between atoms: NAO_5  and  CAA_6
REMARK    5  A    between atoms: CBI_10  and  CAC_11
REMARK                            x       y       z     vdW  Elec       q    Type
REMARK                         _______ _______ _______ _____ _____    ______ ____
ROOT
ATOM      3  C   UNL     1      25.082   4.032  27.776  0.00  0.00    +0.227 C 
ATOM      4  C   UNL     1      26.159   2.889  27.624  0.00  0.00    +0.202 C 
ATOM      5  N   UNL     1      26.659   2.665  26.247  0.00  0.00    -0.231 N 
ATOM      6  C   UNL     1      27.699   3.458  25.741  0.00  0.00    +0.090 A 
ATOM      7  C   UNL     1      28.431   4.475  26.290  0.00  0.00    +0.085 A 
ATOM      8  C   UNL     1      29.473   5.161  25.562  0.00  0.00    -0.030 A 
ATOM      9  C   UNL     1      29.680   4.697  24.228  0.00  0.00    +0.020 A 
ATOM     10  C   UNL     1      30.619   5.142  23.223  0.00  0.00    +0.181 C 
ATOM     11  O   UNL     1      31.430   6.054  23.367  0.00  0.00    -0.400 OA
ATOM     12  N   UNL     1      30.418   4.380  22.131  0.00  0.00    -0.280 N 
ATOM     13  H   UNL     1      30.957   4.498  21.297  0.00  0.00    +0.186 HD
ATOM     14  C   UNL     1      29.363   3.368  22.235  0.00  0.00    +0.195 C 
ATOM     15  C   UNL     1      28.946   3.650  23.658  0.00  0.00    -0.024 A 
ATOM     16  C   UNL     1      30.017   6.167  26.456  0.00  0.00    -0.052 A 
ATOM     17  C   UNL     1      31.121   7.174  26.228  0.00  0.00    +0.022 C 
ATOM     18  C   UNL     1      31.413   8.124  27.424  0.00  0.00    +0.007 C 
ATOM     19  C   UNL     1      30.214   8.311  28.377  0.00  0.00    +0.017 C 
ATOM     20  C   UNL     1      29.605   6.968  28.813  0.00  0.00    +0.088 C 
ATOM     21  C   UNL     1      29.326   6.082  27.612  0.00  0.00    +0.042 A 
ATOM     22  N   UNL     1      28.370   5.096  27.533  0.00  0.00    -0.245 N 
ATOM     23  C   UNL     1      27.535   4.687  28.654  0.00  0.00    +0.264 C 
ATOM     24  C   UNL     1      26.385   5.605  29.134  0.00  0.00    +0.122 C 
ATOM     25  C   UNL     1      27.927   3.002  24.392  0.00  0.00    -0.005 A 
ATOM     26  C   UNL     1      27.011   1.935  24.122  0.00  0.00    -0.012 A 
ATOM     27  C   UNL     1      26.855   1.173  22.927  0.00  0.00    -0.016 A 
ATOM     28  C   UNL     1      25.863   0.151  22.866  0.00  0.00    -0.026 A 
ATOM     29  C   UNL     1      25.063  -0.078  24.014  0.00  0.00    -0.020 A 
ATOM     30  C   UNL     1      25.255   0.728  25.186  0.00  0.00    +0.011 A 
ATOM     31  C   UNL     1      26.251   1.760  25.235  0.00  0.00    +0.068 A 
ATOM     32  C   UNL     1      25.767   1.588  28.354  0.00  0.00    +0.079 C 
ATOM     33  O   UNL     1      27.265   3.274  28.459  0.00  0.00    -0.314 OA
ATOM     34  C   UNL     1      25.090   4.773  29.114  0.00  0.00    +0.102 C 
ENDROOT
BRANCH  34  35
ATOM     35  N   UNL     1      23.828   5.541  29.276  0.00  0.00    +0.229 N 
ATOM     36  H   UNL     1      23.979   6.419  28.804  0.00  0.00    +0.201 HD
ATOM     37  H   UNL     1      23.122   5.014  28.787  0.00  0.00    +0.201 HD
ATOM     38  C   UNL     1      23.236   5.886  30.583  0.00  0.00    +0.189 C 
ENDBRANCH  34  35
BRANCH   3   2
ATOM      1  C   UNL     1      24.560   4.758  25.465  0.00  0.00    +0.195 C 
ATOM      2  O   UNL     1      25.080   5.052  26.758  0.00  0.00    -0.369 OA
ENDBRANCH   3   2
TORSDOF 2
