REMARK  Name = 87P
REMARK  5 active torsions:
REMARK  status: ('A' for Active; 'I' for Inactive)
REMARK    1  A    between atoms: C13_7  and  O28_28
REMARK    2  A    between atoms: C15_8  and  C9_16
REMARK    3  A    between atoms: C12_18  and  N24_24
REMARK    4  A    between atoms: C14_19  and  O28_28
REMARK    5  A    between atoms: N24_24  and  S29_29
REMARK                            x       y       z     vdW  Elec       q    Type
REMARK                         _______ _______ _______ _____ _____    ______ ____
ROOT
ATOM      1  C   UNL     1      12.630  14.472  19.223  0.00  0.00    +0.021 A 
ATOM      2  C   UNL     1      13.710  14.818  20.004  0.00  0.00    +0.039 A 
ATOM      3  C   UNL     1      14.976  14.758  19.455  0.00  0.00    +0.147 A 
ATOM     11  C   UNL     1      15.199  14.352  18.149  0.00  0.00    +0.053 A 
ATOM     23  C   UNL     1      14.105  13.994  17.385  0.00  0.00    +0.023 A 
ATOM     24  C   UNL     1      12.828  14.067  17.915  0.00  0.00    +0.091 A 
ENDROOT
BRANCH  11  12
ATOM     12  C   UNL     1      16.525  14.361  17.569  0.00  0.00    +0.080 A 
ATOM     13  N   UNL     1      17.406  15.389  17.789  0.00  0.00    -0.250 NA
ATOM     14  C   UNL     1      18.572  15.205  17.104  0.00  0.00    +0.062 A 
ATOM     15  C   UNL     1      19.651  16.200  17.203  0.00  0.00    +0.052 C 
ATOM     16  C   UNL     1      18.450  14.010  16.418  0.00  0.00    +0.046 A 
ATOM     17  C   UNL     1      19.376  13.355  15.524  0.00  0.00    +0.174 C 
ATOM     18  O   UNL     1      20.502  13.774  15.272  0.00  0.00    -0.291 OA
ATOM     19  C   UNL     1      18.854  12.086  14.861  0.00  0.00    +0.070 C 
ATOM     20  C   UNL     1      17.802  11.350  15.663  0.00  0.00    +0.013 C 
ATOM     21  C   UNL     1      16.669  12.243  16.123  0.00  0.00    +0.029 C 
ATOM     22  C   UNL     1      17.165  13.495  16.707  0.00  0.00    -0.001 A 
ENDBRANCH  11  12
BRANCH   3   4
ATOM      4  O   UNL     1      16.049  15.151  20.229  0.00  0.00    -0.453 OA
BRANCH   4   5
ATOM      5  C   UNL     1      16.560  14.206  21.113  0.00  0.00    +0.145 A 
ATOM      6  C   UNL     1      17.417  14.692  22.083  0.00  0.00    +0.037 A 
ATOM      7  C   UNL     1      17.966  13.836  23.012  0.00  0.00    +0.003 A 
ATOM      8  C   UNL     1      17.646  12.495  22.962  0.00  0.00    +0.000 A 
ATOM      9  C   UNL     1      16.786  12.009  22.000  0.00  0.00    +0.003 A 
ATOM     10  C   UNL     1      16.235  12.860  21.065  0.00  0.00    +0.037 A 
ENDBRANCH   4   5
ENDBRANCH   3   4
BRANCH  24  25
ATOM     25  N   UNL     1      11.650  13.690  17.190  0.00  0.00    -0.101 NA
BRANCH  25  26
ATOM     26  S   UNL     1      11.549  13.830  15.488  0.00  0.00    +0.075 S 
ATOM     27  O   UNL     1      10.159  13.751  15.077  0.00  0.00    -0.153 OA
ATOM     28  C   UNL     1      12.225  12.232  15.067  0.00  0.00    +0.202 C 
ATOM     29  O   UNL     1      12.465  14.830  14.973  0.00  0.00    -0.153 OA
ENDBRANCH  25  26
ENDBRANCH  24  25
TORSDOF 5
