REMARK  Name = 6M95
REMARK  5 active torsions:
REMARK  status: ('A' for Active; 'I' for Inactive)
REMARK    1  A    between atoms: C5_2  and  S6_25
REMARK    2  A    between atoms: C10_5  and  C11_13
REMARK    3  A    between atoms: C17_7  and  C16_15
REMARK    4  A    between atoms: C17_7  and  C18_16
REMARK    5  A    between atoms: C3_20  and  O2_24
REMARK                            x       y       z     vdW  Elec       q    Type
REMARK                         _______ _______ _______ _____ _____    ______ ____
ROOT
ATOM      8  C   UNL     1     -19.744  -1.536 -24.971  0.00  0.00    +0.600 C 
ATOM      9  O   UNL     1     -20.001  -1.286 -26.135  0.00  0.00    -0.550 OA
ATOM     10  N   UNL     1     -19.912  -0.657 -23.930  0.00  0.00    -0.250 N 
ATOM     11  C   UNL     1     -19.576  -1.013 -22.567  0.00  0.00    +0.000 C 
ATOM     12  C   UNL     1     -20.715  -0.598 -21.658  0.00  0.00    -0.100 C 
ATOM     13  C   UNL     1     -21.152   0.862 -21.846  0.00  0.00    -0.050 C 
ATOM     21  C   UNL     1     -21.425   1.167 -23.311  0.00  0.00    -0.100 C 
ATOM     22  C   UNL     1     -20.237   0.759 -24.157  0.00  0.00    +0.000 C 
ENDROOT
BRANCH   8   5
ATOM      1  C   UNL     1     -17.722  -4.504 -23.731  0.00  0.00    -0.130 A 
ATOM      2  C   UNL     1     -18.078  -3.193 -24.031  0.00  0.00    +0.185 A 
ATOM      5  C   UNL     1     -19.292  -2.916 -24.628  0.00  0.00    +0.000 A 
ATOM      6  C   UNL     1     -20.161  -3.928 -24.944  0.00  0.00    -0.130 A 
ATOM      7  C   UNL     1     -19.813  -5.225 -24.635  0.00  0.00    -0.130 A 
ATOM     23  C   UNL     1     -18.603  -5.509 -24.035  0.00  0.00    +0.060 A 
BRANCH   2   3
ATOM      3  O   UNL     1     -17.263  -2.118 -23.776  0.00  0.00    -0.365 OA
ATOM      4  C   UNL     1     -16.107  -2.367 -22.961  0.00  0.00    +0.030 C 
ENDBRANCH   2   3
BRANCH  23  24
ATOM     24  S   UNL     1     -18.251  -7.213 -23.693  0.00  0.00    -0.110 S 
ATOM     25  C   UNL     1     -16.725  -7.238 -22.760  0.00  0.00    -0.100 C 
ENDBRANCH  23  24
ENDBRANCH   8   5
BRANCH  13  14
ATOM     14  C   UNL     1     -22.414   1.139 -21.012  0.00  0.00    -0.100 C 
BRANCH  14  15
ATOM     15  C   UNL     1     -22.863   2.592 -21.193  0.00  0.00    +0.000 A 
ATOM     16  C   UNL     1     -24.096   2.837 -21.772  0.00  0.00    -0.130 A 
ATOM     17  C   UNL     1     -24.575   4.122 -21.966  0.00  0.00    -0.130 A 
ATOM     18  C   UNL     1     -23.831   5.201 -21.559  0.00  0.00    -0.130 A 
ATOM     19  C   UNL     1     -22.597   4.977 -20.954  0.00  0.00    -0.130 A 
ATOM     20  C   UNL     1     -22.121   3.680 -20.769  0.00  0.00    -0.130 A 
ENDBRANCH  14  15
ENDBRANCH  13  14
TORSDOF 5
