REMARK  Name = 8UB
REMARK  0 active torsions:
REMARK  status: ('A' for Active; 'I' for Inactive)
REMARK                            x       y       z     vdW  Elec       q    Type
REMARK                         _______ _______ _______ _____ _____    ______ ____
ROOT
ATOM      1  C   UNL     1     141.076  -1.873   2.319  0.00  0.00    +0.102 A 
ATOM      2  C   UNL     1     142.270  -1.802   3.033  0.00  0.00    +0.021 C 
ATOM      3  C   UNL     1     143.433  -1.440   2.374  0.00  0.00    +0.002 C 
ATOM      4  C   UNL     1     143.413  -1.148   1.019  0.00  0.00    +0.002 C 
ATOM      5  C   UNL     1     142.230  -1.215   0.303  0.00  0.00    +0.021 C 
ATOM      6  N   UNL     1     139.884  -2.246   2.935  0.00  0.00    -0.205 NA
ATOM      7  C   UNL     1     138.695  -2.354   2.295  0.00  0.00    +0.293 A 
ATOM      8  O   UNL     1     137.669  -2.694   2.887  0.00  0.00    -0.264 OA
ATOM      9  C   UNL     1     138.750  -2.035   0.841  0.00  0.00    +0.117 A 
ATOM     10  N   UNL     1     139.866  -1.665   0.210  0.00  0.00    -0.243 NA
ATOM     11  C   UNL     1     137.494  -2.174   0.136  0.00  0.00    +0.057 C 
ATOM     12  C   UNL     1     141.046  -1.582   0.947  0.00  0.00    +0.099 A 
ENDROOT
TORSDOF 0
