REMARK  Name = 4JPG
REMARK  3 active torsions:
REMARK  status: ('A' for Active; 'I' for Inactive)
REMARK    1  A    between atoms: C_13  and  C_16
REMARK    2  A    between atoms: C_15  and  O_21
REMARK    3  A    between atoms: C_16  and  N_19
REMARK                            x       y       z     vdW  Elec       q    Type
REMARK                         _______ _______ _______ _____ _____    ______ ____
ROOT
ATOM      8  C   UNL     1       7.733   3.471  11.449  0.00  0.00    +0.086 C 
ATOM      9  N   UNL     1       8.721   4.338  11.836  0.00  0.00    -0.204 NA
ATOM     10  C   UNL     1       9.585   3.992  12.884  0.00  0.00    +0.129 C 
ATOM     11  N   UNL     1       9.457   2.805  13.492  0.00  0.00    -0.244 NA
ATOM     12  C   UNL     1       8.438   1.902  13.064  0.00  0.00    +0.170 C 
ATOM     15  C   UNL     1      10.265   2.457  14.502  0.00  0.00    +0.082 C 
ATOM     16  C   UNL     1      11.248   3.322  14.938  0.00  0.00    +0.016 C 
ATOM     17  C   UNL     1      11.389   4.548  14.317  0.00  0.00    +0.004 C 
ATOM     18  C   UNL     1      10.553   4.894  13.279  0.00  0.00    +0.039 C 
ATOM     19  C   UNL     1       7.512   2.262  11.972  0.00  0.00    +0.075 C 
ENDROOT
BRANCH  12  13
ATOM     13  O   UNL     1       8.354   0.814  13.628  0.00  0.00    -0.370 OA
ATOM     14  H   UNL     1       7.406   0.720  14.070  0.00  0.00    +0.212 HD
ENDBRANCH  12  13
BRANCH   8   7
ATOM      7  C   UNL     1       6.893   3.965  10.333  0.00  0.00    +0.149 C 
BRANCH   7   6
ATOM      1  C   UNL     1       9.071   0.912   6.757  0.00  0.00    +0.002 A 
ATOM      2  C   UNL     1       9.397   2.238   6.557  0.00  0.00    +0.030 A 
ATOM      3  C   UNL     1       8.852   3.144   7.454  0.00  0.00    +0.089 A 
ATOM      4  N   UNL     1       8.997   4.503   7.493  0.00  0.00    -0.236 NA
ATOM      5  C   UNL     1       8.291   4.917   8.523  0.00  0.00    +0.200 A 
ATOM      6  N   UNL     1       7.686   3.868   9.137  0.00  0.00    -0.328 N 
ATOM     20  C   UNL     1       8.013   2.720   8.473  0.00  0.00    +0.069 A 
ATOM     21  C   UNL     1       7.678   1.397   8.686  0.00  0.00    +0.028 A 
ATOM     22  C   UNL     1       8.252   0.516   7.793  0.00  0.00    +0.002 A 
ENDBRANCH   7   6
ENDBRANCH   8   7
TORSDOF 3
