REMARK  Name = 4F7L
REMARK  16 active torsions:
REMARK  status: ('A' for Active; 'I' for Inactive)
REMARK    1  A    between atoms: C_2  and  O_3
REMARK    2  A    between atoms: O_3  and  C_4
REMARK    3  A    between atoms: C_4  and  C_5
REMARK    4  A    between atoms: C_4  and  C_6
REMARK    5  A    between atoms: C_4  and  C_7
REMARK    6  A    between atoms: N_8  and  C_9
REMARK    7  A    between atoms: C_9  and  C_10
REMARK    8  A    between atoms: C_10  and  C_11
REMARK    9  A    between atoms: C_11  and  N_12
REMARK   10  A    between atoms: N_15  and  C_16
REMARK   11  A    between atoms: C_18  and  C_19
REMARK   12  A    between atoms: C_19  and  C_20
REMARK   13  A    between atoms: C_19  and  C_21
REMARK   14  A    between atoms: C_19  and  C_22
REMARK   15  A    between atoms: N_24  and  C_25
REMARK   16  A    between atoms: C_29  and  C_30
REMARK                            x       y       z     vdW  Elec       q    Type
REMARK                         _______ _______ _______ _____ _____    ______ ____
ROOT
ATOM      8  N   UNL     1      39.655  59.254 144.928  0.00  0.00    -0.299 N 
ATOM      9  H   UNL     1      38.639  59.581 145.004  0.00  0.00    +0.150 HD
ATOM     10  C   UNL     1      40.151  58.366 145.859  0.00  0.00    +0.305 C 
ATOM     11  N   UNL     1      39.363  57.953 146.905  0.00  0.00    -0.254 N 
ATOM     12  H   UNL     1      38.386  58.386 146.963  0.00  0.00    +0.158 HD
ATOM     29  O   UNL     1      41.284  57.976 145.739  0.00  0.00    -0.253 OA
ENDROOT
BRANCH  11  13
ATOM     13  C   UNL     1      39.702  57.006 147.929  0.00  0.00    +0.130 A 
ATOM     14  N   UNL     1      38.897  56.387 148.826  0.00  0.00    -0.218 N 
ATOM     22  N   UNL     1      39.547  55.568 149.553  0.00  0.00    -0.169 NA
ATOM     23  C   UNL     1      40.852  55.613 149.212  0.00  0.00    +0.071 A 
ATOM     28  C   UNL     1      40.968  56.517 148.189  0.00  0.00    +0.069 A 
BRANCH  14  15
ATOM     15  C   UNL     1      37.442  56.517 148.953  0.00  0.00    +0.067 A 
ATOM     16  C   UNL     1      36.670  56.492 147.788  0.00  0.00    +0.028 A 
ATOM     17  C   UNL     1      35.290  56.583 147.846  0.00  0.00    +0.005 A 
ATOM     18  C   UNL     1      34.668  56.678 149.086  0.00  0.00    -0.050 A 
ATOM     19  C   UNL     1      35.431  56.695 150.259  0.00  0.00    +0.005 A 
ATOM     20  C   UNL     1      33.167  56.775 149.141  0.00  0.00    +0.044 C 
ATOM     21  C   UNL     1      36.818  56.609 150.189  0.00  0.00    +0.028 A 
ENDBRANCH  14  15
BRANCH  23  24
ATOM     24  C   UNL     1      41.991  54.809 149.825  0.00  0.00    +0.006 C 
ATOM     25  C   UNL     1      41.509  53.383 150.049  0.00  0.00    +0.017 C 
ATOM     26  C   UNL     1      43.227  54.776 148.905  0.00  0.00    +0.017 C 
ATOM     27  C   UNL     1      42.379  55.359 151.191  0.00  0.00    +0.017 C 
ENDBRANCH  23  24
ENDBRANCH  11  13
BRANCH   8   7
ATOM      7  C   UNL     1      40.500  59.763 143.826  0.00  0.00    +0.107 C 
BRANCH   7   6
ATOM      6  C   UNL     1      39.863  59.894 142.447  0.00  0.00    +0.037 C 
BRANCH   6   5
ATOM      5  C   UNL     1      41.004  60.168 141.451  0.00  0.00    +0.109 C 
BRANCH   5   3
ATOM      1  O   UNL     1      42.873  60.088 139.348  0.00  0.00    -0.227 OA
ATOM      2  C   UNL     1      41.704  59.863 139.064  0.00  0.00    +0.401 C 
ATOM      3  N   UNL     1      40.721  59.884 140.038  0.00  0.00    -0.281 N 
ATOM      4  H   UNL     1      39.710  59.685 139.749  0.00  0.00    +0.152 HD
BRANCH   2  30
ATOM     30  O   UNL     1      41.328  59.606 137.773  0.00  0.00    -0.445 OA
BRANCH  30  31
ATOM     31  C   UNL     1      41.955  58.666 136.897  0.00  0.00    +0.107 C 
ATOM     32  C   UNL     1      43.046  57.832 137.578  0.00  0.00    +0.055 C 
ATOM     33  C   UNL     1      40.897  57.693 136.381  0.00  0.00    +0.055 C 
ATOM     34  C   UNL     1      42.554  59.455 135.739  0.00  0.00    +0.055 C 
ENDBRANCH  30  31
ENDBRANCH   2  30
ENDBRANCH   5   3
ENDBRANCH   6   5
ENDBRANCH   7   6
ENDBRANCH   8   7
TORSDOF 9
