REMARK  Name = 4B9D
REMARK  4 active torsions:
REMARK  status: ('A' for Active; 'I' for Inactive)
REMARK    1  A    between atoms: C_4  and  C_5
REMARK    2  A    between atoms: C_7  and  C_8
REMARK    3  A    between atoms: N_14  and  C_15
REMARK    4  A    between atoms: C_18  and  N_19
REMARK                            x       y       z     vdW  Elec       q    Type
REMARK                         _______ _______ _______ _____ _____    ______ ____
ROOT
ATOM      7  C   UNL     1       9.045   9.367 -26.998  0.00  0.00    +0.084 A 
ATOM      8  C   UNL     1       9.299   8.719 -25.781  0.00  0.00    +0.049 A 
ATOM      9  C   UNL     1       8.298   8.660 -24.850  0.00  0.00    +0.116 A 
ATOM     10  N   UNL     1       7.066   9.246 -25.145  0.00  0.00    -0.223 NA
ATOM     11  C   UNL     1       6.819   9.865 -26.291  0.00  0.00    +0.220 A 
ATOM     12  N   UNL     1       5.551  10.391 -26.443  0.00  0.00    -0.283 N 
ATOM     13  H   UNL     1       4.847  10.201 -25.659  0.00  0.00    +0.155 HD
ATOM     23  N   UNL     1       7.804   9.906 -27.206  0.00  0.00    -0.214 NA
ENDROOT
BRANCH   7   6
ATOM      1  N   UNL     1      11.288  10.228 -31.464  0.00  0.00    -0.338 N 
ATOM      2  H   UNL     1      10.514  10.576 -32.115  0.00  0.00    +0.144 HD
ATOM      3  H   UNL     1      12.289  10.127 -31.829  0.00  0.00    +0.144 HD
ATOM      4  C   UNL     1      11.008   9.922 -30.208  0.00  0.00    +0.156 A 
ATOM      5  S   UNL     1       9.478  10.068 -29.569  0.00  0.00    -0.051 S 
ATOM      6  C   UNL     1       9.949   9.477 -28.008  0.00  0.00    +0.062 A 
ATOM     24  C   UNL     1      11.290   9.236 -28.075  0.00  0.00    +0.057 A 
ATOM     25  C   UNL     1      12.171   8.727 -26.955  0.00  0.00    +0.067 C 
ATOM     26  N   UNL     1      11.870   9.475 -29.279  0.00  0.00    -0.230 NA
ENDBRANCH   7   6
BRANCH  12  14
ATOM     14  C   UNL     1       5.114  11.134 -27.508  0.00  0.00    +0.036 A 
ATOM     15  C   UNL     1       5.933  11.786 -28.424  0.00  0.00    +0.056 A 
ATOM     16  C   UNL     1       5.396  12.541 -29.481  0.00  0.00    +0.128 A 
ATOM     17  C   UNL     1       4.007  12.677 -29.647  0.00  0.00    +0.033 A 
ATOM     18  C   UNL     1       3.161  12.036 -28.754  0.00  0.00    +0.004 A 
ATOM     22  C   UNL     1       3.721  11.286 -27.705  0.00  0.00    +0.023 A 
BRANCH  16  19
ATOM     19  N   UNL     1       6.244  13.148 -30.320  0.00  0.00    +0.057 N 
ATOM     20  O   UNL     1       5.680  13.906 -31.594  0.00  0.00    -0.126 OA
ATOM     21  O   UNL     1       7.717  13.104 -30.013  0.00  0.00    -0.126 OA
ENDBRANCH  16  19
ENDBRANCH  12  14
TORSDOF 3
