REMARK  Name = 3cpb_ligand
REMARK  8 active torsions:
REMARK  status: ('A' for Active; 'I' for Inactive)
REMARK    1  A    between atoms: C12_5  and  C13_6
REMARK    2  A    between atoms: C13_6  and  C11_7
REMARK    3  A    between atoms: C11_7  and  N10_8
REMARK    4  A    between atoms: C8_9  and  C4_11
REMARK    5  A    between atoms: C7_15  and  C14_16
REMARK    6  A    between atoms: C2_17  and  C1_18
REMARK    7  A    between atoms: N16_20  and  C17_21
REMARK    8  A    between atoms: C20_24  and  N27_25
REMARK                            x       y       z     vdW  Elec       q    Type
REMARK                         _______ _______ _______ _____ _____    ______ ____
ROOT
ATOM      8  C   UNL     1      16.521  34.479  31.658  0.00  0.00    +0.048 A 
ATOM      9  C   UNL     1      17.858  34.263  31.999  0.00  0.00    +0.024 A 
ATOM     10  C   UNL     1      18.370  32.963  32.006  0.00  0.00    +0.009 A 
ATOM     11  C   UNL     1      17.556  31.875  31.680  0.00  0.00    -0.021 A 
ATOM     12  C   UNL     1      16.216  32.094  31.349  0.00  0.00    +0.063 A 
ATOM     26  C   UNL     1      18.153  30.463  31.700  0.00  0.00    +0.099 C 
ATOM     27  C   UNL     1      15.717  33.389  31.329  0.00  0.00    +0.043 A 
ENDROOT
BRANCH   8   7
ATOM      5  N   UNL     1      16.700  36.916  31.447  0.00  0.00    -0.287 N 
ATOM      6  H   UNL     1      17.682  36.746  31.359  0.00  0.00    +0.184 HD
ATOM      7  C   UNL     1      15.881  35.879  31.619  0.00  0.00    +0.201 C 
ATOM     28  O   UNL     1      14.664  35.997  31.731  0.00  0.00    -0.388 OA
BRANCH   5   4
ATOM      4  C   UNL     1      16.211  38.304  31.382  0.00  0.00    +0.134 C 
BRANCH   4   3
ATOM      3  C   UNL     1      15.880  38.824  32.778  0.00  0.00    +0.027 C 
BRANCH   3   2
ATOM      1  C   UNL     1      15.343  41.185  33.345  0.00  0.00    +0.004 C 
ATOM      2  C   UNL     1      14.821  39.918  32.667  0.00  0.00    -0.009 C 
ATOM     29  C   UNL     1      13.552  39.505  33.437  0.00  0.00    +0.004 C 
ATOM     30  C   UNL     1      13.489  40.445  34.637  0.00  0.00    +0.000 C 
ATOM     31  C   UNL     1      14.125  41.717  34.090  0.00  0.00    +0.000 C 
ENDBRANCH   3   2
ENDBRANCH   4   3
ENDBRANCH   5   4
ENDBRANCH   8   7
BRANCH  12  13
ATOM     13  C   UNL     1      15.259  30.974  30.949  0.00  0.00    +0.227 C 
ATOM     14  N   UNL     1      14.763  30.218  31.933  0.00  0.00    -0.235 N 
ATOM     15  H   UNL     1      15.041  30.417  32.873  0.00  0.00    +0.223 HD
ATOM     25  O   UNL     1      14.992  30.829  29.759  0.00  0.00    -0.378 OA
BRANCH  14  16
ATOM     16  C   UNL     1      13.906  29.200  31.720  0.00  0.00    +0.080 A 
ATOM     17  C   UNL     1      13.394  28.498  32.814  0.00  0.00    +0.082 A 
ATOM     18  N   UNL     1      12.547  27.491  32.647  0.00  0.00    -0.301 NA
ATOM     19  C   UNL     1      12.145  27.109  31.422  0.00  0.00    +0.094 A 
ATOM     23  C   UNL     1      12.609  27.766  30.285  0.00  0.00    +0.029 A 
ATOM     24  C   UNL     1      13.499  28.821  30.437  0.00  0.00    +0.028 A 
BRANCH  19  20
ATOM     20  N   UNL     1      11.297  26.093  31.294  0.00  0.00    -0.330 N 
ATOM     21  H   UNL     1      10.987  25.796  30.358  0.00  0.00    +0.172 HD
ATOM     22  H   UNL     1      10.950  25.603  32.131  0.00  0.00    +0.172 HD
ENDBRANCH  19  20
ENDBRANCH  14  16
ENDBRANCH  12  13
TORSDOF 7
