REMARK  Name = 3nnv_ligand
REMARK  9 active torsions:
REMARK  status: ('A' for Active; 'I' for Inactive)
REMARK    1  A    between atoms: C6_6  and  N7_7
REMARK    2  A    between atoms: N10_10  and  C11_11
REMARK    3  A    between atoms: C13_13  and  C14_14
REMARK    4  A    between atoms: C14_14  and  C15_15
REMARK    5  A    between atoms: C14_14  and  C16_16
REMARK    6  A    between atoms: C14_14  and  C17_17
REMARK    7  A    between atoms: N19_19  and  C20_20
REMARK    8  A    between atoms: C24_24  and  C25_25
REMARK    9  A    between atoms: C25_25  and  O27_27
REMARK                            x       y       z     vdW  Elec       q    Type
REMARK                         _______ _______ _______ _____ _____    ______ ____
ROOT
ATOM     14  C   UNL     1      15.571  15.043  25.287  0.00  0.00    +0.219 A 
ATOM     15  N   UNL     1      15.164  16.284  24.910  0.00  0.00    -0.107 N 
ATOM     25  N   UNL     1      15.225  16.469  23.539  0.00  0.00    -0.167 NA
ATOM     26  C   UNL     1      15.686  15.281  23.105  0.00  0.00    -0.004 A 
ATOM     31  C   UNL     1      15.903  14.343  24.123  0.00  0.00    +0.003 A 
ENDROOT
BRANCH  14  12
ATOM      9  N   UNL     1      16.265  13.483  28.436  0.00  0.00    -0.208 N 
ATOM     10  H   UNL     1      15.527  13.958  28.915  0.00  0.00    +0.232 HD
ATOM     11  C   UNL     1      16.396  13.760  27.135  0.00  0.00    +0.328 C 
ATOM     12  N   UNL     1      15.563  14.688  26.614  0.00  0.00    -0.179 N 
ATOM     13  H   UNL     1      14.910  15.137  27.223  0.00  0.00    +0.234 HD
ATOM     32  O   UNL     1      17.236  13.186  26.438  0.00  0.00    -0.377 OA
BRANCH   9   8
ATOM      1  C   UNL     1      18.722  10.989  30.809  0.00  0.00    -0.031 A 
ATOM      2  C   UNL     1      17.347  10.776  30.795  0.00  0.00    -0.032 A 
ATOM      3  C   UNL     1      16.834   9.753  31.594  0.00  0.00    -0.002 A 
ATOM      4  C   UNL     1      15.471   9.486  31.606  0.00  0.00    -0.005 A 
ATOM      5  C   UNL     1      14.624  10.263  30.820  0.00  0.00    -0.007 A 
ATOM      6  C   UNL     1      15.130  11.317  30.040  0.00  0.00    +0.008 A 
ATOM      7  C   UNL     1      16.499  11.579  30.007  0.00  0.00    +0.011 A 
ATOM      8  C   UNL     1      17.033  12.612  29.205  0.00  0.00    +0.082 A 
ATOM     33  C   UNL     1      18.436  12.796  29.225  0.00  0.00    +0.001 A 
ATOM     34  C   UNL     1      19.277  12.004  30.019  0.00  0.00    -0.025 A 
ENDBRANCH   9   8
ENDBRANCH  14  12
BRANCH  15  16
ATOM     16  C   UNL     1      14.756  17.336  25.654  0.00  0.00    +0.123 A 
ATOM     17  C   UNL     1      13.679  18.128  25.205  0.00  0.00    +0.033 A 
ATOM     18  C   UNL     1      13.191  19.245  25.886  0.00  0.00    -0.003 A 
ATOM     19  C   UNL     1      13.792  19.627  27.067  0.00  0.00    -0.021 A 
ATOM     20  C   UNL     1      14.875  18.874  27.563  0.00  0.00    -0.003 A 
ATOM     24  C   UNL     1      15.330  17.759  26.855  0.00  0.00    +0.033 A 
BRANCH  19  21
ATOM     21  C   UNL     1      13.253  20.832  27.816  0.00  0.00    +0.220 C 
BRANCH  21  22
ATOM     22  O   UNL     1      12.846  21.859  26.900  0.00  0.00    -0.383 OA
ATOM     23  H   UNL     1      12.512  22.603  27.388  0.00  0.00    +0.212 HD
ENDBRANCH  21  22
ENDBRANCH  19  21
ENDBRANCH  15  16
BRANCH  26  27
ATOM     27  C   UNL     1      15.878  14.988  21.630  0.00  0.00    -0.046 C 
ATOM     28  C   UNL     1      14.696  14.105  21.250  0.00  0.00    -0.047 C 
ATOM     29  C   UNL     1      15.845  16.242  20.737  0.00  0.00    -0.047 C 
ATOM     30  C   UNL     1      17.191  14.229  21.351  0.00  0.00    -0.047 C 
ENDBRANCH  26  27
TORSDOF 6
