REMARK  Name = 2br1_ligand
REMARK  10 active torsions:
REMARK  status: ('A' for Active; 'I' for Inactive)
REMARK    1  A    between atoms: CAB_1  and  OAS_2
REMARK    2  A    between atoms: OAS_2  and  CAV_3
REMARK    3  A    between atoms: CAX_8  and  CBA_9
REMARK    4  A    between atoms: CAY_11  and  NAQ_12
REMARK    5  A    between atoms: NAQ_12  and  CAN_13
REMARK    6  A    between atoms: CAN_13  and  CAM_14
REMARK    7  A    between atoms: CAM_14  and  OAC_15
REMARK    8  A    between atoms: CAZ_21  and  CAW_22
REMARK    9  A    between atoms: CAU_25  and  OAR_26
REMARK   10  A    between atoms: OAR_26  and  CAA_27
REMARK                            x       y       z     vdW  Elec       q    Type
REMARK                         _______ _______ _______ _____ _____    ______ ____
ROOT
ATOM      7  C   UNL     1      17.331  -2.495  10.054  0.00  0.00    +0.011 A 
ATOM      8  C   UNL     1      18.267  -1.818   9.274  0.00  0.00    +0.133 A 
ATOM     17  O   UNL     1      17.714  -0.739   8.838  0.00  0.00    -0.233 OA
ATOM     18  C   UNL     1      16.479  -0.701   9.189  0.00  0.00    +0.198 A 
ATOM     19  N   UNL     1      15.523   0.207   8.964  0.00  0.00    -0.264 NA
ATOM     20  C   UNL     1      14.279   0.038   9.470  0.00  0.00    +0.153 A 
ATOM     21  N   UNL     1      13.985  -1.033  10.209  0.00  0.00    -0.270 NA
ATOM     22  C   UNL     1      14.922  -1.956  10.467  0.00  0.00    +0.124 A 
ATOM     29  C   UNL     1      16.197  -1.806   9.929  0.00  0.00    +0.071 A 
ENDROOT
BRANCH   7   6
ATOM      3  C   UNL     1      17.608  -6.409  11.928  0.00  0.00    +0.088 A 
ATOM      4  C   UNL     1      16.745  -6.196  10.844  0.00  0.00    +0.017 A 
ATOM      5  C   UNL     1      16.677  -4.925  10.220  0.00  0.00    -0.013 A 
ATOM      6  C   UNL     1      17.481  -3.855  10.678  0.00  0.00    -0.043 A 
ATOM     30  C   UNL     1      18.321  -4.044  11.795  0.00  0.00    -0.013 A 
ATOM     31  C   UNL     1      18.394  -5.338  12.425  0.00  0.00    +0.017 A 
BRANCH   3   2
ATOM      1  C   UNL     1      18.962  -8.007  12.918  0.00  0.00    +0.232 C 
ATOM      2  O   UNL     1      17.631  -7.667  12.568  0.00  0.00    -0.323 OA
ENDBRANCH   3   2
ENDBRANCH   7   6
BRANCH   8   9
ATOM      9  C   UNL     1      19.582  -2.157   9.070  0.00  0.00    +0.008 A 
ATOM     10  C   UNL     1      20.029  -3.440   9.321  0.00  0.00    +0.001 A 
ATOM     11  C   UNL     1      21.361  -3.767   9.080  0.00  0.00    +0.024 A 
ATOM     12  C   UNL     1      22.232  -2.804   8.544  0.00  0.00    +0.093 A 
ATOM     15  C   UNL     1      21.770  -1.537   8.265  0.00  0.00    +0.024 A 
ATOM     16  C   UNL     1      20.451  -1.211   8.510  0.00  0.00    +0.001 A 
BRANCH  12  13
ATOM     13  O   UNL     1      23.529  -3.118   8.300  0.00  0.00    -0.320 OA
ATOM     14  C   UNL     1      24.529  -2.049   8.177  0.00  0.00    +0.234 C 
ENDBRANCH  12  13
ENDBRANCH   8   9
BRANCH  22  23
ATOM     23  N   UNL     1      14.619  -3.008  11.212  0.00  0.00    -0.299 N 
ATOM     24  H   UNL     1      15.360  -3.653  11.521  0.00  0.00    +0.186 HD
BRANCH  23  25
ATOM     25  C   UNL     1      13.203  -3.255  11.601  0.00  0.00    +0.163 C 
BRANCH  25  26
ATOM     26  C   UNL     1      12.524  -2.381  12.731  0.00  0.00    +0.180 C 
BRANCH  26  27
ATOM     27  O   UNL     1      12.104  -0.984  12.445  0.00  0.00    -0.393 OA
ATOM     28  H   UNL     1      12.862  -0.473  12.186  0.00  0.00    +0.209 HD
ENDBRANCH  26  27
ENDBRANCH  25  26
ENDBRANCH  23  25
ENDBRANCH  22  23
TORSDOF 8
