REMARK  Name = 4mpc_ligand
REMARK  4 active torsions:
REMARK  status: ('A' for Active; 'I' for Inactive)
REMARK    1  A    between atoms: O2_1  and  C5_5
REMARK    2  A    between atoms: C2_2  and  S_14
REMARK    3  A    between atoms: C3_7  and  O1_15
REMARK    4  A    between atoms: S_14  and  N_16
REMARK                            x       y       z     vdW  Elec       q    Type
REMARK                         _______ _______ _______ _____ _____    ______ ____
ROOT
ATOM      7  S   UNL     1      12.894   0.930 -36.635  0.00  0.00    +0.122 S 
ATOM     17  O   UNL     1      13.250   0.489 -35.309  0.00  0.00    -0.131 OA
ATOM     18  O   UNL     1      12.223  -0.131 -37.307  0.00  0.00    -0.131 OA
ENDROOT
BRANCH   7   8
ATOM      8  N   UNL     1      14.253   1.124 -37.554  0.00  0.00    -0.173 N 
ATOM      9  C   UNL     1      14.986   0.020 -38.064  0.00  0.00    +0.082 A 
ATOM     10  C   UNL     1      16.366   0.539 -38.255  0.00  0.00    -0.032 A 
ATOM     11  C   UNL     1      16.441   1.806 -37.697  0.00  0.00    -0.032 A 
ATOM     12  C   UNL     1      17.629   2.518 -37.749  0.00  0.00    -0.001 A 
ATOM     13  C   UNL     1      18.704   1.889 -38.405  0.00  0.00    -0.000 A 
ATOM     14  C   UNL     1      18.627   0.619 -38.969  0.00  0.00    -0.000 A 
ATOM     15  C   UNL     1      17.460  -0.090 -38.916  0.00  0.00    -0.001 A 
ATOM     16  C   UNL     1      15.124   2.156 -37.093  0.00  0.00    +0.082 A 
ENDBRANCH   7   8
BRANCH   7   6
ATOM      3  C   UNL     1      10.682   4.860 -36.387  0.00  0.00    +0.079 A 
ATOM      4  C   UNL     1      11.199   4.279 -35.222  0.00  0.00    +0.003 A 
ATOM      5  C   UNL     1      11.874   3.071 -35.294  0.00  0.00    +0.008 A 
ATOM      6  C   UNL     1      12.040   2.443 -36.546  0.00  0.00    +0.148 A 
ATOM     19  C   UNL     1      11.523   3.030 -37.683  0.00  0.00    +0.108 A 
ATOM     22  C   UNL     1      10.827   4.254 -37.615  0.00  0.00    +0.042 A 
BRANCH   3   1
ATOM      1  O   UNL     1      10.018   6.055 -36.315  0.00  0.00    -0.336 OA
ATOM      2  H   UNL     1       9.130   5.942 -36.634  0.00  0.00    +0.248 HD
ENDBRANCH   3   1
BRANCH  19  20
ATOM     20  O   UNL     1      11.664   2.401 -38.938  0.00  0.00    -0.334 OA
ATOM     21  H   UNL     1      12.151   1.592 -38.833  0.00  0.00    +0.248 HD
ENDBRANCH  19  20
ENDBRANCH   7   6
TORSDOF 4
