REMARK  Name = 5BVW
REMARK  8 active torsions:
REMARK  status: ('A' for Active; 'I' for Inactive)
REMARK    1  A    between atoms: C_2  and  C_3
REMARK    2  A    between atoms: N_4  and  C_16
REMARK    3  A    between atoms: C_7  and  C_8
REMARK    4  A    between atoms: C_9  and  N_18
REMARK    5  A    between atoms: C_12  and  C_13
REMARK    6  A    between atoms: C_16  and  C_17
REMARK    7  A    between atoms: C_17  and  O_33
REMARK    8  A    between atoms: N_22  and  C_23
REMARK                            x       y       z     vdW  Elec       q    Type
REMARK                         _______ _______ _______ _____ _____    ______ ____
ROOT
ATOM      1  C   UNL     1      19.196  38.868  35.332  0.00  0.00    +0.105 A 
ATOM      2  N   UNL     1      17.910  39.278  35.076  0.00  0.00    -0.339 N 
ATOM      3  H   UNL     1      17.619  39.883  34.243  0.00  0.00    +0.167 HD
ATOM      4  C   UNL     1      17.092  38.829  35.986  0.00  0.00    +0.173 A 
ATOM      5  S   UNL     1      17.831  37.869  37.223  0.00  0.00    -0.045 S 
ATOM      6  N   UNL     1      15.761  39.100  35.967  0.00  0.00    -0.204 NA
ATOM     24  C   UNL     1      19.336  38.113  36.443  0.00  0.00    +0.093 A 
ENDROOT
BRANCH   6   7
ATOM      7  C   UNL     1      14.780  38.712  36.871  0.00  0.00    +0.161 A 
ATOM      8  N   UNL     1      15.103  37.764  37.770  0.00  0.00    -0.213 NA
ATOM      9  C   UNL     1      14.182  37.361  38.640  0.00  0.00    +0.130 A 
ATOM     10  N   UNL     1      12.931  37.825  38.688  0.00  0.00    -0.218 NA
ATOM     11  C   UNL     1      12.589  38.781  37.802  0.00  0.00    +0.127 A 
ATOM     12  N   UNL     1      11.271  39.260  37.877  0.00  0.00    -0.313 N 
ATOM     13  C   UNL     1      10.718  39.808  36.626  0.00  0.00    +0.122 C 
ATOM     14  C   UNL     1       9.262  40.223  36.746  0.00  0.00    +0.103 C 
ATOM     15  N   UNL     1       8.483  39.130  37.322  0.00  0.00    -0.297 NA
ATOM     16  C   UNL     1       8.933  38.944  38.699  0.00  0.00    +0.103 C 
ATOM     21  C   UNL     1      10.367  38.446  38.710  0.00  0.00    +0.122 C 
ATOM     22  C   UNL     1      14.581  36.313  39.625  0.00  0.00    +0.088 C 
ATOM     23  C   UNL     1      13.491  39.264  36.840  0.00  0.00    +0.091 A 
BRANCH  15  17
ATOM     17  C   UNL     1       7.040  39.377  37.246  0.00  0.00    +0.112 C 
BRANCH  17  18
ATOM     18  C   UNL     1       6.219  38.142  37.543  0.00  0.00    +0.171 C 
BRANCH  18  19
ATOM     19  O   UNL     1       4.850  38.488  37.692  0.00  0.00    -0.394 OA
ATOM     20  H   UNL     1       4.745  39.169  38.484  0.00  0.00    +0.209 HD
ENDBRANCH  18  19
ENDBRANCH  17  18
ENDBRANCH  15  17
ENDBRANCH   6   7
BRANCH  24  25
ATOM     25  C   UNL     1      20.526  37.482  37.047  0.00  0.00    +0.256 C 
ATOM     26  O   UNL     1      20.415  36.653  37.945  0.00  0.00    -0.269 OA
ATOM     27  N   UNL     1      21.733  37.862  36.565  0.00  0.00    -0.280 N 
ATOM     28  H   UNL     1      21.739  38.631  35.821  0.00  0.00    +0.155 HD
BRANCH  27  29
ATOM     29  C   UNL     1      23.001  37.329  36.959  0.00  0.00    +0.055 A 
ATOM     30  C   UNL     1      23.310  36.002  36.683  0.00  0.00    +0.062 A 
ATOM     31 CL   UNL     1      22.170  35.002  35.843  0.00  0.00    -0.082 Cl
ATOM     32  C   UNL     1      24.533  35.468  37.040  0.00  0.00    +0.022 A 
ATOM     33  C   UNL     1      25.453  36.264  37.695  0.00  0.00    +0.002 A 
ATOM     34  C   UNL     1      25.154  37.586  37.991  0.00  0.00    +0.005 A 
ATOM     35  C   UNL     1      23.916  38.130  37.646  0.00  0.00    -0.028 A 
ATOM     36  C   UNL     1      23.604  39.566  37.989  0.00  0.00    +0.045 C 
ENDBRANCH  27  29
ENDBRANCH  24  25
TORSDOF 6
