REMARK  Name = 2r0u_ligand
REMARK  6 active torsions:
REMARK  status: ('A' for Active; 'I' for Inactive)
REMARK    1  A    between atoms: C_1  and  C13_16
REMARK    2  A    between atoms: C6_7  and  C18_21
REMARK    3  A    between atoms: C10_11  and  C22_25
REMARK    4  A    between atoms: C18_21  and  C19_22
REMARK    5  A    between atoms: C19_22  and  C20_23
REMARK    6  A    between atoms: C20_23  and  N21_24
REMARK                            x       y       z     vdW  Elec       q    Type
REMARK                         _______ _______ _______ _____ _____    ______ ____
ROOT
ATOM      1  C   UNL     1      19.878  -2.087   9.405  0.00  0.00    -0.039 A 
ATOM      8  C   UNL     1      18.610  -1.397   9.363  0.00  0.00    -0.010 A 
ATOM      9  C   UNL     1      17.455  -1.964   9.992  0.00  0.00    -0.022 A 
ATOM     10  C   UNL     1      16.158  -1.331   9.940  0.00  0.00    +0.044 A 
ATOM     11  C   UNL     1      15.886  -0.049   9.216  0.00  0.00    +0.225 A 
ATOM     12  O   UNL     1      16.778   0.595   8.561  0.00  0.00    -0.397 OA
ATOM     13  N   UNL     1      14.631   0.508   9.279  0.00  0.00    -0.211 N 
ATOM     14  H   UNL     1      14.490   1.390   8.830  0.00  0.00    +0.261 HD
ATOM     15  C   UNL     1      13.494  -0.098   9.954  0.00  0.00    +0.213 A 
ATOM     16  C   UNL     1      13.689  -1.315  10.565  0.00  0.00    +0.013 A 
ATOM     24  C   UNL     1      14.989  -1.959  10.617  0.00  0.00    -0.028 A 
ATOM     25  C   UNL     1      15.196  -3.233  11.306  0.00  0.00    -0.010 A 
ATOM     26  C   UNL     1      16.446  -3.858  11.382  0.00  0.00    -0.034 A 
ATOM     34  C   UNL     1      17.586  -3.268  10.739  0.00  0.00    -0.016 A 
ATOM     35  C   UNL     1      18.859  -3.952  10.816  0.00  0.00    +0.003 A 
ATOM     36  C   UNL     1      19.987  -3.372  10.119  0.00  0.00    -0.007 A 
ENDROOT
BRANCH  16  17
ATOM     17  C   UNL     1      12.477  -1.966  11.232  0.00  0.00    -0.044 C 
ATOM     18  C   UNL     1      12.421  -2.298  12.630  0.00  0.00    -0.009 C 
ATOM     19  C   UNL     1      11.193  -2.928  13.123  0.00  0.00    +0.095 C 
ATOM     20  O   UNL     1      11.156  -3.189  14.291  0.00  0.00    -0.421 OA
ATOM     21  C   UNL     1      10.063  -3.310  12.342  0.00  0.00    +0.193 C 
ATOM     22  C   UNL     1      10.110  -3.005  10.931  0.00  0.00    +0.042 C 
ATOM     23  C   UNL     1      11.321  -2.375  10.375  0.00  0.00    -0.007 C 
ENDBRANCH  16  17
BRANCH   1   2
ATOM      2  C   UNL     1      21.074  -1.505   8.730  0.00  0.00    +0.002 A 
ATOM      3  C   UNL     1      21.088  -0.282   8.051  0.00  0.00    +0.074 A 
ATOM      4  N   UNL     1      22.353  -0.136   7.623  0.00  0.00    -0.215 NA
ATOM      5  N   UNL     1      23.120  -1.229   7.973  0.00  0.00    -0.216 N 
ATOM      6  H   UNL     1      24.115  -1.360   7.739  0.00  0.00    +0.260 HD
ATOM      7  C   UNL     1      22.346  -2.116   8.684  0.00  0.00    +0.167 A 
ENDBRANCH   1   2
BRANCH  26  27
ATOM     27  C   UNL     1      16.705  -5.199  12.110  0.00  0.00    +0.079 C 
BRANCH  27  28
ATOM     28  C   UNL     1      16.302  -5.192  13.542  0.00  0.00    +0.067 C 
BRANCH  28  29
ATOM     29  C   UNL     1      16.906  -4.180  14.410  0.00  0.00    +0.130 C 
BRANCH  29  30
ATOM     30  N   UNL     1      16.332  -4.433  15.753  0.00  0.00    +0.219 N 
ATOM     31  H   UNL     1      15.329  -4.338  15.713  0.00  0.00    +0.199 HD
ATOM     32  H   UNL     1      16.570  -5.367  16.049  0.00  0.00    +0.199 HD
ATOM     33  H   UNL     1      16.707  -3.766  16.410  0.00  0.00    +0.199 HD
ENDBRANCH  29  30
ENDBRANCH  28  29
ENDBRANCH  27  28
ENDBRANCH  26  27
TORSDOF 6
