REMARK  Name = 3AC8
REMARK  14 active torsions:
REMARK  status: ('A' for Active; 'I' for Inactive)
REMARK    1  A    between atoms: C_2  and  N_26
REMARK    2  A    between atoms: C_4  and  C_24
REMARK    3  A    between atoms: C_7  and  C_10
REMARK    4  A    between atoms: C_8  and  N_13
REMARK    5  A    between atoms: N_13  and  C_14
REMARK    6  A    between atoms: C_16  and  O_22
REMARK    7  A    between atoms: C_18  and  O_20
REMARK    8  A    between atoms: O_20  and  C_21
REMARK    9  A    between atoms: O_22  and  C_23
REMARK   10  A    between atoms: N_26  and  C_27
REMARK   11  A    between atoms: C_27  and  C_28
REMARK   12  A    between atoms: C_28  and  N_29
REMARK   13  A    between atoms: C_28  and  C_31
REMARK   14  A    between atoms: C_28  and  C_32
REMARK                            x       y       z     vdW  Elec       q    Type
REMARK                         _______ _______ _______ _____ _____    ______ ____
ROOT
ATOM      1  N   UNL     1      -3.077   1.726   7.789  0.00  0.00    -0.015 N 
ATOM      2  N   UNL     1      -4.480   1.535   7.924  0.00  0.00    -0.065 N 
ATOM      3  H   UNL     1      -5.278   2.145   7.555  0.00  0.00    +0.348 HD
ATOM      4  C   UNL     1      -4.551   0.384   8.639  0.00  0.00    +0.314 C 
ATOM     17  C   UNL     1      -3.211  -0.156   8.942  0.00  0.00    +0.180 C 
ATOM     23  C   UNL     1      -2.276   0.805   8.343  0.00  0.00    +0.342 C 
ATOM     24  N   UNL     1      -0.925   0.811   8.325  0.00  0.00    -0.227 NA
ATOM     25  C   UNL     1      -0.324   1.841   7.690  0.00  0.00    +0.052 C 
ATOM     29  C   UNL     1      -1.116   2.827   7.097  0.00  0.00    +0.119 C 
ATOM     30  C   UNL     1      -2.513   2.760   7.154  0.00  0.00    +0.301 C 
ENDROOT
BRANCH  17  18
ATOM     18  C   UNL     1      -2.807  -1.371   9.699  0.00  0.00    +0.252 C 
ATOM     19  N   UNL     1      -1.515  -1.681   9.826  0.00  0.00    -0.325 N 
ATOM     20  H   UNL     1      -1.226  -2.555  10.371  0.00  0.00    +0.145 HD
ATOM     21  H   UNL     1      -0.769  -1.055   9.383  0.00  0.00    +0.145 HD
ATOM     22  O   UNL     1      -3.694  -2.039  10.206  0.00  0.00    -0.270 OA
ENDBRANCH  17  18
BRANCH  25  26
ATOM     26  C   UNL     1       1.156   1.927   7.623  0.00  0.00    +0.038 C 
ATOM     27  C   UNL     1       1.796   0.695   8.259  0.00  0.00    +0.010 C 
ATOM     28  C   UNL     1       1.707   0.811   6.743  0.00  0.00    +0.010 C 
ENDBRANCH  25  26
BRANCH   4   5
ATOM      5  N   UNL     1      -5.667  -0.267   9.039  0.00  0.00    -0.202 N 
ATOM      6  H   UNL     1      -5.539  -1.262   9.412  0.00  0.00    +0.298 HD
BRANCH   5   7
ATOM      7  C   UNL     1      -6.928   0.218   9.013  0.00  0.00    +0.125 A 
ATOM      8  C   UNL     1      -7.883  -0.456   9.758  0.00  0.00    +0.094 A 
ATOM      9  C   UNL     1      -9.200  -0.026   9.775  0.00  0.00    +0.127 A 
ATOM     12  C   UNL     1      -9.566   1.095   9.033  0.00  0.00    +0.091 A 
ATOM     13  C   UNL     1      -8.609   1.780   8.285  0.00  0.00    +0.127 A 
ATOM     16  C   UNL     1      -7.288   1.340   8.269  0.00  0.00    +0.094 A 
BRANCH   9  10
ATOM     10  O   UNL     1     -10.116  -0.726  10.525  0.00  0.00    -0.495 OA
ATOM     11  C   UNL     1     -11.368  -0.142  10.884  0.00  0.00    +0.277 C 
ENDBRANCH   9  10
BRANCH  13  14
ATOM     14  O   UNL     1      -8.970   2.883   7.557  0.00  0.00    -0.495 OA
ATOM     15  C   UNL     1      -8.005   3.891   7.264  0.00  0.00    +0.277 C 
ENDBRANCH  13  14
ENDBRANCH   5   7
ENDBRANCH   4   5
BRANCH  30  31
ATOM     31  N   UNL     1      -3.274   3.721   6.584  0.00  0.00    -0.234 N 
ATOM     32  H   UNL     1      -4.255   3.479   6.232  0.00  0.00    +0.291 HD
BRANCH  31  33
ATOM     33  C   UNL     1      -2.776   5.079   6.443  0.00  0.00    +0.244 C 
BRANCH  33  34
ATOM     34  C   UNL     1      -2.942   5.912   7.722  0.00  0.00    +0.047 C 
ATOM     35  C   UNL     1      -4.395   5.948   8.186  0.00  0.00    +0.031 C 
ATOM     36  C   UNL     1      -2.057   5.391   8.851  0.00  0.00    +0.031 C 
BRANCH  34  37
ATOM     37  N   UNL     1      -2.540   7.287   7.418  0.00  0.00    -0.322 NA
ATOM     38  H   UNL     1      -1.519   7.298   7.099  0.00  0.00    +0.119 HD
ATOM     39  H   UNL     1      -3.161   7.677   6.639  0.00  0.00    +0.119 HD
ENDBRANCH  34  37
ENDBRANCH  33  34
ENDBRANCH  31  33
ENDBRANCH  30  31
TORSDOF 10
