REMARK  Name = GP5
REMARK  16 active torsions:
REMARK  status: ('A' for Active; 'I' for Inactive)
REMARK    1  A    between atoms: N9_11  and  C1'_12
REMARK    2  A    between atoms: C4'_18  and  C5'_19
REMARK    3  A    between atoms: C5'_19  and  O5'_20
REMARK    4  A    between atoms: O5'_20  and  PCC_21
REMARK    5  A    between atoms: PCC_21  and  OBG_24
REMARK    6  A    between atoms: OBG_24  and  PCE_25
REMARK    7  A    between atoms: PCE_25  and  OBI_28
REMARK    8  A    between atoms: OBI_28  and  PCG_29
REMARK    9  A    between atoms: PCG_29  and  OBJ_32
REMARK   10  A    between atoms: OBJ_32  and  PCF_33
REMARK   11  A    between atoms: PCF_33  and  OBH_36
REMARK   12  A    between atoms: OBH_36  and  PCD_37
REMARK   13  A    between atoms: PCD_37  and  OBD_40
REMARK   14  A    between atoms: OBD_40  and  CAV_41
REMARK   15  A    between atoms: CAV_41  and  CBZ_42
REMARK   16  A    between atoms: CXB_48  and  NBY_49
REMARK                            x       y       z     vdW  Elec       q    Type
REMARK                         _______ _______ _______ _____ _____    ______ ____
ROOT
ATOM     16  P   UNL     1      -2.983   6.561  44.242  0.00  0.00    +0.224 P 
ATOM     17  O   UNL     1      -3.265   5.438  45.134  0.00  0.00    -0.437 OA
ATOM     18  O   UNL     1      -3.589   7.915  44.743  0.00  0.00    -0.517 OA
ENDROOT
BRANCH  16  15
ATOM     15  O   UNL     1      -3.778   6.549  42.851  0.00  0.00    -0.270 OA
BRANCH  15  14
ATOM     14  P   UNL     1      -3.803   5.492  41.664  0.00  0.00    +0.224 P 
ATOM     47  O   UNL     1      -2.664   4.387  41.637  0.00  0.00    -0.437 OA
ATOM     48  O   UNL     1      -3.821   6.243  40.371  0.00  0.00    -0.517 OA
BRANCH  14  13
ATOM     13  O   UNL     1      -5.183   4.687  42.044  0.00  0.00    -0.270 OA
BRANCH  13  12
ATOM     12  P   UNL     1      -6.275   4.158  41.044  0.00  0.00    +0.219 P 
ATOM     49  O   UNL     1      -7.122   3.093  41.629  0.00  0.00    -0.437 OA
ATOM     50  O   UNL     1      -7.104   5.328  40.415  0.00  0.00    -0.517 OA
BRANCH  12  11
ATOM     11  O   UNL     1      -5.478   3.595  39.766  0.00  0.00    -0.311 OA
BRANCH  11  10
ATOM     10  C   UNL     1      -4.650   2.368  39.641  0.00  0.00    +0.181 C 
BRANCH  10   9
ATOM      7  C   UNL     1      -6.397   2.305  36.895  0.00  0.00    +0.241 C 
ATOM      8  O   UNL     1      -5.904   1.337  37.922  0.00  0.00    -0.331 OA
ATOM      9  C   UNL     1      -4.792   2.207  38.109  0.00  0.00    +0.180 C 
ATOM     51  C   UNL     1      -4.142   1.747  36.805  0.00  0.00    +0.216 C 
ATOM     52  O   UNL     1      -2.925   2.363  36.518  0.00  0.00    -0.218 OA
ATOM     53  C   UNL     1      -5.294   2.265  35.869  0.00  0.00    +0.234 C 
ATOM     54  O   UNL     1      -5.111   3.648  35.538  0.00  0.00    -0.216 OA
BRANCH   7   6
ATOM      1  O   UNL     1     -12.068   1.136  37.587  0.00  0.00    -0.263 OA
ATOM      2  C   UNL     1     -10.968   0.751  37.169  0.00  0.00    +0.302 C 
ATOM      3  C   UNL     1      -9.854   1.578  37.254  0.00  0.00    +0.175 C 
ATOM      4  N   UNL     1      -9.719   2.815  37.744  0.00  0.00    -0.217 NA
ATOM      5  C   UNL     1      -8.452   3.155  37.615  0.00  0.00    +0.182 C 
ATOM      6  N   UNL     1      -7.795   2.157  37.015  0.00  0.00    -0.269 NA
ATOM     55  C   UNL     1      -8.601   1.124  36.808  0.00  0.00    +0.172 C 
ATOM     56  N   UNL     1      -8.459  -0.099  36.235  0.00  0.00    -0.192 NA
ATOM     57  C   UNL     1      -9.530  -0.923  36.139  0.00  0.00    +0.261 C 
ATOM     58  N   UNL     1      -9.422  -2.130  35.597  0.00  0.00    -0.086 NA
ATOM     59  N   UNL     1     -10.805  -0.508  36.594  0.00  0.00    -0.171 NA
ENDBRANCH   7   6
ENDBRANCH  10   9
ENDBRANCH  11  10
ENDBRANCH  12  11
ENDBRANCH  13  12
ENDBRANCH  14  13
ENDBRANCH  15  14
ENDBRANCH  16  15
BRANCH  16  19
ATOM     19  O   UNL     1      -1.427   6.617  43.939  0.00  0.00    -0.270 OA
BRANCH  19  20
ATOM     20  P   UNL     1      -0.442   7.807  43.420  0.00  0.00    +0.224 P 
ATOM     45  O   UNL     1       0.720   7.128  42.796  0.00  0.00    -0.437 OA
ATOM     46  O   UNL     1      -1.179   8.814  42.465  0.00  0.00    -0.517 OA
BRANCH  20  21
ATOM     21  O   UNL     1       0.002   8.493  44.765  0.00  0.00    -0.270 OA
BRANCH  21  22
ATOM     22  P   UNL     1      -0.015  10.035  45.215  0.00  0.00    +0.219 P 
ATOM     43  O   UNL     1      -1.377  10.611  45.296  0.00  0.00    -0.437 OA
ATOM     44  O   UNL     1       0.962  10.865  44.295  0.00  0.00    -0.517 OA
BRANCH  22  23
ATOM     23  O   UNL     1       0.709   9.843  46.639  0.00  0.00    -0.311 OA
BRANCH  23  24
ATOM     24  C   UNL     1       0.008   9.137  47.681  0.00  0.00    +0.181 C 
BRANCH  24  25
ATOM     25  C   UNL     1       0.199   9.853  49.013  0.00  0.00    +0.180 C 
ATOM     26  O   UNL     1       1.593   9.928  49.259  0.00  0.00    -0.331 OA
ATOM     27  C   UNL     1       1.967  11.298  49.507  0.00  0.00    +0.241 C 
ATOM     39  C   UNL     1       0.967  12.130  48.746  0.00  0.00    +0.234 C 
ATOM     40  O   UNL     1       0.835  13.375  49.425  0.00  0.00    -0.216 OA
ATOM     41  C   UNL     1      -0.302  11.287  48.860  0.00  0.00    +0.216 C 
ATOM     42  O   UNL     1      -1.071  11.597  50.032  0.00  0.00    -0.218 OA
BRANCH  27  28
ATOM     28  N   UNL     1       3.397  11.430  49.059  0.00  0.00    -0.269 NA
ATOM     29  C   UNL     1       4.400  11.528  49.924  0.00  0.00    +0.172 C 
ATOM     30  N   UNL     1       4.383  11.563  51.262  0.00  0.00    -0.192 NA
ATOM     31  C   UNL     1       5.504  11.679  51.978  0.00  0.00    +0.261 C 
ATOM     32  N   UNL     1       5.436  11.705  53.315  0.00  0.00    -0.086 NA
ATOM     33  N   UNL     1       6.731  11.759  51.317  0.00  0.00    -0.171 NA
ATOM     34  C   UNL     1       6.782  11.725  49.920  0.00  0.00    +0.302 C 
ATOM     35  O   UNL     1       7.881  11.803  49.372  0.00  0.00    -0.263 OA
ATOM     36  C   UNL     1       5.585  11.614  49.205  0.00  0.00    +0.175 C 
ATOM     37  N   UNL     1       5.250  11.550  47.910  0.00  0.00    -0.217 NA
ATOM     38  C   UNL     1       3.916  11.431  47.817  0.00  0.00    +0.182 C 
ENDBRANCH  27  28
ENDBRANCH  24  25
ENDBRANCH  23  24
ENDBRANCH  22  23
ENDBRANCH  21  22
ENDBRANCH  20  21
ENDBRANCH  19  20
ENDBRANCH  16  19
TORSDOF 16
