REMARK  Name = 6Q4G
REMARK  3 active torsions:
REMARK  status: ('A' for Active; 'I' for Inactive)
REMARK    1  A    between atoms: C7_5  and  C8_6
REMARK    2  A    between atoms: C8_6  and  C9_7
REMARK    3  A    between atoms: C3_13  and  C2_16
REMARK                            x       y       z     vdW  Elec       q    Type
REMARK                         _______ _______ _______ _____ _____    ______ ____
ROOT
ATOM      1  C   UNL     1      -0.594  -8.275 -26.420  0.00  0.00    -0.130 A 
ATOM      2  C   UNL     1      -0.413  -7.065 -25.753  0.00  0.00    +0.000 A 
ATOM     13  C   UNL     1      -0.693  -7.008 -24.390  0.00  0.00    -0.130 A 
ATOM     14  C   UNL     1      -1.181  -8.086 -23.691  0.00  0.00    +0.000 A 
ATOM     19  C   UNL     1      -1.267  -9.299 -24.363  0.00  0.00    -0.130 A 
ATOM     20  C   UNL     1      -1.049  -9.391 -25.728  0.00  0.00    -0.130 A 
ENDROOT
BRANCH   2   3
ATOM      3  C   UNL     1       0.072  -5.857 -26.455  0.00  0.00    +0.100 A 
ATOM      4  N   UNL     1       0.945  -6.130 -27.438  0.00  0.00    -0.480 NA
ATOM      5  C   UNL     1       1.489  -5.127 -28.162  0.00  0.00    +0.810 A 
ATOM      6  N   UNL     1       1.216  -3.806 -28.029  0.00  0.00    -0.730 NA
ATOM      7  C   UNL     1       0.320  -3.548 -27.076  0.00  0.00    +0.550 A 
ATOM      8  N   UNL     1      -0.195  -2.341 -26.721  0.00  0.00    -0.600 NA
ATOM      9  C   UNL     1      -1.093  -2.599 -25.729  0.00  0.00    +0.100 A 
ATOM     10  N   UNL     1      -1.171  -3.869 -25.396  0.00  0.00    -0.300 NA
ATOM     11  N   UNL     1       2.345  -5.512 -29.120  0.00  0.00    -0.750 NA
ATOM     12  C   UNL     1      -0.291  -4.508 -26.260  0.00  0.00    +0.200 A 
ENDBRANCH   2   3
BRANCH  14  15
ATOM     15  C   UNL     1      -1.406  -7.947 -22.191  0.00  0.00    -0.100 C 
BRANCH  15  16
ATOM     16  C   UNL     1      -2.448  -8.826 -21.487  0.00  0.00    +0.200 C 
ATOM     17  O   UNL     1      -3.500  -9.113 -22.122  0.00  0.00    -0.600 OA
ATOM     18  O   UNL     1      -2.325  -9.003 -20.298  0.00  0.00    -0.600 OA
ENDBRANCH  15  16
ENDBRANCH  14  15
TORSDOF 3
