REMARK  Name = 2zm3_ligand
REMARK  4 active torsions:
REMARK  status: ('A' for Active; 'I' for Inactive)
REMARK    1  A    between atoms: C3_3  and  N2_13
REMARK    2  A    between atoms: C6_6  and  C7_7
REMARK    3  A    between atoms: C7_7  and  N1_8
REMARK    4  A    between atoms: N2_13  and  C12_14
REMARK                            x       y       z     vdW  Elec       q    Type
REMARK                         _______ _______ _______ _____ _____    ______ ____
ROOT
ATOM     13  N   UNL     1      37.385  78.667  56.945  0.00  0.00    -0.261 N 
ATOM     14  H   UNL     1      37.116  78.441  55.977  0.00  0.00    +0.226 HD
ENDROOT
BRANCH  13  15
ATOM     15  C   UNL     1      38.020  77.678  57.653  0.00  0.00    +0.189 C 
ATOM     16  C   UNL     1      38.578  76.506  57.282  0.00  0.00    +0.071 C 
ATOM     17  C   UNL     1      38.432  76.054  55.862  0.00  0.00    +0.207 C 
ATOM     18  O   UNL     1      38.054  76.795  54.959  0.00  0.00    -0.397 OA
ATOM     19  N   UNL     1      38.764  74.725  55.636  0.00  0.00    -0.206 N 
ATOM     20  H   UNL     1      38.671  74.410  54.691  0.00  0.00    +0.224 HD
ATOM     21  C   UNL     1      39.207  73.775  56.544  0.00  0.00    +0.225 C 
ATOM     22  O   UNL     1      39.470  72.623  56.219  0.00  0.00    -0.381 OA
ATOM     23  C   UNL     1      39.353  74.222  57.948  0.00  0.00    +0.051 A 
ATOM     24  C   UNL     1      39.802  73.302  58.914  0.00  0.00    +0.017 A 
ATOM     25  C   UNL     1      39.951  73.691  60.241  0.00  0.00    +0.003 A 
ATOM     26  C   UNL     1      39.654  74.999  60.608  0.00  0.00    +0.009 A 
ATOM     27 BR   UNL     1      39.839  75.582  62.409  0.00  0.00    -0.049 Br
ATOM     28  C   UNL     1      39.209  75.911  59.651  0.00  0.00    +0.007 A 
ATOM     29  C   UNL     1      39.050  75.544  58.305  0.00  0.00    -0.011 A 
ENDBRANCH  13  15
BRANCH  13  12
ATOM      1  C   UNL     1      36.412  82.261  56.894  0.00  0.00    -0.010 A 
ATOM      2  C   UNL     1      36.402  82.583  58.257  0.00  0.00    -0.009 A 
ATOM     10  C   UNL     1      36.727  81.586  59.181  0.00  0.00    -0.010 A 
ATOM     11  C   UNL     1      37.050  80.294  58.763  0.00  0.00    +0.011 A 
ATOM     12  C   UNL     1      37.063  79.959  57.404  0.00  0.00    +0.065 A 
ATOM     30  C   UNL     1      36.736  80.965  56.476  0.00  0.00    +0.011 A 
BRANCH   2   3
ATOM      3  C   UNL     1      36.071  83.968  58.757  0.00  0.00    +0.189 C 
BRANCH   3   4
ATOM      4  N   UNL     1      34.739  84.587  58.392  0.00  0.00    +0.246 N 
ATOM      5  H   UNL     1      34.932  85.206  57.620  0.00  0.00    +0.205 HD
ATOM      6  C   UNL     1      33.636  83.656  57.947  0.00  0.00    +0.132 C 
ATOM      7  C   UNL     1      32.432  84.575  57.998  0.00  0.00    +0.056 C 
ATOM      8  C   UNL     1      32.633  85.373  59.277  0.00  0.00    +0.056 C 
ATOM      9  C   UNL     1      34.136  85.414  59.514  0.00  0.00    +0.132 C 
ENDBRANCH   3   4
ENDBRANCH   2   3
ENDBRANCH  13  12
TORSDOF 4
