REMARK  Name = 5NK8
REMARK  11 active torsions:
REMARK  status: ('A' for Active; 'I' for Inactive)
REMARK    1  A    between atoms: C_2  and  C_3
REMARK    2  A    between atoms: C_2  and  C_4
REMARK    3  A    between atoms: N_5  and  O_6
REMARK    4  A    between atoms: C_7  and  C_8
REMARK    5  A    between atoms: C_7  and  C_9
REMARK    6  A    between atoms: C_11  and  N_12
REMARK    7  A    between atoms: C_13  and  C_15
REMARK    8  A    between atoms: C_20  and  N_21
REMARK    9  A    between atoms: C_26  and  C_27
REMARK   10  A    between atoms: N_29  and  C_30
REMARK   11  A    between atoms: C_36  and  C_37
REMARK                            x       y       z     vdW  Elec       q    Type
REMARK                         _______ _______ _______ _____ _____    ______ ____
ROOT
ATOM      6  C   UNL     1     119.904  14.316  44.352  0.00  0.00    +0.039 A 
ATOM      7  C   UNL     1     119.509  14.475  45.640  0.00  0.00    +0.013 A 
ATOM      8  C   UNL     1     120.410  14.732  46.646  0.00  0.00    +0.003 A 
ATOM      9  C   UNL     1     121.749  14.854  46.365  0.00  0.00    +0.023 A 
ATOM     10  C   UNL     1     122.202  14.733  45.090  0.00  0.00    +0.034 A 
ATOM     30  C   UNL     1     121.262  14.463  44.111  0.00  0.00    +0.036 A 
ENDROOT
BRANCH  10  11
ATOM     11  N   UNL     1     123.493  14.827  44.776  0.00  0.00    -0.294 N 
ATOM     12  H   UNL     1     123.761  14.480  43.800  0.00  0.00    +0.154 HD
ATOM     13  C   UNL     1     124.490  15.296  45.517  0.00  0.00    +0.163 A 
ATOM     14  N   UNL     1     125.749  15.364  45.110  0.00  0.00    -0.232 NA
ATOM     15  C   UNL     1     126.600  15.871  46.002  0.00  0.00    +0.133 A 
ATOM     16  C   UNL     1     126.060  16.271  47.156  0.00  0.00    +0.095 A 
ATOM     29  S   UNL     1     124.472  15.933  47.091  0.00  0.00    -0.048 S 
BRANCH  16  17
ATOM     17  C   UNL     1     126.683  16.797  48.236  0.00  0.00    +0.257 C 
ATOM     18  N   UNL     1     128.002  17.091  48.209  0.00  0.00    -0.280 N 
ATOM     19  H   UNL     1     128.565  16.919  47.316  0.00  0.00    +0.155 HD
ATOM     28  O   UNL     1     126.011  16.928  49.211  0.00  0.00    -0.269 OA
BRANCH  18  20
ATOM     20  C   UNL     1     128.607  17.592  49.282  0.00  0.00    +0.055 A 
ATOM     21  C   UNL     1     128.901  18.957  49.379  0.00  0.00    -0.028 A 
ATOM     22  C   UNL     1     128.597  19.899  48.379  0.00  0.00    +0.045 C 
ATOM     23  C   UNL     1     129.531  19.374  50.532  0.00  0.00    +0.005 A 
ATOM     24  C   UNL     1     129.856  18.534  51.584  0.00  0.00    +0.002 A 
ATOM     25  C   UNL     1     129.551  17.196  51.461  0.00  0.00    +0.022 A 
ATOM     26  C   UNL     1     128.920  16.738  50.314  0.00  0.00    +0.062 A 
ATOM     27 CL   UNL     1     128.619  15.157  50.220  0.00  0.00    -0.082 Cl
ENDBRANCH  18  20
ENDBRANCH  16  17
ENDBRANCH  10  11
BRANCH   6   5
ATOM      3  N   UNL     1     118.111  12.988  43.626  0.00  0.00    -0.308 N 
ATOM      4  H   UNL     1     118.144  12.563  44.607  0.00  0.00    +0.149 HD
ATOM      5  C   UNL     1     118.972  13.980  43.342  0.00  0.00    +0.244 C 
ATOM     31  O   UNL     1     119.031  14.446  42.236  0.00  0.00    -0.270 OA
BRANCH   3   2
ATOM      1  C   UNL     1     115.740  12.519  43.204  0.00  0.00    +0.046 C 
ATOM      2  C   UNL     1     117.127  12.449  42.678  0.00  0.00    +0.077 C 
ATOM     32  C   UNL     1     117.395  11.051  42.446  0.00  0.00    +0.046 C 
ATOM     33  C   UNL     1     116.560  10.490  41.369  0.00  0.00    +0.043 C 
ATOM     34  C   UNL     1     116.820   8.987  41.306  0.00  0.00    +0.030 C 
ATOM     35  C   UNL     1     117.036  11.101  40.086  0.00  0.00    +0.030 C 
ATOM     36  N   UNL     1     115.122  10.856  41.431  0.00  0.00    -0.180 NA
ATOM     39  C   UNL     1     114.708  11.968  42.284  0.00  0.00    +0.043 C 
ATOM     40  C   UNL     1     113.431  11.748  43.101  0.00  0.00    +0.030 C 
ATOM     41  C   UNL     1     114.400  13.039  41.282  0.00  0.00    +0.030 C 
BRANCH  36  37
ATOM     37  O   UNL     1     114.295   9.906  41.357  0.00  0.00    -0.311 OA
ATOM     38  H   UNL     1     114.512   9.066  40.766  0.00  0.00    +0.237 HD
ENDBRANCH  36  37
ENDBRANCH   3   2
ENDBRANCH   6   5
TORSDOF 6
