REMARK  Name = C15
REMARK  15 active torsions:
REMARK  status: ('A' for Active; 'I' for Inactive)
REMARK    1  A    between atoms: C1_1  and  C2_2
REMARK    2  A    between atoms: C1_1  and  S1_19
REMARK    3  A    between atoms: C2_2  and  C3_3
REMARK    4  A    between atoms: C3_3  and  N1_8
REMARK    5  A    between atoms: C6_5  and  C7_6
REMARK    6  A    between atoms: C7_6  and  C8_7
REMARK    7  A    between atoms: C8_7  and  C9_11
REMARK    8  A    between atoms: N1_8  and  C16_18
REMARK    9  A    between atoms: C9_11  and  C10_12
REMARK   10  A    between atoms: C10_12  and  C11_13
REMARK   11  A    between atoms: C11_13  and  C12_14
REMARK   12  A    between atoms: C12_14  and  C13_15
REMARK   13  A    between atoms: C13_15  and  C14_16
REMARK   14  A    between atoms: C14_16  and  C15_17
REMARK   15  A    between atoms: C15_17  and  C16_18
REMARK                            x       y       z     vdW  Elec       q    Type
REMARK                         _______ _______ _______ _____ _____    ______ ____
ROOT
ATOM      7  C   UNL     1     -41.170  38.243  -4.531  0.00  0.00    -0.073 C 
ENDROOT
BRANCH   7   4
ATOM      4  N   UNL     1     -40.182  39.240  -3.917  0.00  0.00    +0.387 N 
ATOM      5  C   UNL     1     -40.564  39.124  -2.520  0.00  0.00    -0.096 C 
ATOM      6  C   UNL     1     -40.680  40.460  -4.508  0.00  0.00    -0.096 C 
BRANCH   4   3
ATOM      3  C   UNL     1     -38.950  38.606  -4.365  0.00  0.00    -0.071 C 
BRANCH   3   2
ATOM      2  C   UNL     1     -37.725  39.523  -4.260  0.00  0.00    -0.001 C 
BRANCH   2   1
ATOM      1  C   UNL     1     -37.154  39.982  -5.621  0.00  0.00    +0.103 C 
BRANCH   1  19
ATOM     19  S   UNL     1     -36.231  38.812  -6.396  0.00  0.00    -0.196 S 
ATOM     20  O   UNL     1     -36.651  37.473  -6.022  0.00  0.00    -0.308 OA
ATOM     21  O   UNL     1     -34.638  38.979  -6.040  0.00  0.00    -0.308 OA
ATOM     22  O   UNL     1     -36.363  38.950  -7.818  0.00  0.00    -0.308 OA
ENDBRANCH   1  19
ENDBRANCH   2   1
ENDBRANCH   3   2
ENDBRANCH   4   3
ENDBRANCH   7   4
BRANCH   7   8
ATOM      8  C   UNL     1     -41.434  38.267  -6.074  0.00  0.00    -0.022 C 
BRANCH   8   9
ATOM      9  C   UNL     1     -42.182  37.012  -6.510  0.00  0.00    -0.002 C 
BRANCH   9  10
ATOM     10  C   UNL     1     -42.073  36.700  -8.007  0.00  0.00    -0.000 C 
BRANCH  10  11
ATOM     11  C   UNL     1     -43.101  35.670  -8.535  0.00  0.00    -0.000 C 
BRANCH  11  12
ATOM     12  C   UNL     1     -42.566  34.236  -8.798  0.00  0.00    -0.000 C 
BRANCH  12  13
ATOM     13  C   UNL     1     -42.783  33.685 -10.242  0.00  0.00    +0.000 C 
BRANCH  13  14
ATOM     14  C   UNL     1     -43.212  32.205 -10.245  0.00  0.00    +0.000 C 
BRANCH  14  15
ATOM     15  C   UNL     1     -42.733  31.320 -11.419  0.00  0.00    +0.000 C 
BRANCH  15  16
ATOM     16  C   UNL     1     -42.846  29.835 -10.995  0.00  0.00    +0.000 C 
BRANCH  16  17
ATOM     17  C   UNL     1     -42.375  28.825 -12.042  0.00  0.00    +0.000 C 
ATOM     18  C   UNL     1     -42.661  27.387 -11.603  0.00  0.00    +0.000 C 
ENDBRANCH  16  17
ENDBRANCH  15  16
ENDBRANCH  14  15
ENDBRANCH  13  14
ENDBRANCH  12  13
ENDBRANCH  11  12
ENDBRANCH  10  11
ENDBRANCH   9  10
ENDBRANCH   8   9
ENDBRANCH   7   8
TORSDOF 15
