REMARK  Name = 2vtl_ligand
REMARK  2 active torsions:
REMARK  status: ('A' for Active; 'I' for Inactive)
REMARK    1  A    between atoms: C2_2  and  C10_10
REMARK    2  A    between atoms: N3_3  and  C4_4
REMARK                            x       y       z     vdW  Elec       q    Type
REMARK                         _______ _______ _______ _____ _____    ______ ____
ROOT
ATOM      1  O   UNL     1      27.971   7.438  64.276  0.00  0.00    -0.371 OA
ATOM      2  C   UNL     1      28.424   6.468  64.811  0.00  0.00    +0.260 C 
ATOM      9  N   UNL     1      29.583   6.487  65.496  0.00  0.00    -0.231 N 
ATOM     10  H   UNL     1      29.805   5.669  66.027  0.00  0.00    +0.225 HD
ENDROOT
BRANCH   2   3
ATOM      3  C   UNL     1      27.753   5.167  64.705  0.00  0.00    +0.162 A 
ATOM      4  N   UNL     1      28.246   4.111  65.297  0.00  0.00    -0.204 N 
ATOM      5  H   UNL     1      29.094   4.051  65.879  0.00  0.00    +0.259 HD
ATOM      6  N   UNL     1      27.388   3.113  64.972  0.00  0.00    -0.210 NA
ATOM      7  C   UNL     1      26.396   3.552  64.178  0.00  0.00    +0.072 A 
ATOM      8  C   UNL     1      26.606   4.870  63.980  0.00  0.00    +0.018 A 
ENDBRANCH   2   3
BRANCH   9  11
ATOM     11  C   UNL     1      30.508   7.537  65.540  0.00  0.00    +0.066 A 
ATOM     12  C   UNL     1      31.183   7.831  66.721  0.00  0.00    +0.009 A 
ATOM     13  C   UNL     1      32.088   8.869  66.763  0.00  0.00    -0.018 A 
ATOM     14  C   UNL     1      32.342   9.616  65.630  0.00  0.00    -0.028 A 
ATOM     15  C   UNL     1      31.683   9.333  64.449  0.00  0.00    -0.018 A 
ATOM     16  C   UNL     1      30.772   8.296  64.399  0.00  0.00    +0.009 A 
ENDBRANCH   9  11
TORSDOF 2
