REMARK  Name = 2xk7_ligand
REMARK  10 active torsions:
REMARK  status: ('A' for Active; 'I' for Inactive)
REMARK    1  A    between atoms: C01_1  and  C02_2
REMARK    2  A    between atoms: C02_2  and  C03_3
REMARK    3  A    between atoms: C08_8  and  C09_9
REMARK    4  A    between atoms: C11_11  and  O12_12
REMARK    5  A    between atoms: O12_12  and  C13_13
REMARK    6  A    between atoms: C14_14  and  O15_15
REMARK    7  A    between atoms: O15_15  and  C16_16
REMARK    8  A    between atoms: C17_17  and  O18_18
REMARK    9  A    between atoms: O18_18  and  C19_19
REMARK   10  A    between atoms: C27_27  and  C28_28
REMARK                            x       y       z     vdW  Elec       q    Type
REMARK                         _______ _______ _______ _____ _____    ______ ____
ROOT
ATOM      3  C   UNL     1     -24.702  21.010 -14.625  0.00  0.00    +0.027 C 
ATOM      4  C   UNL     1     -23.200  21.325 -14.440  0.00  0.00    +0.065 C 
ATOM      8  C   UNL     1     -22.653  22.217 -15.581  0.00  0.00    +0.043 C 
ATOM      9  C   UNL     1     -23.774  22.942 -16.359  0.00  0.00    +0.135 C 
ATOM     10  N   UNL     1     -24.813  22.005 -16.808  0.00  0.00    -0.291 N 
ATOM     11  C   UNL     1     -25.216  22.275 -18.225  0.00  0.00    +0.163 A 
ATOM     12  C   UNL     1     -25.034  23.551 -18.898  0.00  0.00    +0.160 A 
ATOM     13  N   UNL     1     -24.440  24.692 -18.233  0.00  0.00    -0.319 N 
ATOM     14  H   UNL     1     -24.113  24.608 -17.270  0.00  0.00    +0.176 HD
ATOM     15  H   UNL     1     -24.348  25.579 -18.727  0.00  0.00    +0.176 HD
ATOM     16  N   UNL     1     -25.471  23.691 -20.210  0.00  0.00    -0.277 NA
ATOM     17  C   UNL     1     -26.109  22.610 -20.907  0.00  0.00    +0.087 A 
ATOM     18  C   UNL     1     -26.300  21.368 -20.220  0.00  0.00    +0.037 A 
ATOM     31  N   UNL     1     -25.849  21.213 -18.907  0.00  0.00    -0.276 NA
ATOM     32  C   UNL     1     -25.088  20.777 -16.092  0.00  0.00    +0.139 C 
ENDROOT
BRANCH  18  19
ATOM     19  C   UNL     1     -26.871  20.243 -20.851  0.00  0.00    -0.034 A 
ATOM     20  C   UNL     1     -27.466  20.343 -22.172  0.00  0.00    +0.001 A 
ATOM     21  C   UNL     1     -28.004  19.110 -22.810  0.00  0.00    +0.114 A 
ATOM     24  C   UNL     1     -27.929  17.836 -22.118  0.00  0.00    +0.150 A 
ATOM     27  C   UNL     1     -27.306  17.742 -20.806  0.00  0.00    +0.114 A 
ATOM     30  C   UNL     1     -26.760  18.961 -20.167  0.00  0.00    +0.001 A 
BRANCH  21  22
ATOM     22  O   UNL     1     -28.557  19.169 -24.098  0.00  0.00    -0.328 OA
ATOM     23  C   UNL     1     -28.836  20.402 -24.676  0.00  0.00    +0.228 C 
ENDBRANCH  21  22
BRANCH  24  25
ATOM     25  O   UNL     1     -28.406  16.655 -22.709  0.00  0.00    -0.328 OA
ATOM     26  C   UNL     1     -27.455  15.711 -23.160  0.00  0.00    +0.226 C 
ENDBRANCH  24  25
BRANCH  27  28
ATOM     28  O   UNL     1     -27.207  16.479 -20.186  0.00  0.00    -0.328 OA
ATOM     29  C   UNL     1     -26.695  16.354 -18.889  0.00  0.00    +0.228 C 
ENDBRANCH  27  28
ENDBRANCH  18  19
BRANCH   4   5
ATOM      5  C   UNL     1     -22.754  21.598 -13.011  0.00  0.00    +0.038 C 
ATOM      6  O   UNL     1     -21.881  22.649 -12.727  0.00  0.00    -0.569 OA
ATOM      7  O   UNL     1     -23.177  20.920 -12.130  0.00  0.00    -0.569 OA
ENDBRANCH   4   5
BRANCH   3   2
ATOM      1  C   UNL     1     -26.598  22.787 -14.312  0.00  0.00    +0.004 C 
ATOM      2  C   UNL     1     -25.713  21.702 -13.696  0.00  0.00    +0.004 C 
ENDBRANCH   3   2
TORSDOF 6
