REMARK  Name = 3bgq_ligand
REMARK  3 active torsions:
REMARK  status: ('A' for Active; 'I' for Inactive)
REMARK    1  A    between atoms: C1_1  and  C2_10
REMARK    2  A    between atoms: C13_9  and  N3_20
REMARK    3  A    between atoms: C6_18  and  C8_19
REMARK                            x       y       z     vdW  Elec       q    Type
REMARK                         _______ _______ _______ _____ _____    ______ ____
ROOT
ATOM      8  C   UNL     1     -17.762  36.110   0.688  0.00  0.00    +0.196 A 
ATOM      9  N   UNL     1     -17.331  35.715  -0.595  0.00  0.00    -0.114 N 
ATOM     10  N   UNL     1     -17.705  36.110  -1.904  0.00  0.00    -0.138 NA
ATOM     11  C   UNL     1     -17.134  35.622  -3.073  0.00  0.00    +0.152 A 
ATOM     12  N   UNL     1     -17.535  36.003  -4.341  0.00  0.00    -0.300 N 
ATOM     13  H   UNL     1     -16.977  35.718  -5.158  0.00  0.00    +0.180 HD
ATOM     20  C   UNL     1     -16.086  34.641  -2.871  0.00  0.00    +0.077 A 
ATOM     21  C   UNL     1     -15.665  34.193  -1.559  0.00  0.00    +0.087 A 
ATOM     22  C   UNL     1     -16.313  34.745  -0.416  0.00  0.00    +0.180 A 
ATOM     23  N   UNL     1     -16.231  34.635   0.910  0.00  0.00    -0.264 NA
ATOM     24  N   UNL     1     -17.052  35.402   1.606  0.00  0.00    -0.255 NA
ENDROOT
BRANCH   8   7
ATOM      5  C   UNL     1     -20.635  38.761   0.300  0.00  0.00    +0.049 A 
ATOM      6  C   UNL     1     -19.669  37.689   0.045  0.00  0.00    +0.067 A 
ATOM      7  C   UNL     1     -18.763  37.161   1.059  0.00  0.00    +0.060 A 
ATOM     25  C   UNL     1     -18.838  37.740   2.412  0.00  0.00    +0.065 A 
ATOM     26  C   UNL     1     -19.784  38.808   2.717  0.00  0.00    +0.038 A 
ATOM     27  C   UNL     1     -20.671  39.318   1.679  0.00  0.00    +0.053 A 
BRANCH   5   1
ATOM      1  C   UNL     1     -21.564  39.275  -0.823  0.00  0.00    +0.377 C 
ATOM      2  F   UNL     1     -21.225  40.565  -1.091  0.00  0.00    -0.220 F 
ATOM      3  F   UNL     1     -21.452  38.553  -1.970  0.00  0.00    -0.220 F 
ATOM      4  F   UNL     1     -22.846  39.124  -0.402  0.00  0.00    -0.220 F 
ENDBRANCH   5   1
ENDBRANCH   8   7
BRANCH  12  14
ATOM     14  C   UNL     1     -18.726  36.796  -4.532  0.00  0.00    +0.093 C 
ATOM     15  C   UNL     1     -19.390  36.456  -5.884  0.00  0.00    +0.027 C 
ATOM     16  C   UNL     1     -20.532  37.409  -6.207  0.00  0.00    +0.002 C 
ATOM     17  C   UNL     1     -20.100  38.866  -6.107  0.00  0.00    +0.000 C 
ATOM     18  C   UNL     1     -19.495  39.195  -4.749  0.00  0.00    +0.002 C 
ATOM     19  C   UNL     1     -18.341  38.266  -4.401  0.00  0.00    +0.027 C 
ENDBRANCH  12  14
TORSDOF 3
