REMARK  Name = 4kin_ligand
REMARK  6 active torsions:
REMARK  status: ('A' for Active; 'I' for Inactive)
REMARK    1  A    between atoms: C2_2  and  C9_9
REMARK    2  A    between atoms: C5_5  and  C7_7
REMARK    3  A    between atoms: C6_6  and  N8_8
REMARK    4  A    between atoms: N10_10  and  C12_12
REMARK    5  A    between atoms: C15_15  and  C16_16
REMARK    6  A    between atoms: C19_19  and  C22_22
REMARK                            x       y       z     vdW  Elec       q    Type
REMARK                         _______ _______ _______ _____ _____    ______ ____
ROOT
ATOM      3  N   UNL     1       0.078  -3.740  -4.007  0.00  0.00    -0.237 N 
ATOM      4  H   UNL     1       0.114  -4.707  -4.259  0.00  0.00    +0.222 HD
ATOM      5  C   UNL     1      -0.534  -3.401  -2.864  0.00  0.00    +0.234 C 
ATOM      6  O   UNL     1      -0.592  -2.244  -2.424  0.00  0.00    -0.380 OA
ENDROOT
BRANCH   3   2
ATOM      1  C   UNL     1       1.935  -2.288  -4.567  0.00  0.00    +0.025 A 
ATOM      2  C   UNL     1       0.675  -2.797  -4.874  0.00  0.00    +0.073 A 
ATOM     19  C   UNL     1      -0.011  -2.384  -6.028  0.00  0.00    -0.019 A 
ATOM     20  C   UNL     1      -1.364  -2.950  -6.392  0.00  0.00    +0.079 C 
ATOM     21  C   UNL     1       0.630  -1.465  -6.862  0.00  0.00    -0.015 A 
ATOM     22  C   UNL     1       1.894  -0.977  -6.574  0.00  0.00    -0.011 A 
ATOM     23  C   UNL     1       2.563  -1.386  -5.423  0.00  0.00    +0.029 A 
BRANCH  23  24
ATOM     24  C   UNL     1       3.948  -0.980  -5.012  0.00  0.00    +0.197 C 
ATOM     25  O   UNL     1       4.556  -1.622  -4.152  0.00  0.00    -0.388 OA
ATOM     26  N   UNL     1       4.485   0.104  -5.611  0.00  0.00    -0.284 N 
ATOM     27  H   UNL     1       3.940   0.598  -6.289  0.00  0.00    +0.185 HD
BRANCH  26  28
ATOM     28  C   UNL     1       5.835   0.586  -5.307  0.00  0.00    +0.097 C 
ATOM     29  C   UNL     1       6.760   0.871  -6.440  0.00  0.00    +0.030 C 
ATOM     30  C   UNL     1       6.982  -0.327  -5.576  0.00  0.00    +0.030 C 
ENDBRANCH  26  28
ENDBRANCH  23  24
ENDBRANCH   3   2
BRANCH   5   7
ATOM      7  C   UNL     1      -1.045  -4.523  -2.060  0.00  0.00    +0.107 A 
ATOM      8  S   UNL     1      -1.961  -4.024  -0.683  0.00  0.00    -0.020 S 
ATOM      9  C   UNL     1      -2.167  -5.657  -0.139  0.00  0.00    +0.043 A 
ATOM     17  C   UNL     1      -1.521  -6.538  -0.990  0.00  0.00    -0.010 A 
ATOM     18  C   UNL     1      -0.878  -5.899  -2.065  0.00  0.00    +0.002 A 
BRANCH   9  10
ATOM     10  C   UNL     1      -2.939  -5.915   1.091  0.00  0.00    +0.008 A 
ATOM     11  C   UNL     1      -2.412  -6.608   2.179  0.00  0.00    +0.049 A 
ATOM     12 CL   UNL     1      -0.776  -7.162   2.147  0.00  0.00    -0.069 Cl
ATOM     13  C   UNL     1      -3.160  -6.841   3.325  0.00  0.00    +0.014 A 
ATOM     14  C   UNL     1      -4.456  -6.358   3.397  0.00  0.00    -0.000 A 
ATOM     15  C   UNL     1      -4.989  -5.643   2.344  0.00  0.00    +0.000 A 
ATOM     16  C   UNL     1      -4.241  -5.422   1.195  0.00  0.00    +0.009 A 
ENDBRANCH   9  10
ENDBRANCH   5   7
TORSDOF 5
