REMARK  Name = R70
REMARK  6 active torsions:
REMARK  status: ('A' for Active; 'I' for Inactive)
REMARK    1  A    between atoms: O_3  and  C1_4
REMARK    2  A    between atoms: C11_6  and  N1_27
REMARK    3  A    between atoms: C14_9  and  C17_12
REMARK    4  A    between atoms: C17_12  and  C18_13
REMARK    5  A    between atoms: C6_23  and  C7_24
REMARK    6  A    between atoms: C8_25  and  N1_27
REMARK                            x       y       z     vdW  Elec       q    Type
REMARK                         _______ _______ _______ _____ _____    ______ ____
ROOT
ATOM      1  N   UNL     1     -57.033  -2.572  16.663  0.00  0.00    -0.136 NA
ATOM      2  C   UNL     1     -57.802  -1.836  17.531  0.00  0.00    +0.287 C 
ATOM      3  C   UNL     1     -58.945  -2.683  17.933  0.00  0.00    +0.130 C 
ATOM     19  C   UNL     1     -58.784  -3.922  17.286  0.00  0.00    +0.078 C 
ATOM     28  O   UNL     1     -57.571  -0.677  17.892  0.00  0.00    -0.267 OA
ATOM     29  C   UNL     1     -57.568  -3.835  16.462  0.00  0.00    +0.273 C 
ATOM     30  O   UNL     1     -57.119  -4.680  15.698  0.00  0.00    -0.268 OA
ENDROOT
BRANCH  19  20
ATOM     20  C   UNL     1     -59.600  -5.171  17.341  0.00  0.00    +0.040 A 
ATOM     21  C   UNL     1     -58.996  -6.385  17.681  0.00  0.00    +0.003 A 
ATOM     22  C   UNL     1     -59.748  -7.541  17.764  0.00  0.00    +0.000 A 
ATOM     23  C   UNL     1     -61.108  -7.510  17.510  0.00  0.00    +0.003 A 
ATOM     24  C   UNL     1     -61.729  -6.321  17.173  0.00  0.00    +0.037 A 
ATOM     25  C   UNL     1     -60.977  -5.161  17.077  0.00  0.00    +0.139 A 
BRANCH  25  26
ATOM     26  O   UNL     1     -61.502  -3.958  16.699  0.00  0.00    -0.471 OA
ATOM     27  C   UNL     1     -62.918  -3.878  16.534  0.00  0.00    +0.253 C 
ENDBRANCH  25  26
ENDBRANCH  19  20
BRANCH   3   4
ATOM      4  N   UNL     1     -59.884  -2.126  18.740  0.00  0.00    -0.208 NA
BRANCH   4   5
ATOM      5  C   UNL     1     -60.923  -2.745  19.467  0.00  0.00    +0.071 A 
ATOM      6  C   UNL     1     -60.747  -3.963  20.113  0.00  0.00    +0.017 A 
ATOM      7  C   UNL     1     -61.814  -4.576  20.743  0.00  0.00    +0.004 A 
ATOM      8  C   UNL     1     -63.076  -3.989  20.737  0.00  0.00    +0.039 A 
ATOM     17  C   UNL     1     -63.237  -2.759  20.108  0.00  0.00    +0.004 A 
ATOM     18  C   UNL     1     -62.172  -2.139  19.484  0.00  0.00    +0.017 A 
BRANCH   8   9
ATOM      9  C   UNL     1     -64.246  -4.651  21.374  0.00  0.00    +0.196 C 
ATOM     10  O   UNL     1     -65.068  -3.968  21.973  0.00  0.00    -0.287 OA
BRANCH   9  11
ATOM     11  C   UNL     1     -64.437  -6.125  21.272  0.00  0.00    +0.039 A 
ATOM     12  C   UNL     1     -65.036  -6.832  22.312  0.00  0.00    +0.003 A 
ATOM     13  C   UNL     1     -65.231  -8.199  22.209  0.00  0.00    +0.000 A 
ATOM     14  C   UNL     1     -64.831  -8.876  21.077  0.00  0.00    +0.000 A 
ATOM     15  C   UNL     1     -64.234  -8.189  20.044  0.00  0.00    +0.000 A 
ATOM     16  C   UNL     1     -64.040  -6.820  20.134  0.00  0.00    +0.003 A 
ENDBRANCH   9  11
ENDBRANCH   8   9
ENDBRANCH   4   5
ENDBRANCH   3   4
TORSDOF 6
