REMARK  Name = 1GZ8
REMARK  6 active torsions:
REMARK  status: ('A' for Active; 'I' for Inactive)
REMARK    1  A    between atoms: C_4  and  C_7
REMARK    2  A    between atoms: C_4  and  C_15
REMARK    3  A    between atoms: C_6  and  C_7
REMARK    4  A    between atoms: C_7  and  C_8
REMARK    5  A    between atoms: C_13  and  O_14
REMARK    6  A    between atoms: O_14  and  C_15
REMARK                            x       y       z     vdW  Elec       q    Type
REMARK                         _______ _______ _______ _____ _____    ______ ____
ROOT
ATOM      1  C   UNL     1       1.945  29.163   6.453  0.00  0.00    +0.218 A 
ATOM      2  N   UNL     1       1.321  28.241   7.247  0.00  0.00    -0.178 NA
ATOM      3  C   UNL     1       0.304  28.510   8.040  0.00  0.00    +0.246 A 
ATOM     11  C   UNL     1      -0.098  29.892   8.173  0.00  0.00    +0.147 A 
ATOM     12  N   UNL     1      -1.050  30.539   8.872  0.00  0.00    -0.339 N 
ATOM     13  H   UNL     1      -1.719  30.119   9.593  0.00  0.00    +0.167 HD
ATOM     14  C   UNL     1      -0.987  31.782   8.488  0.00  0.00    +0.199 A 
ATOM     15  N   UNL     1      -0.028  31.951   7.589  0.00  0.00    -0.216 NA
ATOM     16  C   UNL     1       0.587  30.802   7.306  0.00  0.00    +0.186 A 
ATOM     17  N   UNL     1       2.952  28.802   5.646  0.00  0.00    -0.327 N 
ATOM     18  H   UNL     1       3.249  27.776   5.587  0.00  0.00    +0.145 HD
ATOM     19  H   UNL     1       3.459  29.540   5.061  0.00  0.00    +0.145 HD
ATOM     20  N   UNL     1       1.610  30.448   6.495  0.00  0.00    -0.193 NA
ENDROOT
BRANCH   3   4
ATOM      4  O   UNL     1      -0.276  27.574   8.785  0.00  0.00    -0.467 OA
BRANCH   4   5
ATOM      5  C   UNL     1      -0.046  26.210   8.560  0.00  0.00    +0.305 C 
BRANCH   5   6
ATOM      6  C   UNL     1      -0.813  25.346   9.523  0.00  0.00    +0.173 C 
ATOM     10  O   UNL     1      -1.745  25.765  10.248  0.00  0.00    -0.293 OA
BRANCH   6   7
ATOM      7  C   UNL     1      -0.326  23.927   9.520  0.00  0.00    +0.053 C 
ATOM      8  C   UNL     1      -0.006  23.463  10.927  0.00  0.00    +0.015 C 
ATOM      9  C   UNL     1      -1.338  23.023   8.846  0.00  0.00    +0.015 C 
ENDBRANCH   6   7
ENDBRANCH   5   6
ENDBRANCH   4   5
ENDBRANCH   3   4
TORSDOF 4
