REMARK  Name = 3AD5
REMARK  8 active torsions:
REMARK  status: ('A' for Active; 'I' for Inactive)
REMARK    1  A    between atoms: C_2  and  S_21
REMARK    2  A    between atoms: N_3  and  C_7
REMARK    3  A    between atoms: C_10  and  O_13
REMARK    4  A    between atoms: O_13  and  C_14
REMARK    5  A    between atoms: C_14  and  C_15
REMARK    6  A    between atoms: S_21  and  C_22
REMARK    7  A    between atoms: C_22  and  C_23
REMARK    8  A    between atoms: C_23  and  C_25
REMARK                            x       y       z     vdW  Elec       q    Type
REMARK                         _______ _______ _______ _____ _____    ______ ____
ROOT
ATOM      1  N   UNL     1      -3.271  -0.021   8.173  0.00  0.00    -0.144 NA
ATOM      2  N   UNL     1      -3.122  -0.998   8.921  0.00  0.00    -0.226 N 
ATOM      3  H   UNL     1      -2.213  -1.556   9.012  0.00  0.00    +0.194 HD
ATOM      4  C   UNL     1      -4.255  -1.268   9.606  0.00  0.00    +0.349 A 
ATOM      5  O   UNL     1      -4.390  -2.194  10.392  0.00  0.00    -0.245 OA
ATOM      6  N   UNL     1      -5.182  -0.342   9.238  0.00  0.00    -0.239 N 
ATOM     21  C   UNL     1      -4.523   0.421   8.354  0.00  0.00    +0.197 A 
ENDROOT
BRANCH   6   7
ATOM      7  C   UNL     1      -6.518  -0.270   9.574  0.00  0.00    +0.054 A 
ATOM      8  C   UNL     1      -7.123  -1.242  10.375  0.00  0.00    +0.030 A 
ATOM      9  C   UNL     1      -8.498  -1.331  10.585  0.00  0.00    +0.048 A 
ATOM     10  C   UNL     1      -9.351  -0.412   9.995  0.00  0.00    +0.121 A 
ATOM     19  C   UNL     1      -8.799   0.568   9.177  0.00  0.00    +0.048 A 
ATOM     20  C   UNL     1      -7.416   0.632   8.994  0.00  0.00    +0.030 A 
BRANCH  10  11
ATOM     11  O   UNL     1     -10.709  -0.492  10.200  0.00  0.00    -0.487 OA
BRANCH  11  12
ATOM     12  C   UNL     1     -11.395   0.436  11.048  0.00  0.00    +0.264 C 
BRANCH  12  13
ATOM     13  C   UNL     1     -12.429   1.196  10.244  0.00  0.00    -0.010 A 
ATOM     14  C   UNL     1     -13.610   0.566   9.849  0.00  0.00    +0.007 A 
ATOM     15  C   UNL     1     -14.559   1.263   9.099  0.00  0.00    +0.000 A 
ATOM     16  C   UNL     1     -14.332   2.591   8.746  0.00  0.00    +0.000 A 
ATOM     17  C   UNL     1     -13.150   3.220   9.135  0.00  0.00    +0.000 A 
ATOM     18  C   UNL     1     -12.200   2.525   9.884  0.00  0.00    +0.007 A 
ENDBRANCH  12  13
ENDBRANCH  11  12
ENDBRANCH  10  11
ENDBRANCH   6   7
BRANCH  21  22
ATOM     22  S   UNL     1      -5.258   1.855   7.634  0.00  0.00    -0.078 S 
BRANCH  22  23
ATOM     23  C   UNL     1      -4.894   1.891   5.909  0.00  0.00    +0.157 C 
BRANCH  23  24
ATOM     24  C   UNL     1      -3.688   2.766   5.642  0.00  0.00    +0.173 C 
ATOM     32  O   UNL     1      -3.860   3.925   5.304  0.00  0.00    -0.291 OA
BRANCH  24  25
ATOM     25  C   UNL     1      -2.288   2.218   5.748  0.00  0.00    +0.018 A 
ATOM     26  C   UNL     1      -2.041   0.867   5.504  0.00  0.00    +0.013 A 
ATOM     27  C   UNL     1      -0.747   0.360   5.593  0.00  0.00    +0.021 A 
ATOM     28  C   UNL     1       0.314   1.205   5.912  0.00  0.00    +0.041 A 
ATOM     29 CL   UNL     1       1.981   0.540   6.022  0.00  0.00    -0.084 Cl
ATOM     30  C   UNL     1       0.073   2.560   6.149  0.00  0.00    +0.021 A 
ATOM     31  C   UNL     1      -1.224   3.066   6.063  0.00  0.00    +0.013 A 
ENDBRANCH  24  25
ENDBRANCH  23  24
ENDBRANCH  22  23
ENDBRANCH  21  22
TORSDOF 8
