REMARK  Name = 86L
REMARK  3 active torsions:
REMARK  status: ('A' for Active; 'I' for Inactive)
REMARK    1  A    between atoms: C6_4  and  C7_5
REMARK    2  A    between atoms: C3_9  and  O_10
REMARK    3  A    between atoms: O_10  and  C1_11
REMARK                            x       y       z     vdW  Elec       q    Type
REMARK                         _______ _______ _______ _____ _____    ______ ____
ROOT
ATOM      1 CL   UNL     1       6.171 142.815 353.266  0.00  0.00    -0.079 Cl
ATOM      2  C   UNL     1       5.319 141.320 353.065  0.00  0.00    +0.091 A 
ATOM      3  C   UNL     1       5.885 140.153 353.530  0.00  0.00    +0.012 A 
ATOM      4  C   UNL     1       5.216 138.945 353.396  0.00  0.00    -0.002 A 
ATOM      7  C   UNL     1       3.966 138.946 352.796  0.00  0.00    +0.000 A 
ATOM      8  C   UNL     1       3.394 140.117 352.325  0.00  0.00    +0.037 A 
ATOM      9  C   UNL     1       4.075 141.316 352.448  0.00  0.00    +0.149 A 
ENDROOT
BRANCH   4   5
ATOM      5  C   UNL     1       5.840 137.664 353.870  0.00  0.00    +0.136 C 
ATOM      6  N   UNL     1       5.005 137.063 354.905  0.00  0.00    -0.126 NA
ENDBRANCH   4   5
BRANCH   9  10
ATOM     10  O   UNL     1       3.646 142.524 351.959  0.00  0.00    -0.478 OA
BRANCH  10  11
ATOM     11  C   UNL     1       3.138 143.535 352.869  0.00  0.00    +0.166 C 
ATOM     12  C   UNL     1       1.658 143.346 352.949  0.00  0.00    +0.047 C 
ATOM     13  C   UNL     1       3.526 144.884 352.341  0.00  0.00    +0.047 C 
ENDBRANCH  10  11
ENDBRANCH   9  10
TORSDOF 3
