REMARK  Name = 5AFV
REMARK  5 active torsions:
REMARK  status: ('A' for Active; 'I' for Inactive)
REMARK    1  A    between atoms: C_1  and  C_13
REMARK    2  A    between atoms: C_1  and  N_20
REMARK    3  A    between atoms: C_3  and  C_19
REMARK    4  A    between atoms: N_15  and  N_20
REMARK    5  A    between atoms: N_17  and  C_19
REMARK                            x       y       z     vdW  Elec       q    Type
REMARK                         _______ _______ _______ _____ _____    ______ ____
ROOT
ATOM      4  N   UNL     1       9.885 -14.746  -3.380  0.00  0.00    -0.236 N 
ATOM      5  C   UNL     1      10.096 -13.758  -4.205  0.00  0.00    +0.250 C 
ATOM      6  N   UNL     1       9.861 -12.585  -3.618  0.00  0.00    -0.231 N 
ATOM     14  N   UNL     1       9.514 -12.799  -2.471  0.00  0.00    -0.174 NA
ATOM     15  C   UNL     1       9.519 -14.127  -2.259  0.00  0.00    +0.220 C 
ENDROOT
BRANCH   4   2
ATOM      2  N   UNL     1      10.134 -15.941  -3.699  0.00  0.00    -0.234 NA
ATOM      3  H   UNL     1      10.088 -16.657  -2.905  0.00  0.00    +0.145 HD
BRANCH   2   1
ATOM      1  C   UNL     1      10.487 -16.485  -5.054  0.00  0.00    +0.137 C 
BRANCH   1  16
ATOM     16  C   UNL     1      11.592 -16.018  -5.903  0.00  0.00    -0.032 A 
ATOM     17  C   UNL     1      11.702 -16.629  -7.171  0.00  0.00    +0.005 A 
ATOM     18  C   UNL     1      12.704 -16.312  -8.104  0.00  0.00    +0.000 A 
ATOM     19  C   UNL     1      13.653 -15.354  -7.799  0.00  0.00    +0.000 A 
ATOM     20  C   UNL     1      13.565 -14.724  -6.569  0.00  0.00    +0.000 A 
ATOM     21  C   UNL     1      12.575 -15.050  -5.622  0.00  0.00    +0.005 A 
ENDBRANCH   1  16
ENDBRANCH   2   1
ENDBRANCH   4   2
BRANCH   6   7
ATOM      7  C   UNL     1      10.078 -11.390  -4.480  0.00  0.00    +0.163 C 
BRANCH   7   8
ATOM      8  C   UNL     1       9.577 -11.783  -5.680  0.00  0.00    -0.029 A 
ATOM      9  C   UNL     1       8.239 -11.594  -5.966  0.00  0.00    +0.005 A 
ATOM     10  C   UNL     1       7.746 -12.019  -7.188  0.00  0.00    +0.000 A 
ATOM     11  C   UNL     1       8.562 -12.648  -8.117  0.00  0.00    +0.000 A 
ATOM     12  C   UNL     1       9.900 -12.853  -7.817  0.00  0.00    +0.000 A 
ATOM     13  C   UNL     1      10.401 -12.420  -6.600  0.00  0.00    +0.005 A 
ENDBRANCH   7   8
ENDBRANCH   6   7
TORSDOF 5
