REMARK  Name = 5CQW
REMARK  8 active torsions:
REMARK  status: ('A' for Active; 'I' for Inactive)
REMARK    1  A    between atoms: N_1  and  C_2
REMARK    2  A    between atoms: C_2  and  C_3
REMARK    3  A    between atoms: C_3  and  C_4
REMARK    4  A    between atoms: C_4  and  C_5
REMARK    5  A    between atoms: C_5  and  N_6
REMARK    6  A    between atoms: C_8  and  C_9
REMARK    7  A    between atoms: C_9  and  C_10
REMARK    8  A    between atoms: C_10  and  N_11
REMARK                            x       y       z     vdW  Elec       q    Type
REMARK                         _______ _______ _______ _____ _____    ______ ____
ROOT
ATOM     14  N   UNL     1      46.479  -4.521  34.075  0.00  0.00    -0.149 NA
ATOM     15  N   UNL     1      47.048  -4.109  35.226  0.00  0.00    -0.259 N 
ATOM     16  H   UNL     1      47.892  -3.456  35.305  0.00  0.00    +0.168 HD
ATOM     17  C   UNL     1      46.377  -4.656  36.264  0.00  0.00    +0.081 A 
ATOM     18  C   UNL     1      46.487  -4.609  37.602  0.00  0.00    +0.057 A 
ATOM     19 BR   UNL     1      47.917  -3.520  38.418  0.00  0.00    -0.047 Br
ATOM     20  C   UNL     1      45.527  -5.378  38.466  0.00  0.00    +0.049 A 
ATOM     21 BR   UNL     1      45.691  -5.307  40.381  0.00  0.00    -0.048 Br
ATOM     22  C   UNL     1      44.513  -6.146  37.881  0.00  0.00    +0.049 A 
ATOM     23 BR   UNL     1      43.288  -7.131  39.058  0.00  0.00    -0.048 Br
ATOM     24  C   UNL     1      44.394  -6.200  36.515  0.00  0.00    +0.057 A 
ATOM     25 BR   UNL     1      43.069  -7.199  35.698  0.00  0.00    -0.047 Br
ATOM     26  C   UNL     1      45.342  -5.445  35.665  0.00  0.00    +0.081 A 
ATOM     27  N   UNL     1      45.497  -5.281  34.279  0.00  0.00    -0.259 N 
ATOM     28  H   UNL     1      44.884  -5.727  33.524  0.00  0.00    +0.168 HD
ENDROOT
BRANCH  14  13
ATOM     13  C   UNL     1      46.950  -4.101  32.696  0.00  0.00    +0.134 C 
BRANCH  13  12
ATOM     12  C   UNL     1      46.298  -2.894  32.153  0.00  0.00    +0.077 C 
BRANCH  12  11
ATOM      8  N   UNL     1      47.737  -1.185  29.040  0.00  0.00    -0.252 N 
ATOM      9  N   UNL     1      46.864  -2.133  28.525  0.00  0.00    -0.066 NA
ATOM     10  N   UNL     1      46.284  -2.811  29.454  0.00  0.00    -0.135 NA
ATOM     11  C   UNL     1      46.733  -2.359  30.735  0.00  0.00    +0.084 A 
ATOM     29  C   UNL     1      47.701  -1.276  30.415  0.00  0.00    +0.133 A 
BRANCH   8   7
ATOM      7  C   UNL     1      48.524  -0.286  28.276  0.00  0.00    +0.145 C 
BRANCH   7   6
ATOM      6  C   UNL     1      48.770  -0.634  26.758  0.00  0.00    +0.024 C 
BRANCH   6   5
ATOM      5  C   UNL     1      48.007   0.119  25.718  0.00  0.00    +0.017 C 
BRANCH   5   4
ATOM      4  C   UNL     1      48.666   1.303  25.091  0.00  0.00    +0.078 C 
BRANCH   4   1
ATOM      1  N   UNL     1      48.364   2.558  25.599  0.00  0.00    -0.330 NA
ATOM      2  H   UNL     1      47.314   2.739  25.502  0.00  0.00    +0.118 HD
ATOM      3  H   UNL     1      48.639   2.601  26.632  0.00  0.00    +0.118 HD
ENDBRANCH   4   1
ENDBRANCH   5   4
ENDBRANCH   6   5
ENDBRANCH   7   6
ENDBRANCH   8   7
ENDBRANCH  12  11
ENDBRANCH  13  12
ENDBRANCH  14  13
TORSDOF 8
