REMARK  Name = 5UKF
REMARK  4 active torsions:
REMARK  status: ('A' for Active; 'I' for Inactive)
REMARK    1  A    between atoms: S_4  and  C_5
REMARK    2  A    between atoms: S_4  and  N_20
REMARK    3  A    between atoms: C_9  and  N_22
REMARK    4  A    between atoms: C_10  and  C_11
REMARK                            x       y       z     vdW  Elec       q    Type
REMARK                         _______ _______ _______ _____ _____    ______ ____
ROOT
ATOM      4  N   UNL     1      75.515  -5.607  82.820  0.00  0.00    -0.255 NA
ATOM      5  C   UNL     1      75.076  -4.413  82.395  0.00  0.00    +0.125 C 
ENDROOT
BRANCH   5   6
ATOM      6  C   UNL     1      74.249  -3.742  83.274  0.00  0.00    +0.067 C 
ATOM      7  C   UNL     1      74.025  -4.230  84.645  0.00  0.00    +0.270 C 
ATOM      8  N   UNL     1      73.202  -3.341  85.245  0.00  0.00    -0.176 NA
ATOM      9  C   UNL     1      72.806  -2.318  84.373  0.00  0.00    +0.066 A 
ATOM     10  C   UNL     1      71.962  -1.243  84.564  0.00  0.00    +0.028 A 
ATOM     11  C   UNL     1      71.723  -0.330  83.499  0.00  0.00    +0.031 A 
ATOM     12  C   UNL     1      72.352  -0.547  82.279  0.00  0.00    +0.079 A 
ATOM     13  C   UNL     1      73.199  -1.639  82.107  0.00  0.00    +0.049 A 
ATOM     14  S   UNL     1      73.832  -1.656  80.502  0.00  0.00    -0.075 S 
ATOM     15  C   UNL     1      72.959  -0.215  80.178  0.00  0.00    +0.157 A 
ATOM     16  N   UNL     1      72.222   0.250  81.143  0.00  0.00    -0.247 NA
ATOM     17  O   UNL     1      74.479  -5.243  85.173  0.00  0.00    -0.268 OA
ATOM     18  C   UNL     1      73.440  -2.533  83.145  0.00  0.00    +0.028 A 
ENDBRANCH   5   6
BRANCH   4   3
ATOM      1  C   UNL     1      76.865  -8.882  81.779  0.00  0.00    +0.030 A 
ATOM      2  C   UNL     1      76.459  -7.834  82.577  0.00  0.00    +0.029 A 
ATOM      3  C   UNL     1      75.934  -6.682  82.004  0.00  0.00    +0.064 A 
ATOM     19  C   UNL     1      75.820  -6.589  80.622  0.00  0.00    +0.029 A 
ATOM     20  C   UNL     1      76.224  -7.636  79.822  0.00  0.00    +0.030 A 
ATOM     21  C   UNL     1      76.747  -8.783  80.401  0.00  0.00    +0.105 A 
BRANCH  21  22
ATOM     22  S   UNL     1      77.273 -10.117  79.375  0.00  0.00    +0.056 S 
ATOM     26  O   UNL     1      77.508 -11.245  80.223  0.00  0.00    -0.153 OA
ATOM     27  O   UNL     1      78.342  -9.624  78.561  0.00  0.00    -0.153 OA
BRANCH  22  23
ATOM     23  N   UNL     1      76.073 -10.508  78.395  0.00  0.00    -0.203 NA
ATOM     24  H   UNL     1      75.761  -9.642  77.849  0.00  0.00    +0.144 HD
ATOM     25  H   UNL     1      76.402 -11.262  77.710  0.00  0.00    +0.144 HD
ENDBRANCH  22  23
ENDBRANCH  21  22
ENDBRANCH   4   3
TORSDOF 4
