REMARK  Name = 6Q3C
REMARK  0 active torsions:
REMARK  status: ('A' for Active; 'I' for Inactive)
REMARK                            x       y       z     vdW  Elec       q    Type
REMARK                         _______ _______ _______ _____ _____    ______ ____
ROOT
ATOM      1 BR   UNL     1      -0.177  -6.928 -27.046  0.00  0.00    +0.000 Br
ATOM      2  C   UNL     1       0.360  -5.428 -27.971  0.00  0.00    +0.000 A 
ATOM      3  C   UNL     1       1.389  -5.487 -28.893  0.00  0.00    +0.000 A 
ATOM      4  N   UNL     1       1.440  -4.294 -29.447  0.00  0.00    -0.100 NA
ATOM      5  N   UNL     1       0.540  -3.440 -28.884  0.00  0.00    -0.400 NA
ATOM      6  C   UNL     1      -0.161  -4.138 -28.004  0.00  0.00    +0.100 A 
ENDROOT
TORSDOF 0
