REMARK  Name = 4cnh_ligand
REMARK  9 active torsions:
REMARK  status: ('A' for Active; 'I' for Inactive)
REMARK    1  A    between atoms: C5_7  and  C20_12
REMARK    2  A    between atoms: C10_8  and  C9_17
REMARK    3  A    between atoms: C15_9  and  O17_23
REMARK    4  A    between atoms: C1_10  and  O8_24
REMARK    5  A    between atoms: C2_13  and  N7_22
REMARK    6  A    between atoms: C16_14  and  C9_17
REMARK    7  A    between atoms: C25_15  and  N21_21
REMARK    8  A    between atoms: C18_16  and  O17_23
REMARK    9  A    between atoms: C9_17  and  O8_24
REMARK                            x       y       z     vdW  Elec       q    Type
REMARK                         _______ _______ _______ _____ _____    ______ ____
ROOT
ATOM      8  C   UNL     1      43.846  -1.164 -45.437  0.00  0.00    +0.141 A 
ATOM      9  C   UNL     1      42.787  -0.271 -45.146  0.00  0.00    +0.142 A 
ATOM     13  N   UNL     1      41.697  -0.142 -45.980  0.00  0.00    -0.294 NA
ATOM     14  C   UNL     1      41.633  -0.897 -47.130  0.00  0.00    +0.065 A 
ATOM     15  C   UNL     1      42.628  -1.819 -47.520  0.00  0.00    +0.017 A 
ATOM     22  C   UNL     1      43.732  -1.926 -46.638  0.00  0.00    +0.046 A 
ENDROOT
BRANCH  15  16
ATOM     16  C   UNL     1      42.593  -2.641 -48.757  0.00  0.00    +0.110 A 
ATOM     17  N   UNL     1      41.515  -3.139 -49.484  0.00  0.00    -0.172 N 
ATOM     18  N   UNL     1      41.927  -3.842 -50.557  0.00  0.00    -0.097 NA
ATOM     19  N   UNL     1      43.244  -3.834 -50.574  0.00  0.00    -0.227 NA
ATOM     20  C   UNL     1      40.084  -3.028 -49.284  0.00  0.00    +0.248 C 
ATOM     21  C   UNL     1      43.668  -3.119 -49.504  0.00  0.00    +0.086 A 
ENDBRANCH  15  16
BRANCH   9  10
ATOM     10  N   UNL     1      42.838   0.513 -43.980  0.00  0.00    -0.324 N 
ATOM     11  H   UNL     1      43.643   0.436 -43.342  0.00  0.00    +0.174 HD
ATOM     12  H   UNL     1      42.070   1.164 -43.763  0.00  0.00    +0.174 HD
ENDBRANCH   9  10
BRANCH   8   7
ATOM      7  O   UNL     1      44.891  -1.189 -44.511  0.00  0.00    -0.302 OA
BRANCH   7   6
ATOM      6  C   UNL     1      46.069  -2.045 -44.659  0.00  0.00    +0.187 C 
ATOM     23  C   UNL     1      46.788  -2.021 -43.301  0.00  0.00    +0.057 C 
BRANCH   6   5
ATOM      1  C   UNL     1      48.231  -1.991 -47.928  0.00  0.00    +0.010 A 
ATOM      2  C   UNL     1      47.360  -2.466 -46.889  0.00  0.00    +0.091 A 
ATOM      5  C   UNL     1      47.016  -1.580 -45.794  0.00  0.00    +0.017 A 
ATOM     24  C   UNL     1      47.559  -0.253 -45.783  0.00  0.00    +0.019 A 
ATOM     25  C   UNL     1      48.413   0.183 -46.821  0.00  0.00    +0.114 A 
ATOM     26  F   UNL     1      48.908   1.428 -46.789  0.00  0.00    -0.195 F 
ATOM     27  C   UNL     1      48.750  -0.674 -47.889  0.00  0.00    +0.008 A 
BRANCH   2   3
ATOM      3  O   UNL     1      46.792  -3.739 -46.835  0.00  0.00    -0.327 OA
ATOM      4  C   UNL     1      47.066  -4.689 -47.872  0.00  0.00    +0.229 C 
ENDBRANCH   2   3
ENDBRANCH   6   5
ENDBRANCH   7   6
ENDBRANCH   8   7
TORSDOF 6
