REMARK  Name = 3X0
REMARK  1 active torsions:
REMARK  status: ('A' for Active; 'I' for Inactive)
REMARK    1  A    between atoms: C3_3  and  N_14
REMARK                            x       y       z     vdW  Elec       q    Type
REMARK                         _______ _______ _______ _____ _____    ______ ____
ROOT
ATOM      1  C   UNL     1     -13.871  -7.563   1.308  0.00  0.00    +0.079 C 
ATOM      2  C   UNL     1     -13.114  -7.448   2.641  0.00  0.00    +0.103 C 
ATOM      3  N   UNL     1     -11.798  -6.818   2.523  0.00  0.00    -0.285 N 
ATOM     11  C   UNL     1     -11.063  -6.892   1.320  0.00  0.00    +0.068 A 
ATOM     12  C   UNL     1      -9.844  -7.556   1.369  0.00  0.00    +0.016 A 
ATOM     13  C   UNL     1      -9.010  -7.621   0.274  0.00  0.00    +0.001 A 
ATOM     14  C   UNL     1      -9.385  -7.037  -0.921  0.00  0.00    +0.002 A 
ATOM     15  C   UNL     1     -10.618  -6.402  -1.000  0.00  0.00    +0.019 A 
ATOM     16  C   UNL     1     -11.496  -6.317   0.130  0.00  0.00    +0.080 A 
ATOM     17  N   UNL     1     -12.758  -5.714   0.024  0.00  0.00    -0.280 N 
ATOM     18  C   UNL     1     -13.140  -4.568  -0.581  0.00  0.00    +0.147 A 
ATOM     19  N   UNL     1     -14.448  -4.439  -0.406  0.00  0.00    -0.133 NA
ATOM     20  N   UNL     1     -14.857  -5.507   0.349  0.00  0.00    -0.133 NA
ATOM     21  C   UNL     1     -12.254  -3.647  -1.377  0.00  0.00    +0.074 C 
ATOM     22  C   UNL     1     -15.271  -8.088   1.575  0.00  0.00    +0.010 C 
ATOM     23  C   UNL     1     -13.807  -6.261   0.621  0.00  0.00    +0.148 A 
ENDROOT
BRANCH   3   4
ATOM      4  C   UNL     1     -11.167  -6.479   3.727  0.00  0.00    +0.052 A 
ATOM      5  C   UNL     1     -11.669  -6.827   4.981  0.00  0.00    +0.016 A 
ATOM      6  C   UNL     1     -11.068  -6.475   6.161  0.00  0.00    +0.013 A 
ATOM      7  C   UNL     1      -9.890  -5.721   6.124  0.00  0.00    +0.058 A 
ATOM      8 CL   UNL     1      -9.165  -5.248   7.601  0.00  0.00    -0.082 Cl
ATOM      9  C   UNL     1      -9.364  -5.338   4.890  0.00  0.00    +0.013 A 
ATOM     10  C   UNL     1      -9.970  -5.760   3.696  0.00  0.00    +0.016 A 
ENDBRANCH   3   4
TORSDOF 1
