REMARK  Name = 3SD0
REMARK  5 active torsions:
REMARK  status: ('A' for Active; 'I' for Inactive)
REMARK    1  A    between atoms: C_3  and  C_8
REMARK    2  A    between atoms: C_4  and  C_13
REMARK    3  A    between atoms: N_15  and  C_26
REMARK    4  A    between atoms: C_21  and  O_29
REMARK    5  A    between atoms: O_29  and  C_30
REMARK                            x       y       z     vdW  Elec       q    Type
REMARK                         _______ _______ _______ _____ _____    ______ ____
ROOT
ATOM      1  N   UNL     1      14.223 -45.840 -13.798  0.00  0.00    -0.248 N 
ATOM      2  H   UNL     1      14.178 -46.789 -13.306  0.00  0.00    +0.158 HD
ATOM      3  C   UNL     1      13.822 -44.643 -13.320  0.00  0.00    +0.252 C 
ATOM      4  O   UNL     1      13.309 -44.475 -12.175  0.00  0.00    -0.270 OA
ATOM      5  C   UNL     1      13.985 -43.540 -14.254  0.00  0.00    +0.059 C 
ATOM     18  C   UNL     1      14.653 -44.143 -15.420  0.00  0.00    +0.060 C 
ATOM     30  C   UNL     1      14.696 -45.573 -15.040  0.00  0.00    +0.252 C 
ATOM     31  O   UNL     1      15.179 -46.477 -15.802  0.00  0.00    -0.270 OA
ENDROOT
BRANCH   5   6
ATOM      6  C   UNL     1      13.670 -42.157 -13.889  0.00  0.00    +0.013 A 
ATOM      7  C   UNL     1      13.376 -41.076 -14.797  0.00  0.00    +0.011 A 
ATOM      8  C   UNL     1      13.245 -41.027 -16.164  0.00  0.00    +0.050 A 
ATOM      9  C   UNL     1      12.934 -39.802 -16.697  0.00  0.00    +0.137 A 
ATOM     10  F   UNL     1      12.799 -39.635 -18.018  0.00  0.00    -0.204 F 
ATOM     11  C   UNL     1      12.756 -38.722 -15.849  0.00  0.00    +0.051 A 
ATOM     12  I   UNL     1      12.306 -36.865 -16.697  0.00  0.00    -0.041 I 
ATOM     13  C   UNL     1      12.891 -38.800 -14.465  0.00  0.00    +0.043 A 
ATOM     14  C   UNL     1      13.205 -40.013 -13.928  0.00  0.00    +0.051 A 
ATOM     15  N   UNL     1      13.391 -40.407 -12.661  0.00  0.00    -0.349 N 
ATOM     16  C   UNL     1      13.290 -39.526 -11.484  0.00  0.00    +0.149 C 
ATOM     17  C   UNL     1      13.689 -41.714 -12.595  0.00  0.00    +0.095 A 
ENDBRANCH   5   6
BRANCH  18  19
ATOM     19  C   UNL     1      15.078 -43.638 -16.770  0.00  0.00    +0.033 A 
ATOM     20  C   UNL     1      14.697 -44.388 -17.882  0.00  0.00    +0.205 A 
ATOM     21  O   UNL     1      15.268 -43.623 -19.013  0.00  0.00    -0.459 OA
ATOM     22  C   UNL     1      15.922 -42.497 -18.502  0.00  0.00    +0.177 A 
ATOM     23  C   UNL     1      16.566 -41.557 -19.278  0.00  0.00    +0.163 A 
ATOM     26  C   UNL     1      17.178 -40.477 -18.641  0.00  0.00    +0.049 A 
ATOM     27  C   UNL     1      17.123 -40.379 -17.247  0.00  0.00    +0.004 A 
ATOM     28  C   UNL     1      16.472 -41.352 -16.475  0.00  0.00    +0.012 A 
ATOM     29  C   UNL     1      15.870 -42.419 -17.131  0.00  0.00    +0.032 A 
BRANCH  23  24
ATOM     24  O   UNL     1      16.556 -41.753 -20.640  0.00  0.00    -0.491 OA
ATOM     25  C   UNL     1      16.892 -40.733 -21.578  0.00  0.00    +0.277 C 
ENDBRANCH  23  24
ENDBRANCH  18  19
TORSDOF 3
