REMARK  Name = 4n6y_ligand
REMARK  4 active torsions:
REMARK  status: ('A' for Active; 'I' for Inactive)
REMARK    1  A    between atoms: C5_2  and  C3_3
REMARK    2  A    between atoms: C1_9  and  C_11
REMARK    3  A    between atoms: N2_12  and  C6_13
REMARK    4  A    between atoms: C11_14  and  N3_19
REMARK                            x       y       z     vdW  Elec       q    Type
REMARK                         _______ _______ _______ _____ _____    ______ ____
ROOT
ATOM      1  O   UNL     1      22.658  34.543   2.372  0.00  0.00    -0.383 OA
ATOM      2  C   UNL     1      22.624  34.709   1.150  0.00  0.00    +0.219 C 
ATOM      3  N   UNL     1      22.291  33.763   0.244  0.00  0.00    -0.240 N 
ATOM      4  H   UNL     1      22.631  33.927  -0.682  0.00  0.00    +0.221 HD
ENDROOT
BRANCH   2  17
ATOM     17  C   UNL     1      23.008  36.007   0.548  0.00  0.00    +0.072 A 
ATOM     18  C   UNL     1      23.225  37.134   1.271  0.00  0.00    +0.093 A 
ATOM     19  S   UNL     1      23.582  38.452   0.231  0.00  0.00    +0.025 S 
ATOM     20  C   UNL     1      23.431  37.374  -1.118  0.00  0.00    +0.210 A 
ATOM     21  N   UNL     1      23.611  37.741  -2.438  0.00  0.00    -0.194 N 
ATOM     22  H   UNL     1      23.582  37.004  -3.114  0.00  0.00    +0.241 HD
ATOM     23  C   UNL     1      23.825  39.009  -2.922  0.00  0.00    +0.212 C 
ATOM     24  C   UNL     1      24.012  39.098  -4.405  0.00  0.00    +0.176 C 
ATOM     25  O   UNL     1      23.863  40.002  -2.204  0.00  0.00    -0.380 OA
ATOM     26  N   UNL     1      23.131  36.135  -0.821  0.00  0.00    -0.305 NA
ENDBRANCH   2  17
BRANCH   3   5
ATOM      5  C   UNL     1      21.534  32.572   0.402  0.00  0.00    +0.085 A 
ATOM      6  C   UNL     1      21.212  32.124   1.688  0.00  0.00    -0.006 A 
ATOM      7  C   UNL     1      20.733  30.841   1.878  0.00  0.00    -0.042 A 
ATOM      8  C   UNL     1      20.546  30.002   0.809  0.00  0.00    -0.044 A 
ATOM      9  C   UNL     1      20.812  30.438  -0.476  0.00  0.00    -0.010 A 
ATOM     10  C   UNL     1      21.270  31.732  -0.702  0.00  0.00    +0.064 A 
BRANCH  10  11
ATOM     11  N   UNL     1      21.390  32.185  -2.050  0.00  0.00    -0.314 N 
ATOM     12  C   UNL     1      22.518  31.670  -2.832  0.00  0.00    +0.126 C 
ATOM     13  C   UNL     1      22.276  31.749  -4.320  0.00  0.00    +0.023 C 
ATOM     14  C   UNL     1      21.857  33.144  -4.737  0.00  0.00    +0.004 C 
ATOM     15  C   UNL     1      20.656  33.596  -3.946  0.00  0.00    +0.023 C 
ATOM     16  C   UNL     1      20.933  33.516  -2.466  0.00  0.00    +0.126 C 
ENDBRANCH  10  11
ENDBRANCH   3   5
TORSDOF 3
