REMARK  Name = ABMX
REMARK  3 active torsions:
REMARK  status: ('A' for Active; 'I' for Inactive)
REMARK    1  A    between atoms: C2_2  and  N2_9
REMARK    2  A    between atoms: C5_5  and  C6_6
REMARK    3  A    between atoms: C6_6  and  O6_14
REMARK                            x       y       z     vdW  Elec       q    Type
REMARK                         _______ _______ _______ _____ _____    ______ ____
ROOT
ATOM      1  C   UNL     1      31.283  11.565  -7.881  0.00  0.00    +0.292 C 
ATOM      2  O   UNL     1      30.754  12.587  -7.097  0.00  0.00    -0.188 OA
ATOM      3  O   UNL     1      31.810  10.541  -7.114  0.00  0.00    -0.324 OA
ATOM      4  C   UNL     1      31.012   9.862  -6.245  0.00  0.00    +0.180 C 
ATOM      8  C   UNL     1      29.931   9.209  -7.086  0.00  0.00    +0.214 C 
ATOM      9  O   UNL     1      28.955   8.688  -6.253  0.00  0.00    -0.218 OA
ATOM     10  C   UNL     1      29.219  10.215  -7.984  0.00  0.00    +0.209 C 
ATOM     11  O   UNL     1      28.272   9.622  -8.821  0.00  0.00    -0.218 OA
ATOM     12  C   UNL     1      30.249  10.976  -8.788  0.00  0.00    +0.187 C 
ENDROOT
BRANCH  12  13
ATOM     13  N   UNL     1      30.960  10.084  -9.654  0.00  0.00    -0.199 NA
ATOM     14  C   UNL     1      30.776   9.959 -11.072  0.00  0.00    +0.242 C 
ATOM     15  O   UNL     1      29.946  10.628 -11.668  0.00  0.00    -0.273 OA
ATOM     16  C   UNL     1      31.625   8.971 -11.811  0.00  0.00    +0.096 C 
ENDBRANCH  12  13
BRANCH   4   5
ATOM      5  C   UNL     1      31.809   8.930  -5.294  0.00  0.00    +0.179 C 
BRANCH   5   6
ATOM      6  O   UNL     1      32.883   8.225  -5.884  0.00  0.00    -0.328 OA
ATOM      7  P   UNL     1      34.173   7.674  -5.076  0.00  0.00    +0.149 P 
ENDBRANCH   5   6
ENDBRANCH   4   5
TORSDOF 3
