REMARK  Name = 1pxo_ligand
REMARK  4 active torsions:
REMARK  status: ('A' for Active; 'I' for Inactive)
REMARK    1  A    between atoms: C1A_4  and  C6A_5
REMARK    2  A    between atoms: C5A_7  and  C4_8
REMARK    3  A    between atoms: N7_14  and  C1B_15
REMARK    4  A    between atoms: C3B_18  and  N7B_19
REMARK                            x       y       z     vdW  Elec       q    Type
REMARK                         _______ _______ _______ _____ _____    ______ ____
ROOT
ATOM      9  C   UNL     1      13.279  -8.808  13.466  0.00  0.00    +0.208 A 
ATOM     10  N   UNL     1      12.373  -9.371  12.601  0.00  0.00    -0.185 NA
ATOM     11  C   UNL     1      11.505 -10.294  13.007  0.00  0.00    +0.269 A 
ATOM     12  N   UNL     1      11.525 -10.635  14.279  0.00  0.00    -0.177 NA
ATOM     13  C   UNL     1      12.430 -10.138  15.176  0.00  0.00    +0.197 A 
ATOM     14  N   UNL     1      10.578 -10.888  12.281  0.00  0.00    -0.227 N 
ATOM     15  H   UNL     1      10.223 -11.814  12.559  0.00  0.00    +0.223 HD
ATOM     25  C   UNL     1      13.358  -9.211  14.790  0.00  0.00    +0.188 A 
ENDROOT
BRANCH   9   8
ATOM      1  N   UNL     1      14.702  -5.255  10.131  0.00  0.00    -0.232 N 
ATOM      2  H   UNL     1      14.061  -5.573   9.390  0.00  0.00    +0.238 HD
ATOM      3  H   UNL     1      15.299  -4.430   9.976  0.00  0.00    +0.238 HD
ATOM      4  C   UNL     1      14.766  -5.990  11.431  0.00  0.00    +0.329 A 
ATOM      5  N   UNL     1      15.496  -5.869  12.565  0.00  0.00    -0.108 NA
ATOM      6  C   UNL     1      15.196  -6.804  13.535  0.00  0.00    +0.217 A 
ATOM      7  C   UNL     1      15.897  -6.811  14.862  0.00  0.00    +0.263 C 
ATOM      8  C   UNL     1      14.189  -7.770  12.913  0.00  0.00    +0.278 A 
ATOM     26  S   UNL     1      13.699  -7.276  11.407  0.00  0.00    +0.214 S 
ENDBRANCH   9   8
BRANCH  14  16
ATOM     16  C   UNL     1      10.052 -10.235  11.080  0.00  0.00    +0.078 A 
ATOM     17  C   UNL     1       8.805 -10.635  10.523  0.00  0.00    +0.029 A 
ATOM     18  C   UNL     1       8.269  -9.955   9.383  0.00  0.00    -0.001 A 
ATOM     19  C   UNL     1       8.960  -8.891   8.753  0.00  0.00    +0.022 A 
ATOM     20  C   UNL     1      10.184  -8.461   9.283  0.00  0.00    +0.076 A 
ATOM     24  C   UNL     1      10.710  -9.140  10.432  0.00  0.00    +0.059 A 
BRANCH  20  21
ATOM     21  N   UNL     1      10.780  -7.383   8.614  0.00  0.00    -0.219 N 
ATOM     22  O   UNL     1      10.445  -6.207   8.878  0.00  0.00    -0.489 OA
ATOM     23  O   UNL     1      11.657  -7.599   7.748  0.00  0.00    -0.489 OA
ENDBRANCH  20  21
ENDBRANCH  14  16
TORSDOF 3
