REMARK  Name = 6E0R
REMARK  6 active torsions:
REMARK  status: ('A' for Active; 'I' for Inactive)
REMARK    1  A    between atoms: C5_1  and  N4_28
REMARK    2  A    between atoms: C24_8  and  S21_32
REMARK    3  A    between atoms: C28_9  and  C2_14
REMARK    4  A    between atoms: C12_11  and  N11_23
REMARK    5  A    between atoms: C2_14  and  N4_28
REMARK    6  A    between atoms: C9_21  and  S21_32
REMARK                            x       y       z     vdW  Elec       q    Type
REMARK                         _______ _______ _______ _____ _____    ______ ____
ROOT
ATOM      1  C   UNL     1      20.016  -9.320  -6.387  0.00  0.00    +0.430 A 
ATOM     12  N   UNL     1      20.779 -10.043  -7.183  0.00  0.00    -0.730 NA
ATOM     13  C   UNL     1      22.050  -9.736  -7.405  0.00  0.00    +0.550 A 
ATOM     14  N   UNL     1      23.029 -10.317  -8.176  0.00  0.00    -0.400 N 
ATOM     21  C   UNL     1      24.191  -9.605  -8.065  0.00  0.00    +0.000 A 
ATOM     22  C   UNL     1      24.022  -8.564  -7.237  0.00  0.00    +0.010 A 
ATOM     30  C   UNL     1      22.623  -8.611  -6.780  0.00  0.00    +0.050 A 
ATOM     31  C   UNL     1      21.825  -7.834  -5.927  0.00  0.00    -0.130 A 
ATOM     32  C   UNL     1      20.517  -8.194  -5.734  0.00  0.00    -0.130 A 
ENDROOT
BRANCH  14  15
ATOM     15  C   UNL     1      22.877 -11.463  -8.969  0.00  0.00    +0.250 A 
ATOM     16  N   UNL     1      23.740 -11.890  -9.859  0.00  0.00    -0.400 NA
ATOM     17  N   UNL     1      23.231 -13.059 -10.435  0.00  0.00    -0.100 NA
ATOM     18  C   UNL     1      22.039 -13.325  -9.860  0.00  0.00    +0.100 A 
ATOM     19  C   UNL     1      21.141 -14.491 -10.184  0.00  0.00    -0.150 C 
ATOM     20  C   UNL     1      21.792 -12.355  -8.951  0.00  0.00    -0.150 A 
ENDBRANCH  14  15
BRANCH  22  23
ATOM     23  S   UNL     1      25.292  -7.406  -6.837  0.00  0.00    +1.240 S 
ATOM     24  O   UNL     1      26.035  -7.303  -8.040  0.00  0.00    -0.650 OA
ATOM     25  O   UNL     1      25.895  -7.928  -5.661  0.00  0.00    -0.650 OA
BRANCH  23  26
ATOM     26  C   UNL     1      24.471  -5.827  -6.496  0.00  0.00    -0.050 C 
ATOM     27  C   UNL     1      25.376  -4.597  -6.684  0.00  0.00    -0.100 C 
ATOM     28  O   UNL     1      24.792  -4.126  -5.453  0.00  0.00    +0.000 OA
ATOM     29  C   UNL     1      24.471  -5.457  -5.002  0.00  0.00    -0.100 C 
ENDBRANCH  23  26
ENDBRANCH  22  23
BRANCH   1   2
ATOM      2  N   UNL     1      18.692  -9.703  -6.198  0.00  0.00    -0.400 NA
BRANCH   2   3
ATOM      3  C   UNL     1      18.257 -11.041  -6.610  0.00  0.00    +0.050 C 
ATOM      4  C   UNL     1      17.024 -11.449  -5.802  0.00  0.00    -0.150 C 
BRANCH   3   5
ATOM      5  C   UNL     1      17.929 -11.019  -8.080  0.00  0.00    +0.380 A 
ATOM      6  N   UNL     1      17.721  -9.860  -8.669  0.00  0.00    -0.760 NA
ATOM      7  C   UNL     1      17.433  -9.774  -9.951  0.00  0.00    +0.250 A 
ATOM      8  C   UNL     1      17.341 -10.915 -10.727  0.00  0.00    +0.300 A 
ATOM      9  F   UNL     1      17.045 -10.819 -12.040  0.00  0.00    -0.300 F 
ATOM     10  C   UNL     1      17.554 -12.156 -10.141  0.00  0.00    -0.130 A 
ATOM     11  C   UNL     1      17.855 -12.204  -8.789  0.00  0.00    -0.130 A 
ENDBRANCH   3   5
ENDBRANCH   2   3
ENDBRANCH   1   2
TORSDOF 6
