REMARK  Name = 4RZW
REMARK  10 active torsions:
REMARK  status: ('A' for Active; 'I' for Inactive)
REMARK    1  A    between atoms: C_5  and  N_12
REMARK    2  A    between atoms: N_8  and  C_33
REMARK    3  A    between atoms: N_12  and  C_13
REMARK    4  A    between atoms: C_14  and  C_19
REMARK    5  A    between atoms: C_17  and  N_20
REMARK    6  A    between atoms: C_21  and  C_22
REMARK    7  A    between atoms: C_25  and  C_29
REMARK    8  A    between atoms: C_29  and  C_30
REMARK    9  A    between atoms: C_29  and  C_31
REMARK   10  A    between atoms: C_29  and  C_32
REMARK                            x       y       z     vdW  Elec       q    Type
REMARK                         _______ _______ _______ _____ _____    ______ ____
ROOT
ATOM     13  C   UNL     1      15.188 119.054  77.718  0.00  0.00    +0.036 A 
ATOM     14  C   UNL     1      14.711 119.341  78.999  0.00  0.00    +0.047 A 
ATOM     15  C   UNL     1      13.936 120.488  79.208  0.00  0.00    +0.035 A 
ATOM     31  C   UNL     1      13.634 121.329  78.160  0.00  0.00    +0.024 A 
ATOM     32  C   UNL     1      14.103 121.052  76.900  0.00  0.00    +0.007 A 
ATOM     33  C   UNL     1      14.878 119.923  76.669  0.00  0.00    -0.029 A 
ATOM     34  C   UNL     1      15.358 119.668  75.233  0.00  0.00    +0.045 C 
ENDROOT
BRANCH  15  16
ATOM     16  N   UNL     1      13.370 120.877  80.516  0.00  0.00    -0.281 N 
ATOM     17  H   UNL     1      12.415 120.395  80.535  0.00  0.00    +0.155 HD
ATOM     18  C   UNL     1      13.886 120.694  81.890  0.00  0.00    +0.248 C 
ATOM     19  O   UNL     1      14.911 120.117  82.131  0.00  0.00    -0.270 OA
BRANCH  18  20
ATOM     20  C   UNL     1      12.895 121.277  82.972  0.00  0.00    +0.037 A 
ATOM     21  C   UNL     1      11.538 121.501  83.177  0.00  0.00    +0.013 A 
ATOM     22  C   UNL     1      11.075 122.068  84.354  0.00  0.00    +0.001 A 
ATOM     23  C   UNL     1      11.977 122.429  85.355  0.00  0.00    +0.005 A 
ATOM     24  C   UNL     1      13.343 122.238  85.179  0.00  0.00    -0.027 A 
ATOM     30  C   UNL     1      13.812 121.656  83.973  0.00  0.00    +0.018 A 
BRANCH  24  25
ATOM     25  C   UNL     1      14.246 122.683  86.379  0.00  0.00    +0.077 C 
ATOM     26  C   UNL     1      13.394 122.378  87.653  0.00  0.00    +0.032 C 
ATOM     27  C   UNL     1      14.537 124.222  86.298  0.00  0.00    +0.032 C 
BRANCH  25  28
ATOM     28  C   UNL     1      15.599 121.949  86.476  0.00  0.00    +0.073 C 
ATOM     29  N   UNL     1      16.612 121.429  86.562  0.00  0.00    -0.196 NA
ENDBRANCH  25  28
ENDBRANCH  24  25
ENDBRANCH  18  20
ENDBRANCH  15  16
BRANCH  13  11
ATOM     11  N   UNL     1      16.008 117.841  77.462  0.00  0.00    -0.314 N 
ATOM     12  H   UNL     1      16.003 117.267  78.365  0.00  0.00    +0.152 HD
BRANCH  11  10
ATOM      1  C   UNL     1      19.277 116.664  76.300  0.00  0.00    +0.059 A 
ATOM      2  C   UNL     1      19.888 115.310  75.939  0.00  0.00    +0.249 C 
ATOM      3  O   UNL     1      19.219 114.349  76.021  0.00  0.00    -0.270 OA
ATOM      4  N   UNL     1      21.251 115.215  75.505  0.00  0.00    -0.285 N 
ATOM      5  C   UNL     1      21.870 113.938  75.150  0.00  0.00    +0.134 C 
ATOM      6  C   UNL     1      22.051 116.420  75.405  0.00  0.00    +0.213 C 
ATOM      7  N   UNL     1      21.460 117.718  75.757  0.00  0.00    -0.328 N 
ATOM      8  H   UNL     1      22.058 118.124  76.546  0.00  0.00    +0.148 HD
ATOM      9  C   UNL     1      17.937 116.743  76.723  0.00  0.00    +0.038 A 
ATOM     10  C   UNL     1      17.419 117.984  77.055  0.00  0.00    +0.032 A 
ATOM     35  C   UNL     1      18.184 119.145  76.960  0.00  0.00    +0.025 A 
ATOM     36  C   UNL     1      19.502 119.055  76.537  0.00  0.00    +0.025 A 
ATOM     37  C   UNL     1      20.039 117.801  76.209  0.00  0.00    +0.041 A 
ENDBRANCH  11  10
ENDBRANCH  13  11
TORSDOF 6
