REMARK  Name = 5T18
REMARK  9 active torsions:
REMARK  status: ('A' for Active; 'I' for Inactive)
REMARK    1  A    between atoms: C_2  and  C_15
REMARK    2  A    between atoms: C_3  and  C_18
REMARK    3  A    between atoms: C_7  and  N_27
REMARK    4  A    between atoms: C_8  and  C_41
REMARK    5  A    between atoms: C_9  and  C_23
REMARK    6  A    between atoms: C_23  and  O_26
REMARK    7  A    between atoms: C_23  and  C_39
REMARK    8  A    between atoms: C_23  and  C_40
REMARK    9  A    between atoms: N_29  and  C_42
REMARK                            x       y       z     vdW  Elec       q    Type
REMARK                         _______ _______ _______ _____ _____    ______ ____
ROOT
ATOM      1  C   UNL     1       6.447 -14.366  -4.450  0.00  0.00    +0.038 C 
ATOM      2  C   UNL     1       5.150 -14.097  -3.763  0.00  0.00    -0.018 A 
ATOM      3  C   UNL     1       3.979 -14.741  -4.149  0.00  0.00    +0.021 A 
ATOM      4  C   UNL     1       3.869 -15.788  -5.182  0.00  0.00    +0.059 C 
ATOM      5  C   UNL     1       5.258 -16.272  -5.608  0.00  0.00    +0.026 C 
ATOM     11  N   UNL     1       2.876 -14.267  -3.402  0.00  0.00    -0.357 N 
ATOM     12  H   UNL     1       1.912 -14.566  -3.502  0.00  0.00    +0.166 HD
ATOM     13  C   UNL     1       3.374 -13.332  -2.505  0.00  0.00    +0.060 A 
ATOM     14  C   UNL     1       2.672 -12.603  -1.548  0.00  0.00    +0.063 A 
ATOM     15  C   UNL     1       3.420 -11.706  -0.755  0.00  0.00    +0.054 A 
ATOM     16  C   UNL     1       4.784 -11.628  -0.950  0.00  0.00    +0.133 A 
ATOM     17  F   UNL     1       5.433 -10.734  -0.154  0.00  0.00    -0.205 F 
ATOM     18  C   UNL     1       5.521 -12.364  -1.908  0.00  0.00    +0.027 A 
ATOM     45  C   UNL     1       4.808 -13.224  -2.732  0.00  0.00    +0.014 A 
ATOM     46  C   UNL     1       6.166 -15.055  -5.766  0.00  0.00    +0.011 C 
ENDROOT
BRANCH  18  19
ATOM     19  C   UNL     1       6.992 -12.199  -1.947  0.00  0.00    -0.010 A 
ATOM     20  C   UNL     1       7.586 -11.183  -2.664  0.00  0.00    -0.019 A 
ATOM     21  C   UNL     1       6.753 -10.132  -3.353  0.00  0.00    +0.046 C 
ATOM     22  C   UNL     1       8.994 -11.133  -2.704  0.00  0.00    +0.058 A 
ATOM     37  C   UNL     1       9.789 -12.089  -2.037  0.00  0.00    +0.026 A 
ATOM     38  C   UNL     1       9.172 -13.085  -1.343  0.00  0.00    +0.003 A 
ATOM     39  C   UNL     1       7.753 -13.152  -1.262  0.00  0.00    +0.009 A 
BRANCH  22  23
ATOM     23  N   UNL     1       9.676 -10.095  -3.430  0.00  0.00    -0.228 N 
ATOM     24  C   UNL     1       9.885 -10.302  -4.775  0.00  0.00    +0.269 C 
ATOM     25  O   UNL     1       9.532 -11.353  -5.296  0.00  0.00    -0.267 OA
ATOM     26  C   UNL     1      10.552  -9.200  -5.476  0.00  0.00    +0.066 A 
ATOM     27  C   UNL     1      10.964  -8.033  -4.758  0.00  0.00    +0.094 A 
ATOM     28  C   UNL     1      11.588  -6.999  -5.527  0.00  0.00    +0.148 A 
ATOM     29  F   UNL     1      11.923  -5.852  -4.985  0.00  0.00    -0.203 F 
ATOM     30  C   UNL     1      11.799  -7.168  -6.886  0.00  0.00    +0.040 A 
ATOM     31  C   UNL     1      11.392  -8.305  -7.534  0.00  0.00    +0.004 A 
ATOM     32  N   UNL     1      10.808  -7.979  -3.380  0.00  0.00    -0.293 N 
ATOM     33  C   UNL     1      11.452  -6.937  -2.572  0.00  0.00    +0.154 C 
ATOM     34  C   UNL     1      10.772  -9.346  -6.847  0.00  0.00    +0.015 A 
ATOM     35  C   UNL     1      10.094  -8.990  -2.671  0.00  0.00    +0.337 C 
ATOM     36  O   UNL     1       9.903  -8.890  -1.487  0.00  0.00    -0.246 OA
ENDBRANCH  22  23
ENDBRANCH  18  19
BRANCH  14  40
ATOM     40  C   UNL     1       1.209 -12.752  -1.418  0.00  0.00    +0.244 C 
ATOM     41  N   UNL     1       0.473 -11.943  -0.666  0.00  0.00    -0.325 N 
ATOM     42  H   UNL     1       0.841 -11.183  -0.105  0.00  0.00    +0.145 HD
ATOM     43  H   UNL     1      -0.534 -12.060  -0.639  0.00  0.00    +0.145 HD
ATOM     44  O   UNL     1       0.655 -13.762  -1.916  0.00  0.00    -0.270 OA
ENDBRANCH  14  40
BRANCH   5   6
ATOM      6  C   UNL     1       5.236 -17.184  -6.851  0.00  0.00    +0.064 C 
ATOM      7  C   UNL     1       4.935 -16.419  -8.131  0.00  0.00    +0.041 C 
ATOM      8  C   UNL     1       4.262 -18.341  -6.682  0.00  0.00    +0.041 C 
BRANCH   6   9
ATOM      9  O   UNL     1       6.565 -17.766  -6.964  0.00  0.00    -0.389 OA
ATOM     10  H   UNL     1       6.584 -18.299  -7.801  0.00  0.00    +0.210 HD
ENDBRANCH   6   9
ENDBRANCH   5   6
TORSDOF 5
