REMARK  Name = 6S14
REMARK  2 active torsions:
REMARK  status: ('A' for Active; 'I' for Inactive)
REMARK    1  A    between atoms: C1_1  and  N_13
REMARK    2  A    between atoms: C7_7  and  C8_8
REMARK                            x       y       z     vdW  Elec       q    Type
REMARK                         _______ _______ _______ _____ _____    ______ ____
ROOT
ATOM      2  N   UNL     1      15.385 -56.248  38.247  0.00  0.00    -0.250 N 
ATOM      3  C   UNL     1      14.118 -56.686  38.820  0.00  0.00    -0.050 C 
ATOM      4  C   UNL     1      15.956 -55.076  38.635  0.00  0.00    +0.810 A 
ATOM      5  N   UNL     1      17.037 -54.647  37.944  0.00  0.00    -0.760 NA
ATOM      6  C   UNL     1      17.568 -53.473  38.320  0.00  0.00    +0.380 A 
ATOM     16  C   UNL     1      17.071 -52.750  39.398  0.00  0.00    -0.130 A 
ATOM     17  C   UNL     1      15.974 -53.282  40.048  0.00  0.00    +0.250 A 
ATOM     18  N   UNL     1      15.376 -54.425  39.680  0.00  0.00    -0.760 NA
ENDROOT
BRANCH   6   7
ATOM      7  C   UNL     1      18.684 -52.959  37.517  0.00  0.00    +0.000 C 
ATOM      8  C   UNL     1      19.238 -53.506  36.341  0.00  0.00    +0.100 C 
ATOM      9  N   UNL     1      20.253 -52.648  36.027  0.00  0.00    -0.100 N 
ATOM     10  N   UNL     1      21.075 -52.787  34.948  0.00  0.00    -0.050 NA
ATOM     11  C   UNL     1      20.856 -53.872  34.189  0.00  0.00    -0.150 C 
ATOM     12  C   UNL     1      19.838 -54.810  34.414  0.00  0.00    -0.100 C 
ATOM     13  N   UNL     1      20.400 -51.609  36.863  0.00  0.00    -0.350 NA
ATOM     14  C   UNL     1      19.000 -54.621  35.491  0.00  0.00    -0.100 C 
ATOM     15  C   UNL     1      19.443 -51.801  37.761  0.00  0.00    +0.000 C 
ENDBRANCH   6   7
BRANCH   2   1
ATOM      1  C   UNL     1      15.911 -56.941  37.038  0.00  0.00    +0.050 C 
ATOM     19  C   UNL     1      17.231 -57.635  37.026  0.00  0.00    -0.100 C 
ATOM     20  C   UNL     1      15.963 -58.430  37.024  0.00  0.00    -0.100 C 
ENDBRANCH   2   1
TORSDOF 2
