REMARK  Name = 1GII
REMARK  2 active torsions:
REMARK  status: ('A' for Active; 'I' for Inactive)
REMARK    1  A    between atoms: C_6  and  N_10
REMARK    2  A    between atoms: N_16  and  C_18
REMARK                            x       y       z     vdW  Elec       q    Type
REMARK                         _______ _______ _______ _____ _____    ______ ____
ROOT
ATOM      1  C   UNL     1       5.438   9.967  27.643  0.00  0.00    +0.006 A 
ATOM      2  C   UNL     1       4.590   9.184  26.849  0.00  0.00    +0.040 A 
ATOM     15  C   UNL     1       3.254   9.021  27.265  0.00  0.00    +0.024 A 
ATOM     16  C   UNL     1       2.785   9.625  28.441  0.00  0.00    +0.003 A 
ATOM     17  C   UNL     1       3.628  10.394  29.238  0.00  0.00    +0.013 A 
ATOM     18  C   UNL     1       4.961  10.561  28.832  0.00  0.00    +0.044 A 
ATOM     19  C   UNL     1       6.039  11.297  29.467  0.00  0.00    +0.248 C 
ATOM     20  O   UNL     1       5.952  11.896  30.487  0.00  0.00    -0.270 OA
ATOM     21  N   UNL     1       7.119  11.159  28.681  0.00  0.00    -0.290 N 
ATOM     22  C   UNL     1       8.142  12.216  28.546  0.00  0.00    +0.109 C 
ATOM     23  C   UNL     1       8.342  12.267  27.016  0.00  0.00    +0.021 C 
ATOM     24  C   UNL     1       7.223  11.398  26.398  0.00  0.00    +0.029 C 
ATOM     25  C   UNL     1       6.894  10.347  27.483  0.00  0.00    +0.109 C 
ENDROOT
BRANCH   2   3
ATOM      3  N   UNL     1       5.129   8.593  25.667  0.00  0.00    -0.269 N 
ATOM      4  H   UNL     1       6.139   8.873  25.454  0.00  0.00    +0.156 HD
ATOM      5  C   UNL     1       4.600   7.766  24.797  0.00  0.00    +0.309 C 
ATOM      6  O   UNL     1       3.468   7.331  24.974  0.00  0.00    -0.252 OA
ATOM      7  N   UNL     1       5.323   7.472  23.731  0.00  0.00    -0.254 N 
ATOM      8  H   UNL     1       4.827   6.819  23.044  0.00  0.00    +0.158 HD
BRANCH   7   9
ATOM      9  C   UNL     1       6.628   7.850  23.314  0.00  0.00    +0.126 A 
ATOM     10  N   UNL     1       7.278   8.661  24.133  0.00  0.00    -0.240 NA
ATOM     11  C   UNL     1       8.514   9.098  23.876  0.00  0.00    +0.113 A 
ATOM     12  C   UNL     1       9.192   8.715  22.709  0.00  0.00    +0.020 A 
ATOM     13  C   UNL     1       8.532   7.862  21.820  0.00  0.00    +0.005 A 
ATOM     14  C   UNL     1       7.231   7.416  22.118  0.00  0.00    +0.044 A 
ENDBRANCH   7   9
ENDBRANCH   2   3
TORSDOF 2
