REMARK  Name = 5AP7
REMARK  13 active torsions:
REMARK  status: ('A' for Active; 'I' for Inactive)
REMARK    1  A    between atoms: C_2  and  O_5
REMARK    2  A    between atoms: O_5  and  C_6
REMARK    3  A    between atoms: C_8  and  C_9
REMARK    4  A    between atoms: N_10  and  C_11
REMARK    5  A    between atoms: N_14  and  C_15
REMARK    6  A    between atoms: C_21  and  N_22
REMARK    7  A    between atoms: N_27  and  C_28
REMARK    8  A    between atoms: C_36  and  C_37
REMARK    9  A    between atoms: N_39  and  C_40
REMARK   10  A    between atoms: C_41  and  C_42
REMARK   11  A    between atoms: C_42  and  C_43
REMARK   12  A    between atoms: C_47  and  C_48
REMARK   13  A    between atoms: C_48  and  C_49
REMARK                            x       y       z     vdW  Elec       q    Type
REMARK                         _______ _______ _______ _____ _____    ______ ____
ROOT
ATOM     21  N   UNL     1      -1.162  -9.509 -17.132  0.00  0.00    -0.281 N 
ATOM     22  H   UNL     1      -1.340  -8.559 -17.592  0.00  0.00    +0.155 HD
ATOM     23  C   UNL     1      -0.590 -10.424 -17.967  0.00  0.00    +0.220 A 
ATOM     24  N   UNL     1      -0.039 -11.460 -17.321  0.00  0.00    -0.212 NA
ATOM     25  C   UNL     1       0.551 -12.398 -18.075  0.00  0.00    +0.097 A 
ATOM     26  C   UNL     1       1.223 -13.497 -17.409  0.00  0.00    +0.091 A 
ATOM     27  C   UNL     1       1.861 -14.508 -18.095  0.00  0.00    +0.012 A 
ATOM     28  C   UNL     1       2.306 -15.442 -17.064  0.00  0.00    +0.151 A 
ATOM     43  N   UNL     1       1.956 -14.992 -15.859  0.00  0.00    -0.166 NA
ATOM     44  C   UNL     1       2.009 -14.508 -19.595  0.00  0.00    +0.044 C 
ATOM     45  C   UNL     1       1.135 -13.477 -20.320  0.00  0.00    +0.043 C 
ATOM     46  N   UNL     1       1.309 -13.816 -16.035  0.00  0.00    -0.264 N 
ATOM     47  C   UNL     1       0.841 -13.100 -14.855  0.00  0.00    +0.173 C 
ATOM     48  C   UNL     1       0.570 -12.361 -19.474  0.00  0.00    -0.001 A 
ATOM     49  C   UNL     1      -0.035 -11.245 -20.014  0.00  0.00    +0.120 A 
ATOM     50  N   UNL     1      -0.614 -10.265 -19.299  0.00  0.00    -0.222 NA
ENDROOT
BRANCH  21  20
ATOM      4  C   UNL     1      -1.911  -8.371 -15.087  0.00  0.00    +0.152 A 
ATOM      5  C   UNL     1      -2.292  -8.400 -13.750  0.00  0.00    +0.060 A 
ATOM      6  C   UNL     1      -2.382  -9.618 -13.079  0.00  0.00    +0.040 A 
ATOM     18  C   UNL     1      -2.144 -10.802 -13.775  0.00  0.00    +0.015 A 
ATOM     19  C   UNL     1      -1.735 -10.783 -15.097  0.00  0.00    +0.028 A 
ATOM     20  C   UNL     1      -1.569  -9.570 -15.766  0.00  0.00    +0.076 A 
BRANCH   6   7
ATOM      7  C   UNL     1      -2.604  -9.675 -11.597  0.00  0.00    +0.244 C 
ATOM      8  N   UNL     1      -3.316  -8.680 -11.046  0.00  0.00    -0.308 N 
ATOM      9  H   UNL     1      -3.660  -7.883 -11.672  0.00  0.00    +0.149 HD
ATOM     17  O   UNL     1      -2.137 -10.592 -10.922  0.00  0.00    -0.270 OA
BRANCH   8  10
ATOM     10  C   UNL     1      -3.638  -8.647  -9.619  0.00  0.00    +0.076 C 
ATOM     11  C   UNL     1      -2.492  -8.051  -8.811  0.00  0.00    +0.037 C 
ATOM     12  C   UNL     1      -2.880  -7.942  -7.329  0.00  0.00    +0.086 C 
ATOM     13  N   UNL     1      -4.094  -7.145  -7.159  0.00  0.00    -0.305 NA
ATOM     14  C   UNL     1      -4.405  -6.975  -5.739  0.00  0.00    +0.105 C 
ATOM     15  C   UNL     1      -5.208  -7.786  -7.858  0.00  0.00    +0.086 C 
ATOM     16  C   UNL     1      -4.932  -7.884  -9.364  0.00  0.00    +0.037 C 
ENDBRANCH   8  10
ENDBRANCH   6   7
BRANCH   4   3
ATOM      3  O   UNL     1      -1.959  -7.157 -15.764  0.00  0.00    -0.404 OA
BRANCH   3   2
ATOM      1  F   UNL     1      -0.322  -5.990 -16.530  0.00  0.00    -0.133 F 
ATOM      2  C   UNL     1      -1.119  -6.158 -15.506  0.00  0.00    +0.575 C 
ATOM     51  F   UNL     1      -1.850  -5.080 -15.407  0.00  0.00    -0.133 F 
ATOM     52  F   UNL     1      -0.380  -6.220 -14.422  0.00  0.00    -0.133 F 
ENDBRANCH   3   2
ENDBRANCH   4   3
ENDBRANCH  21  20
BRANCH  28  29
ATOM     29  C   UNL     1       2.988 -16.759 -17.210  0.00  0.00    +0.269 C 
ATOM     30  O   UNL     1       3.409 -17.159 -18.296  0.00  0.00    -0.268 OA
ATOM     31  N   UNL     1       3.064 -17.473 -16.056  0.00  0.00    -0.280 N 
ATOM     32  H   UNL     1       2.653 -17.029 -15.173  0.00  0.00    +0.155 HD
BRANCH  31  33
ATOM     33  C   UNL     1       3.648 -18.767 -15.930  0.00  0.00    +0.040 A 
ATOM     34  C   UNL     1       2.954 -19.930 -16.304  0.00  0.00    -0.026 A 
ATOM     37  C   UNL     1       3.663 -21.129 -16.312  0.00  0.00    +0.005 A 
ATOM     38  C   UNL     1       5.000 -21.168 -15.947  0.00  0.00    +0.001 A 
ATOM     39  C   UNL     1       5.650 -20.013 -15.537  0.00  0.00    +0.005 A 
ATOM     40  C   UNL     1       4.978 -18.792 -15.487  0.00  0.00    -0.026 A 
BRANCH  34  35
ATOM     35  C   UNL     1       1.470 -19.965 -16.617  0.00  0.00    +0.033 C 
ATOM     36  C   UNL     1       0.550 -19.846 -15.422  0.00  0.00    +0.009 C 
ENDBRANCH  34  35
BRANCH  40  41
ATOM     41  C   UNL     1       5.623 -17.616 -14.774  0.00  0.00    +0.033 C 
ATOM     42  C   UNL     1       6.440 -16.702 -15.616  0.00  0.00    +0.009 C 
ENDBRANCH  40  41
ENDBRANCH  31  33
ENDBRANCH  28  29
TORSDOF 9
