REMARK  Name = 2NRY
REMARK  5 active torsions:
REMARK  status: ('A' for Active; 'I' for Inactive)
REMARK    1  A    between atoms: C_4  and  N_34
REMARK    2  A    between atoms: C_5  and  O_32
REMARK    3  A    between atoms: C_6  and  C_7
REMARK    4  A    between atoms: O_32  and  C_33
REMARK    5  A    between atoms: N_34  and  C_35
REMARK                            x       y       z     vdW  Elec       q    Type
REMARK                         _______ _______ _______ _____ _____    ______ ____
ROOT
ATOM      1  O   UNL     1      75.368  29.036  69.723  0.00  0.00    -0.328 OA
ATOM      2  C   UNL     1      74.190  29.533  70.337  0.00  0.00    +0.174 C 
ATOM      3  N   UNL     1      73.541  28.540  71.216  0.00  0.00    -0.307 N 
ATOM      4  C   UNL     1      72.807  28.687  72.394  0.00  0.00    +0.053 A 
ATOM      5  C   UNL     1      72.443  29.825  73.165  0.00  0.00    +0.026 A 
ATOM      6  C   UNL     1      71.678  29.657  74.335  0.00  0.00    +0.002 A 
ATOM      7  C   UNL     1      71.268  28.381  74.752  0.00  0.00    +0.001 A 
ATOM      8  C   UNL     1      71.614  27.220  73.985  0.00  0.00    +0.010 A 
ATOM      9  C   UNL     1      72.354  27.401  72.798  0.00  0.00    +0.008 A 
ATOM     10  C   UNL     1      72.867  26.453  71.816  0.00  0.00    +0.015 A 
ATOM     11  C   UNL     1      72.747  25.065  71.675  0.00  0.00    -0.008 A 
ATOM     12  C   UNL     1      72.058  23.991  72.496  0.00  0.00    +0.141 C 
ATOM     13  N   UNL     1      72.300  22.723  71.779  0.00  0.00    -0.307 N 
ATOM     14  H   UNL     1      71.920  21.766  72.070  0.00  0.00    +0.149 HD
ATOM     15  C   UNL     1      73.064  22.956  70.714  0.00  0.00    +0.245 C 
ATOM     16  O   UNL     1      73.475  22.113  69.935  0.00  0.00    -0.270 OA
ATOM     17  C   UNL     1      73.339  24.413  70.587  0.00  0.00    +0.052 A 
ATOM     18  C   UNL     1      74.049  25.169  69.622  0.00  0.00    +0.022 A 
ATOM     19  C   UNL     1      74.728  24.812  68.384  0.00  0.00    +0.009 A 
ATOM     20  C   UNL     1      74.907  23.551  67.748  0.00  0.00    +0.010 A 
ATOM     21  C   UNL     1      75.677  23.588  66.581  0.00  0.00    +0.001 A 
ATOM     22  C   UNL     1      76.203  24.769  66.055  0.00  0.00    +0.002 A 
ATOM     23  C   UNL     1      76.009  25.990  66.685  0.00  0.00    +0.026 A 
ATOM     24  C   UNL     1      75.256  26.001  67.859  0.00  0.00    +0.052 A 
ATOM     25  N   UNL     1      74.875  27.048  68.686  0.00  0.00    -0.312 N 
ATOM     26  C   UNL     1      74.160  26.571  69.745  0.00  0.00    +0.077 A 
ATOM     27  C   UNL     1      73.566  27.199  70.855  0.00  0.00    +0.077 A 
ATOM     28  C   UNL     1      74.636  30.789  71.137  0.00  0.00    +0.069 C 
ATOM     29  C   UNL     1      73.141  30.068  69.330  0.00  0.00    +0.187 C 
ATOM     32  C   UNL     1      73.951  30.552  68.122  0.00  0.00    +0.091 C 
ATOM     36  C   UNL     1      74.577  29.295  67.412  0.00  0.00    +0.076 C 
ATOM     37  C   UNL     1      75.292  28.453  68.444  0.00  0.00    +0.224 C 
ENDROOT
BRANCH  32  33
ATOM     33  N   UNL     1      73.072  31.328  67.194  0.00  0.00    -0.314 NA
ATOM     34  H   UNL     1      72.239  30.715  66.919  0.00  0.00    +0.122 HD
ATOM     35  C   UNL     1      72.552  32.598  67.812  0.00  0.00    +0.101 C 
ENDBRANCH  32  33
BRANCH  29  30
ATOM     30  O   UNL     1      72.236  29.072  68.770  0.00  0.00    -0.374 OA
ATOM     31  C   UNL     1      70.944  28.978  69.382  0.00  0.00    +0.194 C 
ENDBRANCH  29  30
TORSDOF 2
