REMARK  Name = 5HVU
REMARK  8 active torsions:
REMARK  status: ('A' for Active; 'I' for Inactive)
REMARK    1  A    between atoms: C_2  and  O_16
REMARK    2  A    between atoms: C_4  and  O_16
REMARK    3  A    between atoms: C_4  and  C_17
REMARK    4  A    between atoms: C_5  and  C_17
REMARK    5  A    between atoms: C_5  and  C_18
REMARK    6  A    between atoms: C_8  and  C_15
REMARK    7  A    between atoms: C_8  and  C_22
REMARK    8  A    between atoms: C_11  and  C_26
REMARK                            x       y       z     vdW  Elec       q    Type
REMARK                         _______ _______ _______ _____ _____    ______ ____
ROOT
ATOM      1  C   UNL     1      49.997 104.848  34.416  0.00  0.00    +0.049 A 
ATOM      2  C   UNL     1      50.183 103.530  34.045  0.00  0.00    -0.035 A 
ATOM      3  C   UNL     1      49.327 102.551  34.514  0.00  0.00    +0.004 A 
ATOM      4  C   UNL     1      48.283 102.888  35.356  0.00  0.00    +0.004 A 
ATOM      5  C   UNL     1      48.092 104.203  35.730  0.00  0.00    +0.045 A 
ATOM     22  C   UNL     1      48.950 105.188  35.260  0.00  0.00    +0.121 A 
ENDROOT
BRANCH   2   6
ATOM      6  C   UNL     1      51.320 103.159  33.128  0.00  0.00    +0.131 C 
BRANCH   6   7
ATOM      7  C   UNL     1      50.884 103.324  31.695  0.00  0.00    +0.223 C 
ATOM      8  N   UNL     1      51.273 102.419  30.771  0.00  0.00    -0.264 N 
ATOM      9  H   UNL     1      51.887 101.596  31.071  0.00  0.00    +0.157 HD
ATOM     10  C   UNL     1      50.893 102.534  29.438  0.00  0.00    +0.165 A 
ATOM     11  S   UNL     1      50.532 104.046  28.610  0.00  0.00    -0.060 S 
ATOM     12  C   UNL     1      50.197 103.155  27.128  0.00  0.00    +0.076 A 
ATOM     13  C   UNL     1      50.378 101.844  27.374  0.00  0.00    +0.080 A 
ATOM     20  N   UNL     1      50.748 101.546  28.612  0.00  0.00    -0.225 NA
ATOM     21  O   UNL     1      50.187 104.269  31.385  0.00  0.00    -0.275 OA
BRANCH  13  14
ATOM     14  C   UNL     1      50.179 100.807  26.335  0.00  0.00    +0.004 A 
ATOM     15  C   UNL     1      50.452  99.461  26.601  0.00  0.00    +0.029 A 
ATOM     16  C   UNL     1      50.253  98.528  25.605  0.00  0.00    +0.111 A 
ATOM     17  N   UNL     1      49.810  98.891  24.416  0.00  0.00    -0.263 NA
ATOM     18  C   UNL     1      49.540 100.150  24.124  0.00  0.00    +0.111 A 
ATOM     19  C   UNL     1      49.712 101.147  25.061  0.00  0.00    +0.029 A 
ENDBRANCH  13  14
ENDBRANCH   6   7
ENDBRANCH   2   6
BRANCH  22  23
ATOM     23  O   UNL     1      48.765 106.484  35.627  0.00  0.00    -0.492 OA
BRANCH  23  24
ATOM     24  C   UNL     1      49.793 107.088  36.414  0.00  0.00    +0.229 C 
BRANCH  24  25
ATOM     25  C   UNL     1      50.064 108.504  35.899  0.00  0.00    +0.041 C 
BRANCH  25  26
ATOM     26  C   UNL     1      49.486 109.523  36.883  0.00  0.00    +0.007 C 
BRANCH  26  27
ATOM     27  C   UNL     1      50.537 110.593  37.185  0.00  0.00    -0.001 C 
ATOM     28  C   UNL     1      50.590 110.847  38.694  0.00  0.00    +0.054 C 
ATOM     29  C   UNL     1      51.599 111.960  38.983  0.00  0.00    +0.129 C 
ATOM     30  N   UNL     1      51.197 113.183  38.277  0.00  0.00    +0.227 N 
ATOM     31  H   UNL     1      50.216 113.465  38.598  0.00  0.00    +0.201 HD
ATOM     32  H   UNL     1      51.888 113.965  38.512  0.00  0.00    +0.201 HD
ATOM     33  C   UNL     1      51.184 112.977  36.823  0.00  0.00    +0.129 C 
ATOM     34  C   UNL     1      50.163 111.894  36.469  0.00  0.00    +0.054 C 
ENDBRANCH  26  27
ENDBRANCH  25  26
ENDBRANCH  24  25
ENDBRANCH  23  24
ENDBRANCH  22  23
TORSDOF 8
