REMARK  Name = 73B
REMARK  4 active torsions:
REMARK  status: ('A' for Active; 'I' for Inactive)
REMARK    1  A    between atoms: C4_4  and  N1_5
REMARK    2  A    between atoms: N1_5  and  C5_6
REMARK    3  A    between atoms: C13_15  and  C19_23
REMARK    4  A    between atoms: C22_26  and  C25_29
REMARK                            x       y       z     vdW  Elec       q    Type
REMARK                         _______ _______ _______ _____ _____    ______ ____
ROOT
ATOM      1  C   UNL     1      22.092   7.853 -10.790  0.00  0.00    +0.022 C 
ATOM      2  C   UNL     1      21.922   9.277 -10.252  0.00  0.00    +0.082 C 
ATOM      3  N   UNL     1      20.771   9.314  -9.311  0.00  0.00    -0.261 N 
ATOM      4  C   UNL     1      21.037   8.950  -8.044  0.00  0.00    +0.230 C 
ATOM      5  C   UNL     1      20.005   9.138  -6.968  0.00  0.00    +0.095 C 
ATOM      6  O   UNL     1      22.140   8.486  -7.765  0.00  0.00    -0.275 OA
ATOM      7  C   UNL     1      19.515   9.745  -9.812  0.00  0.00    +0.051 A 
ATOM      8  C   UNL     1      18.304   9.142  -9.470  0.00  0.00    +0.015 A 
ATOM      9  C   UNL     1      17.114   9.617 -10.016  0.00  0.00    +0.001 A 
ATOM     10  C   UNL     1      17.121  10.676 -10.925  0.00  0.00    -0.000 A 
ATOM     11  C   UNL     1      18.353  11.265 -11.254  0.00  0.00    -0.001 A 
ATOM     21  C   UNL     1      19.565  10.817 -10.699  0.00  0.00    +0.011 A 
ATOM     22  C   UNL     1      20.885  11.433 -11.092  0.00  0.00    +0.117 C 
ATOM     31  C   UNL     1      21.822  10.285 -11.416  0.00  0.00    +0.046 C 
ENDROOT
BRANCH  10  12
ATOM     12  C   UNL     1      15.818  11.150 -11.522  0.00  0.00    -0.000 A 
ATOM     13  C   UNL     1      14.588  10.837 -10.928  0.00  0.00    +0.000 A 
ATOM     14  C   UNL     1      13.392  11.332 -11.450  0.00  0.00    +0.007 A 
ATOM     15  C   UNL     1      13.396  12.134 -12.586  0.00  0.00    +0.080 A 
ATOM     19  C   UNL     1      14.609  12.434 -13.202  0.00  0.00    +0.007 A 
ATOM     20  C   UNL     1      15.807  11.942 -12.681  0.00  0.00    +0.000 A 
BRANCH  15  16
ATOM     16  C   UNL     1      12.091  12.651 -13.134  0.00  0.00    +0.388 C 
ATOM     17  O   UNL     1      11.024  12.333 -12.633  0.00  0.00    -0.241 OA
ATOM     18  O   UNL     1      12.185  13.451 -14.186  0.00  0.00    -0.241 OA
ENDBRANCH  15  16
ENDBRANCH  10  12
BRANCH  22  23
ATOM     23  N   UNL     1      20.739  12.330 -12.223  0.00  0.00    -0.235 NA
BRANCH  23  24
ATOM     24  C   UNL     1      20.324  13.654 -12.124  0.00  0.00    +0.066 A 
ATOM     25  C   UNL     1      19.968  14.253 -10.913  0.00  0.00    +0.017 A 
ATOM     26  C   UNL     1      19.548  15.582 -10.893  0.00  0.00    +0.013 A 
ATOM     27  C   UNL     1      19.485  16.292 -12.085  0.00  0.00    +0.058 A 
ATOM     28 CL   UNL     1      18.962  17.951 -12.098  0.00  0.00    -0.082 Cl
ATOM     29  C   UNL     1      19.836  15.701 -13.287  0.00  0.00    +0.013 A 
ATOM     30  C   UNL     1      20.256  14.379 -13.309  0.00  0.00    +0.017 A 
ENDBRANCH  23  24
ENDBRANCH  22  23
TORSDOF 4
