REMARK  Name = 2gu8_ligand
REMARK  8 active torsions:
REMARK  status: ('A' for Active; 'I' for Inactive)
REMARK    1  A    between atoms: C22_2  and  C18_3
REMARK    2  A    between atoms: C15_7  and  C3_8
REMARK    3  A    between atoms: N9_12  and  C10_13
REMARK    4  A    between atoms: N24_16  and  C25_17
REMARK    5  A    between atoms: C25_17  and  C27_18
REMARK    6  A    between atoms: C25_17  and  C28_20
REMARK    7  A    between atoms: C27_18  and  N43_19
REMARK    8  A    between atoms: C28_20  and  C30_21
REMARK                            x       y       z     vdW  Elec       q    Type
REMARK                         _______ _______ _______ _____ _____    ______ ____
ROOT
ATOM      1  O   UNL     1      -9.690  -9.261   0.684  0.00  0.00    -0.386 OA
ATOM      2  C   UNL     1     -10.094  -9.522   1.832  0.00  0.00    +0.216 C 
ATOM      3  N   UNL     1     -11.364  -9.586   2.201  0.00  0.00    -0.276 N 
ATOM      4  H   UNL     1     -11.614 -10.049   3.051  0.00  0.00    +0.185 HD
ENDROOT
BRANCH   2  20
ATOM     20  C   UNL     1      -9.142  -9.794   2.927  0.00  0.00    +0.110 A 
ATOM     21  C   UNL     1      -9.243 -10.001   4.289  0.00  0.00    +0.013 A 
ATOM     22  C   UNL     1      -8.015 -10.254   4.915  0.00  0.00    +0.008 A 
ATOM     23  C   UNL     1      -6.935 -10.268   4.033  0.00  0.00    +0.064 A 
ATOM     33  S   UNL     1      -7.476  -9.917   2.366  0.00  0.00    -0.012 S 
BRANCH  23  24
ATOM     24  C   UNL     1      -5.456 -10.373   4.213  0.00  0.00    +0.061 A 
ATOM     25  N   UNL     1      -4.667 -10.294   3.115  0.00  0.00    -0.256 NA
ATOM     26  C   UNL     1      -3.313 -10.306   3.299  0.00  0.00    +0.184 A 
ATOM     27  N   UNL     1      -2.759 -10.404   4.518  0.00  0.00    -0.260 NA
ATOM     28  C   UNL     1      -3.487 -10.471   5.637  0.00  0.00    +0.097 A 
ATOM     29  N   UNL     1      -2.567 -10.239   2.232  0.00  0.00    -0.293 N 
ATOM     30  H   UNL     1      -1.551 -10.404   2.273  0.00  0.00    +0.186 HD
ATOM     31  C   UNL     1      -3.234  -9.922   0.988  0.00  0.00    +0.166 C 
ATOM     32  C   UNL     1      -4.885 -10.444   5.491  0.00  0.00    +0.045 A 
ENDBRANCH  23  24
ENDBRANCH   2  20
BRANCH   3   5
ATOM      5  C   UNL     1     -12.392  -8.987   1.375  0.00  0.00    +0.153 C 
BRANCH   5   6
ATOM      6  C   UNL     1     -13.592  -9.862   1.699  0.00  0.00    +0.100 C 
BRANCH   6   7
ATOM      7  C   UNL     1     -13.475 -11.196   0.951  0.00  0.00    -0.026 A 
ATOM      8  C   UNL     1     -12.966 -12.343   1.553  0.00  0.00    +0.042 A 
ATOM      9 CL   UNL     1     -12.406 -12.346   3.240  0.00  0.00    -0.077 Cl
ATOM     10  C   UNL     1     -12.885 -13.567   0.922  0.00  0.00    +0.021 A 
ATOM     11  C   UNL     1     -13.307 -13.645  -0.365  0.00  0.00    +0.034 A 
ATOM     12 CL   UNL     1     -13.168 -15.231  -1.141  0.00  0.00    -0.077 Cl
ATOM     13  C   UNL     1     -13.790 -12.540  -1.033  0.00  0.00    +0.006 A 
ATOM     14  C   UNL     1     -13.875 -11.306  -0.371  0.00  0.00    -0.003 A 
ENDBRANCH   6   7
ENDBRANCH   5   6
BRANCH   5  15
ATOM     15  C   UNL     1     -12.597  -7.523   1.750  0.00  0.00    +0.158 C 
BRANCH  15  16
ATOM     16  N   UNL     1     -13.369  -6.797   0.753  0.00  0.00    +0.220 N 
ATOM     17  H   UNL     1     -12.887  -6.827  -0.132  0.00  0.00    +0.200 HD
ATOM     18  H   UNL     1     -14.277  -7.223   0.656  0.00  0.00    +0.200 HD
ATOM     19  H   UNL     1     -13.477  -5.838   1.045  0.00  0.00    +0.200 HD
ENDBRANCH  15  16
ENDBRANCH   5  15
ENDBRANCH   3   5
TORSDOF 7
