REMARK  Name = 4TYJ
REMARK  9 active torsions:
REMARK  status: ('A' for Active; 'I' for Inactive)
REMARK    1  A    between atoms: N_2  and  C_12
REMARK    2  A    between atoms: C_3  and  C_4
REMARK    3  A    between atoms: C_5  and  C_26
REMARK    4  A    between atoms: C_9  and  N_29
REMARK    5  A    between atoms: C_11  and  C_33
REMARK    6  A    between atoms: C_12  and  C_31
REMARK    7  A    between atoms: C_23  and  C_24
REMARK    8  A    between atoms: C_25  and  C_27
REMARK    9  A    between atoms: C_38  and  N_39
REMARK                            x       y       z     vdW  Elec       q    Type
REMARK                         _______ _______ _______ _____ _____    ______ ____
ROOT
ATOM      9  C   UNL     1      25.223  -9.361   8.995  0.00  0.00    +0.248 C 
ATOM     10  N   UNL     1      26.204  -8.413   9.043  0.00  0.00    -0.281 N 
ATOM     11  H   UNL     1      26.789  -8.370   9.938  0.00  0.00    +0.155 HD
ATOM     30  O   UNL     1      24.531  -9.464   7.999  0.00  0.00    -0.270 OA
ENDROOT
BRANCH   9   8
ATOM      6  C   UNL     1      23.417 -11.759  11.350  0.00  0.00    +0.029 A 
ATOM      7  C   UNL     1      23.721 -10.927  10.257  0.00  0.00    +0.030 A 
ATOM      8  C   UNL     1      24.952 -10.258  10.164  0.00  0.00    +0.038 A 
ATOM     31  C   UNL     1      25.870 -10.447  11.219  0.00  0.00    +0.013 A 
ATOM     32  C   UNL     1      25.570 -11.267  12.297  0.00  0.00    +0.005 A 
ATOM     33  C   UNL     1      24.357 -11.928  12.383  0.00  0.00    -0.035 A 
ATOM     34  C   UNL     1      24.076 -12.810  13.572  0.00  0.00    +0.045 C 
BRANCH   6   5
ATOM      4  C   UNL     1      21.084 -12.933  11.347  0.00  0.00    -0.040 C 
ATOM      5  C   UNL     1      22.130 -12.393  11.328  0.00  0.00    -0.059 C 
BRANCH   4   3
ATOM      1  N   UNL     1      17.660 -13.825  11.822  0.00  0.00    -0.233 NA
ATOM      2  C   UNL     1      18.702 -13.033  12.015  0.00  0.00    +0.150 A 
ATOM      3  C   UNL     1      19.787 -13.541  11.328  0.00  0.00    +0.136 A 
ATOM     35  N   UNL     1      19.353 -14.688  10.708  0.00  0.00    -0.205 N 
ATOM     36  N   UNL     1      19.992 -15.624   9.882  0.00  0.00    -0.172 NA
ATOM     37  C   UNL     1      19.322 -16.649   9.411  0.00  0.00    +0.133 A 
ATOM     38  C   UNL     1      17.962 -16.824   9.728  0.00  0.00    +0.025 A 
ATOM     39  C   UNL     1      17.306 -15.934  10.533  0.00  0.00    +0.050 A 
ATOM     40  C   UNL     1      18.020 -14.830  11.039  0.00  0.00    +0.155 A 
ENDBRANCH   4   3
ENDBRANCH   6   5
ENDBRANCH   9   8
BRANCH  10  12
ATOM     12  C   UNL     1      26.522  -7.486   8.031  0.00  0.00    +0.034 A 
ATOM     13  C   UNL     1      25.534  -6.693   7.449  0.00  0.00    +0.036 A 
ATOM     14  C   UNL     1      25.846  -5.740   6.475  0.00  0.00    +0.061 A 
ATOM     19  C   UNL     1      27.189  -5.554   6.074  0.00  0.00    -0.022 A 
ATOM     28  C   UNL     1      28.172  -6.334   6.688  0.00  0.00    +0.007 A 
ATOM     29  C   UNL     1      27.847  -7.277   7.653  0.00  0.00    +0.024 A 
BRANCH  14  15
ATOM     15  C   UNL     1      24.706  -4.941   5.872  0.00  0.00    +0.418 C 
ATOM     16  F   UNL     1      24.571  -5.325   4.542  0.00  0.00    -0.166 F 
ATOM     17  F   UNL     1      24.988  -3.573   5.925  0.00  0.00    -0.166 F 
ATOM     18  F   UNL     1      23.488  -5.178   6.522  0.00  0.00    -0.166 F 
ENDBRANCH  14  15
BRANCH  19  20
ATOM     20  C   UNL     1      27.595  -4.524   5.022  0.00  0.00    +0.120 C 
BRANCH  20  21
ATOM     21  N   UNL     1      28.887  -4.775   4.357  0.00  0.00    -0.296 NA
ATOM     22  C   UNL     1      28.778  -5.849   3.356  0.00  0.00    +0.100 C 
ATOM     23  C   UNL     1      30.153  -6.107   2.729  0.00  0.00    +0.099 C 
ATOM     24  N   UNL     1      30.607  -4.868   2.071  0.00  0.00    -0.303 NA
ATOM     25  C   UNL     1      31.848  -5.082   1.316  0.00  0.00    +0.105 C 
ATOM     26  C   UNL     1      30.762  -3.789   3.058  0.00  0.00    +0.099 C 
ATOM     27  C   UNL     1      29.421  -3.534   3.756  0.00  0.00    +0.100 C 
ENDBRANCH  20  21
ENDBRANCH  19  20
ENDBRANCH  10  12
TORSDOF 7
