REMARK  Name = 5N9S
REMARK  10 active torsions:
REMARK  status: ('A' for Active; 'I' for Inactive)
REMARK    1  A    between atoms: C_3  and  C_25
REMARK    2  A    between atoms: C_5  and  N_33
REMARK    3  A    between atoms: C_8  and  S_37
REMARK    4  A    between atoms: C_9  and  O_34
REMARK    5  A    between atoms: C_16  and  C_17
REMARK    6  A    between atoms: C_17  and  C_18
REMARK    7  A    between atoms: C_17  and  C_19
REMARK    8  A    between atoms: N_21  and  C_22
REMARK    9  A    between atoms: O_34  and  C_35
REMARK   10  A    between atoms: S_37  and  C_38
REMARK                            x       y       z     vdW  Elec       q    Type
REMARK                         _______ _______ _______ _____ _____    ______ ____
ROOT
ATOM      1  C   UNL     1      36.271  43.667  37.041  0.00  0.00    +0.129 A 
ATOM      2  N   UNL     1      35.570  44.792  37.385  0.00  0.00    -0.310 N 
ATOM      3  H   UNL     1      35.188  45.557  36.742  0.00  0.00    +0.170 HD
ATOM      4  C   UNL     1      35.475  44.705  38.737  0.00  0.00    +0.223 A 
ATOM      5  N   UNL     1      34.783  45.680  39.400  0.00  0.00    -0.210 NA
ATOM     18  N   UNL     1      36.038  43.604  39.302  0.00  0.00    -0.261 N 
ATOM     19  H   UNL     1      36.074  43.293  40.325  0.00  0.00    +0.190 HD
ATOM     20  C   UNL     1      36.685  43.118  35.850  0.00  0.00    +0.024 C 
ATOM     21  C   UNL     1      37.393  41.928  35.872  0.00  0.00    +0.068 C 
ATOM     22  C   UNL     1      37.641  41.263  37.068  0.00  0.00    -0.018 C 
ATOM     42  C   UNL     1      37.170  41.833  38.244  0.00  0.00    +0.117 C 
ATOM     43  N   UNL     1      36.543  43.014  38.184  0.00  0.00    -0.243 N 
ENDROOT
BRANCH   5   6
ATOM      6  C   UNL     1      34.514  45.743  40.732  0.00  0.00    +0.109 A 
ATOM      7  C   UNL     1      34.271  47.111  41.266  0.00  0.00    +0.147 A 
ATOM      8  C   UNL     1      34.063  47.269  42.623  0.00  0.00    +0.074 A 
ATOM      9  C   UNL     1      34.111  46.159  43.480  0.00  0.00    +0.091 A 
ATOM     14  C   UNL     1      34.375  44.858  42.993  0.00  0.00    +0.029 A 
ATOM     17  C   UNL     1      34.542  44.667  41.627  0.00  0.00    +0.033 A 
BRANCH   9  10
ATOM     10  S   UNL     1      33.908  46.454  45.051  0.00  0.00    -0.006 S 
ATOM     11  O   UNL     1      33.483  45.312  45.828  0.00  0.00    -0.170 OA
ATOM     12  O   UNL     1      32.915  47.473  45.086  0.00  0.00    -0.170 OA
ATOM     13  C   UNL     1      35.388  46.846  45.686  0.00  0.00    +0.200 C 
ENDBRANCH   9  10
BRANCH   7  15
ATOM     15  O   UNL     1      34.225  48.135  40.356  0.00  0.00    -0.493 OA
ATOM     16  C   UNL     1      34.244  49.521  40.688  0.00  0.00    +0.277 C 
ENDBRANCH   7  15
ENDBRANCH   5   6
BRANCH  22  23
ATOM     23  C   UNL     1      38.355  39.939  37.127  0.00  0.00    -0.020 A 
ATOM     24  C   UNL     1      38.223  39.060  36.042  0.00  0.00    +0.010 A 
ATOM     25  C   UNL     1      38.847  37.797  36.017  0.00  0.00    +0.024 A 
ATOM     26  C   UNL     1      39.570  37.382  37.137  0.00  0.00    +0.033 A 
ATOM     27  C   UNL     1      39.724  38.260  38.258  0.00  0.00    +0.024 A 
ATOM     41  C   UNL     1      39.116  39.528  38.231  0.00  0.00    +0.010 A 
BRANCH  26  28
ATOM     28  N   UNL     1      40.134  36.121  36.990  0.00  0.00    -0.285 N 
ATOM     29  H   UNL     1      39.873  35.573  36.109  0.00  0.00    +0.155 HD
ATOM     30  C   UNL     1      40.973  35.527  37.846  0.00  0.00    +0.224 C 
ATOM     31  O   UNL     1      41.351  36.055  38.878  0.00  0.00    -0.275 OA
BRANCH  30  32
ATOM     32  C   UNL     1      41.481  34.124  37.489  0.00  0.00    +0.102 C 
ATOM     33  C   UNL     1      41.243  33.209  38.720  0.00  0.00    +0.022 C 
BRANCH  32  34
ATOM     34  C   UNL     1      42.891  34.250  37.040  0.00  0.00    -0.036 A 
ATOM     35  C   UNL     1      43.949  34.072  37.938  0.00  0.00    +0.007 A 
ATOM     36  C   UNL     1      45.260  34.187  37.537  0.00  0.00    +0.038 A 
ATOM     37  C   UNL     1      45.515  34.554  36.256  0.00  0.00    +0.123 A 
ATOM     38  C   UNL     1      44.484  34.734  35.314  0.00  0.00    +0.038 A 
ATOM     39  F   UNL     1      46.794  34.654  35.929  0.00  0.00    -0.205 F 
ATOM     40  C   UNL     1      43.164  34.603  35.719  0.00  0.00    +0.007 A 
ENDBRANCH  32  34
ENDBRANCH  30  32
ENDBRANCH  26  28
ENDBRANCH  22  23
TORSDOF 7
