REMARK  Name = Z24
REMARK  2 active torsions:
REMARK  status: ('A' for Active; 'I' for Inactive)
REMARK    1  A    between atoms: CAP_4  and  CAK_5
REMARK    2  A    between atoms: NAQ_9  and  CAO_10
REMARK                            x       y       z     vdW  Elec       q    Type
REMARK                         _______ _______ _______ _____ _____    ______ ____
ROOT
ATOM      1  O   UNL     1      59.041  28.468  79.253  0.00  0.00    -0.201 OA
ATOM      2  C   UNL     1      58.983  28.832  77.935  0.00  0.00    +0.229 C 
ATOM      3  C   UNL     1      57.939  29.846  77.725  0.00  0.00    +0.067 C 
ATOM      4  C   UNL     1      57.386  29.550  76.382  0.00  0.00    +0.127 C 
ATOM      5  C   UNL     1      58.234  28.436  75.881  0.00  0.00    +0.104 C 
ATOM      9  N   UNL     1      58.610  27.732  77.082  0.00  0.00    -0.281 N 
ENDROOT
BRANCH   9  10
ATOM     10  C   UNL     1      59.006  26.334  77.147  0.00  0.00    +0.077 A 
ATOM     11  C   UNL     1      58.518  25.495  78.150  0.00  0.00    +0.019 A 
ATOM     12  C   UNL     1      58.907  24.157  78.201  0.00  0.00    +0.031 A 
ATOM     13  C   UNL     1      59.781  23.646  77.252  0.00  0.00    +0.142 A 
ATOM     14  F   UNL     1      60.145  22.362  77.312  0.00  0.00    -0.204 F 
ATOM     15  C   UNL     1      60.266  24.475  76.248  0.00  0.00    +0.060 A 
ATOM     16  C   UNL     1      59.878  25.813  76.196  0.00  0.00    +0.156 A 
ATOM     17  F   UNL     1      60.348  26.584  75.224  0.00  0.00    -0.203 F 
ENDBRANCH   9  10
BRANCH   4   6
ATOM      6  C   UNL     1      57.486  30.719  75.481  0.00  0.00    +0.366 C 
ATOM      7  O   UNL     1      57.352  31.882  75.942  0.00  0.00    -0.246 OA
ATOM      8  O   UNL     1      57.699  30.546  74.251  0.00  0.00    -0.246 OA
ENDBRANCH   4   6
TORSDOF 2
