REMARK  Name = D7D
REMARK  5 active torsions:
REMARK  status: ('A' for Active; 'I' for Inactive)
REMARK    1  A    between atoms: N3_3  and  C6_6
REMARK    2  A    between atoms: N3_3  and  S_14
REMARK    3  A    between atoms: C4_4  and  N2_17
REMARK    4  A    between atoms: C8_7  and  C9_8
REMARK    5  A    between atoms: C8_7  and  S_14
REMARK                            x       y       z     vdW  Elec       q    Type
REMARK                         _______ _______ _______ _____ _____    ______ ____
ROOT
ATOM      1  C   UNL     1      12.663  16.018 -11.173  0.00  0.00    +0.371 C 
ATOM      2  N   UNL     1      11.818  15.647 -10.138  0.00  0.00    -0.034 NA
ATOM      3  C   UNL     1      10.714  14.983 -10.698  0.00  0.00    +0.232 C 
ATOM      4  C   UNL     1      10.857  14.930 -12.069  0.00  0.00    +0.049 C 
ATOM      5  N   UNL     1      13.860  16.685 -11.034  0.00  0.00    +0.016 NA
ATOM      6  C   UNL     1      14.450  16.902 -12.229  0.00  0.00    +0.472 C 
ATOM      7  N   UNL     1      14.031  16.536 -13.477  0.00  0.00    +0.010 NA
ATOM      8  C   UNL     1      12.853  15.837 -13.571  0.00  0.00    +0.321 C 
ATOM      9  N   UNL     1      12.518  15.379 -14.841  0.00  0.00    -0.193 N 
ATOM     21  C   UNL     1      13.487  15.513 -15.939  0.00  0.00    +0.253 C 
ATOM     22  C   UNL     1      12.089  15.578 -12.405  0.00  0.00    +0.243 C 
ENDROOT
BRANCH   9  10
ATOM     10  C   UNL     1      11.170  14.955 -15.142  0.00  0.00    +0.163 C 
ATOM     11  C   UNL     1      10.963  13.433 -15.439  0.00  0.00    +0.066 C 
ATOM     12  C   UNL     1       9.953  13.835 -16.546  0.00  0.00    +0.105 C 
ATOM     20  C   UNL     1      10.543  15.282 -16.529  0.00  0.00    +0.066 C 
BRANCH  12  13
ATOM     13  N   UNL     1       9.995  13.096 -17.793  0.00  0.00    -0.083 NA
BRANCH  13  14
ATOM     14  S   UNL     1       9.142  13.541 -19.122  0.00  0.00    +0.057 S 
ATOM     18  O   UNL     1       9.383  14.914 -19.370  0.00  0.00    -0.156 OA
ATOM     19  O   UNL     1       9.454  12.583 -20.122  0.00  0.00    -0.156 OA
BRANCH  14  15
ATOM     15  C   UNL     1       7.516  13.340 -18.675  0.00  0.00    +0.171 C 
BRANCH  15  16
ATOM     16  C   UNL     1       6.686  14.623 -18.830  0.00  0.00    +0.027 C 
ATOM     17  C   UNL     1       5.215  14.380 -18.551  0.00  0.00    +0.002 C 
ENDBRANCH  15  16
ENDBRANCH  14  15
ENDBRANCH  13  14
ENDBRANCH  12  13
ENDBRANCH   9  10
TORSDOF 5
