REMARK  Name = NUE
REMARK  4 active torsions:
REMARK  status: ('A' for Active; 'I' for Inactive)
REMARK    1  A    between atoms: N7_7  and  S8_8
REMARK    2  A    between atoms: S8_8  and  C10_10
REMARK    3  A    between atoms: C13_13  and  N17_17
REMARK    4  A    between atoms: N18_18  and  C19_19
REMARK                            x       y       z     vdW  Elec       q    Type
REMARK                         _______ _______ _______ _____ _____    ______ ____
ROOT
ATOM      9  C   UNL     1     -16.473   4.863  -5.046  0.00  0.00    +0.127 A 
ATOM     10  C   UNL     1     -16.900   6.071  -4.412  0.00  0.00    +0.022 A 
ATOM     11  C   UNL     1     -16.494   7.388  -4.911  0.00  0.00    +0.022 A 
ATOM     12  C   UNL     1     -15.700   7.445  -6.024  0.00  0.00    +0.103 A 
ATOM     25  C   UNL     1     -15.300   6.289  -6.673  0.00  0.00    +0.022 A 
ATOM     26  C   UNL     1     -15.672   5.023  -6.212  0.00  0.00    +0.022 A 
ENDROOT
BRANCH   9   7
ATOM      7  S   UNL     1     -16.914   3.342  -4.450  0.00  0.00    +0.094 S 
ATOM      8  O   UNL     1     -17.950   3.821  -3.500  0.00  0.00    -0.148 OA
ATOM     27  O   UNL     1     -17.240   2.623  -5.657  0.00  0.00    -0.148 OA
BRANCH   7   6
ATOM      1  C   UNL     1     -13.692   3.437  -0.327  0.00  0.00    +0.021 A 
ATOM      2  C   UNL     1     -14.925   4.047  -0.582  0.00  0.00    +0.005 A 
ATOM      3  C   UNL     1     -15.581   3.744  -1.762  0.00  0.00    +0.038 A 
ATOM      4  C   UNL     1     -14.986   2.859  -2.690  0.00  0.00    +0.172 A 
ATOM      5  N   UNL     1     -13.772   2.280  -2.421  0.00  0.00    -0.226 NA
ATOM      6  N   UNL     1     -15.577   2.554  -3.869  0.00  0.00    -0.077 NA
ATOM     28  C   UNL     1     -13.145   2.544  -1.277  0.00  0.00    +0.100 A 
ENDBRANCH   7   6
ENDBRANCH   9   7
BRANCH  12  13
ATOM     13  N   UNL     1     -15.209   8.661  -6.507  0.00  0.00    -0.148 NA
ATOM     14  N   UNL     1     -15.596   9.746  -5.969  0.00  0.00    -0.147 NA
BRANCH  14  15
ATOM     15  C   UNL     1     -15.019  10.953  -6.399  0.00  0.00    +0.119 A 
ATOM     16  C   UNL     1     -15.491  12.174  -5.883  0.00  0.00    +0.107 A 
ATOM     17  N   UNL     1     -16.509  12.136  -4.959  0.00  0.00    -0.127 NA
ATOM     18  C   UNL     1     -14.988  13.385  -6.280  0.00  0.00    +0.035 A 
ATOM     19  C   UNL     1     -15.507  14.696  -5.758  0.00  0.00    +0.036 C 
ATOM     20  C   UNL     1     -13.983  13.425  -7.204  0.00  0.00    +0.189 A 
ATOM     21  O   UNL     1     -13.425  14.566  -7.520  0.00  0.00    -0.287 OA
ATOM     22  C   UNL     1     -13.463  12.207  -7.745  0.00  0.00    +0.018 A 
ATOM     23  C   UNL     1     -12.354  12.248  -8.756  0.00  0.00    +0.034 C 
ATOM     24  C   UNL     1     -14.016  11.018  -7.415  0.00  0.00    +0.021 A 
ENDBRANCH  14  15
ENDBRANCH  12  13
TORSDOF 4
