REMARK  Name = 5UY6
REMARK  5 active torsions:
REMARK  status: ('A' for Active; 'I' for Inactive)
REMARK    1  A    between atoms: C_1  and  C_7
REMARK    2  A    between atoms: C_4  and  C_11
REMARK    3  A    between atoms: C_6  and  C_13
REMARK    4  A    between atoms: C_6  and  O_16
REMARK    5  A    between atoms: C_22  and  C_24
REMARK                            x       y       z     vdW  Elec       q    Type
REMARK                         _______ _______ _______ _____ _____    ______ ____
ROOT
ATOM      1  C   UNL     1      14.081  24.361  50.475  0.00  0.00    -0.035 A 
ATOM      2  C   UNL     1      13.395  25.565  50.689  0.00  0.00    -0.000 A 
ATOM      3  C   UNL     1      12.205  25.801  50.007  0.00  0.00    +0.010 A 
ATOM      4  C   UNL     1      11.700  24.859  49.136  0.00  0.00    +0.009 A 
ATOM      5  C   UNL     1      12.363  23.656  48.929  0.00  0.00    -0.014 A 
ATOM     30  C   UNL     1      13.559  23.421  49.596  0.00  0.00    +0.013 A 
ENDROOT
BRANCH   5   6
ATOM      6  C   UNL     1      11.810  22.677  47.977  0.00  0.00    +0.029 A 
ATOM      7  C   UNL     1      11.939  21.244  47.901  0.00  0.00    +0.048 A 
ATOM      8  C   UNL     1      12.572  20.291  48.687  0.00  0.00    +0.024 A 
ATOM      9  C   UNL     1      12.494  18.949  48.284  0.00  0.00    +0.001 A 
ATOM     16  C   UNL     1      11.792  18.636  47.105  0.00  0.00    +0.123 A 
ATOM     17  N   UNL     1      11.187  19.563  46.352  0.00  0.00    -0.220 NA
ATOM     18  C   UNL     1      11.264  20.834  46.747  0.00  0.00    +0.228 A 
ATOM     19  O   UNL     1      10.705  21.890  46.093  0.00  0.00    -0.444 OA
ATOM     20  C   UNL     1      10.997  23.034  46.811  0.00  0.00    +0.206 A 
BRANCH   9  10
ATOM     10  C   UNL     1      13.147  17.864  49.063  0.00  0.00    -0.016 A 
ATOM     11  C   UNL     1      12.751  16.540  48.898  0.00  0.00    +0.008 A 
ATOM     12  C   UNL     1      13.363  15.519  49.606  0.00  0.00    +0.001 A 
ATOM     13  C   UNL     1      14.380  15.803  50.484  0.00  0.00    +0.000 A 
ATOM     14  C   UNL     1      14.789  17.104  50.660  0.00  0.00    +0.001 A 
ATOM     15  C   UNL     1      14.184  18.128  49.950  0.00  0.00    +0.008 A 
ENDBRANCH   9  10
ENDBRANCH   5   6
BRANCH   1  25
ATOM     25  C   UNL     1      15.378  24.050  51.188  0.00  0.00    +0.020 C 
ATOM     26  C   UNL     1      16.516  23.586  50.285  0.00  0.00    +0.008 C 
ATOM     27  C   UNL     1      16.595  22.083  50.496  0.00  0.00    +0.001 C 
ATOM     28  C   UNL     1      16.307  21.898  51.913  0.00  0.00    +0.001 C 
ATOM     29  C   UNL     1      15.276  22.965  52.264  0.00  0.00    +0.008 C 
ENDBRANCH   1  25
BRANCH   2  21
ATOM     21  C   UNL     1      13.873  26.641  51.600  0.00  0.00    +0.057 C 
ATOM     22  O   UNL     1      13.823  27.817  51.291  0.00  0.00    -0.546 OA
BRANCH  21  23
ATOM     23  O   UNL     1      14.325  26.228  52.746  0.00  0.00    -0.628 OA
ATOM     24  H   UNL     1      15.171  26.449  52.839  0.00  0.00    +0.102 HD
ENDBRANCH  21  23
ENDBRANCH   2  21
TORSDOF 5
