REMARK  Name = 6MT0
REMARK  3 active torsions:
REMARK  status: ('A' for Active; 'I' for Inactive)
REMARK    1  A    between atoms: C08_8  and  C11_11
REMARK    2  A    between atoms: N18_18  and  C27_27
REMARK    3  A    between atoms: N20_20  and  C21_21
REMARK                            x       y       z     vdW  Elec       q    Type
REMARK                         _______ _______ _______ _____ _____    ______ ____
ROOT
ATOM      6  C   UNL     1     -42.453  -1.939   0.046  0.00  0.00    +0.000 A 
ATOM      7  C   UNL     1     -43.289  -1.803   1.214  0.00  0.00    +0.050 A 
ATOM      8  N   UNL     1     -42.752  -1.928   2.480  0.00  0.00    -0.100 NA
ATOM      9  C   UNL     1     -43.509  -1.801   3.592  0.00  0.00    +0.150 A 
ATOM     10  N   UNL     1     -42.856  -1.931   4.849  0.00  0.00    -0.400 NA
ATOM     15  N   UNL     1     -44.830  -1.535   3.510  0.00  0.00    -0.200 N 
ATOM     20  C   UNL     1     -45.411  -1.399   2.293  0.00  0.00    +0.600 A 
ATOM     21  O   UNL     1     -46.599  -1.158   2.207  0.00  0.00    -0.550 OA
ATOM     22  C   UNL     1     -44.624  -1.536   1.104  0.00  0.00    +0.000 A 
ATOM     23  C   UNL     1     -45.213  -1.408  -0.185  0.00  0.00    -0.130 A 
ATOM     24  C   UNL     1     -44.416  -1.548  -1.321  0.00  0.00    -0.130 A 
ATOM     25  C   UNL     1     -43.057  -1.822  -1.205  0.00  0.00    -0.130 A 
ENDROOT
BRANCH   6   5
ATOM      1  C   UNL     1     -38.030  -4.355   2.636  0.00  0.00    -0.150 C 
ATOM      2  C   UNL     1     -37.845  -3.167   1.736  0.00  0.00    +0.050 C 
ATOM      3  C   UNL     1     -39.145  -2.816   1.053  0.00  0.00    +0.100 A 
ATOM      4  N   UNL     1     -40.421  -2.450   1.300  0.00  0.00    -0.200 NA
ATOM      5  C   UNL     1     -41.091  -2.264   0.153  0.00  0.00    +0.150 A 
ATOM     26  C   UNL     1     -40.215  -2.580  -0.881  0.00  0.00    -0.150 A 
ATOM     27  C   UNL     1     -38.976  -2.906  -0.294  0.00  0.00    +0.000 A 
ATOM     28  C   UNL     1     -37.539  -3.329  -0.546  0.00  0.00    +0.600 C 
ATOM     29  O   UNL     1     -37.003  -3.521  -1.623  0.00  0.00    -0.550 OA
ATOM     30  N   UNL     1     -36.902  -3.465   0.722  0.00  0.00    -0.400 NA
ENDBRANCH   6   5
BRANCH  10  11
ATOM     11  C   UNL     1     -41.516  -2.336   4.945  0.00  0.00    +0.100 C 
ATOM     12  C   UNL     1     -40.732  -1.716   6.085  0.00  0.00    -0.100 C 
ATOM     13  C   UNL     1     -40.476  -1.267   4.650  0.00  0.00    -0.100 C 
ATOM     14  C   UNL     1     -41.159  -3.784   4.636  0.00  0.00    -0.150 C 
ENDBRANCH  10  11
BRANCH  15  16
ATOM     16  C   UNL     1     -45.637  -1.436   4.689  0.00  0.00    +0.100 C 
ATOM     17  C   UNL     1     -46.784  -2.453   4.747  0.00  0.00    -0.100 C 
ATOM     18  C   UNL     1     -45.558  -2.655   5.609  0.00  0.00    -0.100 C 
ATOM     19  C   UNL     1     -45.839  -0.125   5.411  0.00  0.00    -0.150 C 
ENDBRANCH  15  16
TORSDOF 3
