REMARK  Name = 4pp7_ligand
REMARK  9 active torsions:
REMARK  status: ('A' for Active; 'I' for Inactive)
REMARK    1  A    between atoms: N1_1  and  C2_2
REMARK    2  A    between atoms: N1_1  and  C15_15
REMARK    3  A    between atoms: N1_1  and  C29_29
REMARK    4  A    between atoms: C4_4  and  N10_10
REMARK    5  A    between atoms: N10_10  and  S11_11
REMARK    6  A    between atoms: S11_11  and  C12_12
REMARK    7  A    between atoms: C12_12  and  C14_14
REMARK    8  A    between atoms: C13_13  and  C14_14
REMARK    9  A    between atoms: N23_23  and  C25_25
REMARK                            x       y       z     vdW  Elec       q    Type
REMARK                         _______ _______ _______ _____ _____    ______ ____
ROOT
ATOM     15  C   UNL     1      13.019 -27.317  -2.623  0.00  0.00    +0.112 A 
ATOM     16  C   UNL     1      12.829 -28.172  -1.508  0.00  0.00    +0.133 A 
ATOM     17  F   UNL     1      13.155 -27.742  -0.268  0.00  0.00    -0.206 F 
ATOM     18  C   UNL     1      12.308 -29.479  -1.670  0.00  0.00    -0.007 A 
ATOM     19  C   UNL     1      11.958 -29.947  -2.955  0.00  0.00    -0.024 A 
ATOM     20  C   UNL     1      12.141 -29.097  -4.066  0.00  0.00    +0.082 A 
ATOM     29  C   UNL     1      12.666 -27.797  -3.904  0.00  0.00    +0.165 A 
ATOM     30  F   UNL     1      12.832 -27.008  -4.992  0.00  0.00    -0.206 F 
ENDROOT
BRANCH  15   1
ATOM      1  N   UNL     1      13.518 -26.054  -2.487  0.00  0.00    -0.269 N 
ATOM      2  C   UNL     1      12.543 -24.972  -2.666  0.00  0.00    +0.188 C 
BRANCH   1   3
ATOM      3  C   UNL     1      14.731 -25.725  -1.956  0.00  0.00    +0.058 A 
ATOM      4  C   UNL     1      15.011 -24.398  -1.542  0.00  0.00    +0.030 A 
ATOM      5  C   UNL     1      16.270 -24.062  -0.989  0.00  0.00    +0.055 A 
ATOM      6  C   UNL     1      16.579 -22.652  -0.545  0.00  0.00    +0.237 A 
ATOM      7  O   UNL     1      15.739 -21.759  -0.657  0.00  0.00    -0.385 OA
ATOM      8  N   UNL     1      17.851 -22.457  -0.018  0.00  0.00    -0.190 N 
ATOM      9  C   UNL     1      18.259 -21.124   0.446  0.00  0.00    +0.238 C 
ATOM     10  C   UNL     1      18.760 -23.499   0.081  0.00  0.00    +0.273 A 
ATOM     11  N   UNL     1      18.522 -24.725  -0.293  0.00  0.00    -0.304 NA
ATOM     12  C   UNL     1      17.267 -25.056  -0.844  0.00  0.00    +0.014 A 
ATOM     13  C   UNL     1      16.998 -26.382  -1.255  0.00  0.00    -0.003 A 
ATOM     14  C   UNL     1      15.738 -26.711  -1.807  0.00  0.00    +0.016 A 
ENDBRANCH   1   3
ENDBRANCH  15   1
BRANCH  20  21
ATOM     21  N   UNL     1      11.833 -29.486  -5.306  0.00  0.00    -0.196 N 
ATOM     22  H   UNL     1      12.057 -28.816  -6.014  0.00  0.00    +0.213 HD
BRANCH  21  23
ATOM     23  S   UNL     1      11.120 -30.933  -5.905  0.00  0.00    +0.059 S 
ATOM     24  O   UNL     1      10.063 -30.454  -6.801  0.00  0.00    -0.150 OA
ATOM     25  O   UNL     1      10.791 -31.794  -4.760  0.00  0.00    -0.150 OA
BRANCH  23  26
ATOM     26  C   UNL     1      12.467 -31.673  -6.926  0.00  0.00    +0.194 C 
BRANCH  26  27
ATOM     27  C   UNL     1      13.166 -32.858  -6.246  0.00  0.00    +0.022 C 
ATOM     28  C   UNL     1      14.647 -32.591  -5.973  0.00  0.00    +0.005 C 
ENDBRANCH  26  27
ENDBRANCH  23  26
ENDBRANCH  21  23
ENDBRANCH  20  21
TORSDOF 6
