REMARK  Name = 734
REMARK  3 active torsions:
REMARK  status: ('A' for Active; 'I' for Inactive)
REMARK    1  A    between atoms: CAC_3  and  CAM_13
REMARK    2  A    between atoms: CAF_6  and  CAM_13
REMARK    3  A    between atoms: CAM_13  and  NAT_20
REMARK                            x       y       z     vdW  Elec       q    Type
REMARK                         _______ _______ _______ _____ _____    ______ ____
ROOT
ATOM      7  C   UNL     1       7.806 -17.168  -1.504  0.00  0.00    +0.176 C 
ENDROOT
BRANCH   7  13
ATOM     13  C   UNL     1       8.143 -18.652  -1.475  0.00  0.00    +0.045 A 
ATOM     14  C   UNL     1       9.371 -19.073  -0.894  0.00  0.00    +0.211 A 
ATOM     15  O   UNL     1      10.234 -18.159  -0.369  0.00  0.00    -0.285 OA
ATOM     16  C   UNL     1       9.713 -20.445  -0.858  0.00  0.00    +0.120 A 
ATOM     17  N   UNL     1      10.907 -20.837  -0.295  0.00  0.00    -0.241 NA
ATOM     18  C   UNL     1      11.278 -22.142  -0.239  0.00  0.00    +0.099 A 
ATOM     19  C   UNL     1      10.442 -23.149  -0.763  0.00  0.00    +0.021 A 
ATOM     20  C   UNL     1       9.209 -22.793  -1.349  0.00  0.00    +0.003 A 
ATOM     21  C   UNL     1       8.824 -21.430  -1.407  0.00  0.00    +0.021 A 
ATOM     22  C   UNL     1       7.585 -21.019  -1.994  0.00  0.00    +0.001 A 
ATOM     23  C   UNL     1       7.254 -19.636  -2.023  0.00  0.00    +0.001 A 
ENDBRANCH   7  13
BRANCH   7   6
ATOM      1  C   UNL     1      11.103 -14.378  -3.887  0.00  0.00    +0.005 A 
ATOM      2  C   UNL     1      11.739 -14.096  -2.658  0.00  0.00    +0.021 A 
ATOM      3  C   UNL     1      11.219 -14.659  -1.472  0.00  0.00    +0.100 A 
ATOM      4  N   UNL     1      10.114 -15.466  -1.518  0.00  0.00    -0.228 NA
ATOM      5  C   UNL     1       9.470 -15.761  -2.706  0.00  0.00    +0.148 A 
ATOM      6  N   UNL     1       8.362 -16.575  -2.727  0.00  0.00    -0.210 NA
ATOM     24  C   UNL     1       9.959 -15.217  -3.915  0.00  0.00    +0.036 A 
ENDBRANCH   7   6
BRANCH   7   8
ATOM      8  C   UNL     1       6.309 -16.909  -1.394  0.00  0.00    +0.147 A 
ATOM      9  C   UNL     1       5.642 -16.368  -0.531  0.00  0.00    +0.038 A 
ATOM     10  C   UNL     1       4.537 -16.284  -0.657  0.00  0.00    +0.043 A 
ATOM     11  C   UNL     1       3.920 -16.705  -1.628  0.00  0.00    +0.179 A 
ATOM     12  O   UNL     1       5.161 -17.232  -2.318  0.00  0.00    -0.453 OA
ENDBRANCH   7   8
TORSDOF 3
