REMARK  Name = 4hvh_ligand
REMARK  8 active torsions:
REMARK  status: ('A' for Active; 'I' for Inactive)
REMARK    1  A    between atoms: C2_2  and  C12_12
REMARK    2  A    between atoms: C7_7  and  C10_10
REMARK    3  A    between atoms: N13_13  and  C16_16
REMARK    4  A    between atoms: C16_16  and  C17_17
REMARK    5  A    between atoms: C16_16  and  C21_21
REMARK    6  A    between atoms: C17_17  and  C18_18
REMARK    7  A    between atoms: C17_17  and  C19_19
REMARK    8  A    between atoms: C17_17  and  O20_20
REMARK                            x       y       z     vdW  Elec       q    Type
REMARK                         _______ _______ _______ _____ _____    ______ ____
ROOT
ATOM      1  C   UNL     1      -2.640 -15.480  -3.069  0.00  0.00    +0.107 A 
ATOM      2  N   UNL     1      -2.586 -14.162  -2.955  0.00  0.00    -0.265 NA
ATOM      3  C   UNL     1      -1.519 -13.509  -3.413  0.00  0.00    +0.164 A 
ATOM      4  N   UNL     1      -1.170 -12.178  -3.434  0.00  0.00    -0.250 N 
ATOM      5  H   UNL     1      -1.748 -11.411  -3.063  0.00  0.00    +0.237 HD
ATOM      6  C   UNL     1       0.041 -12.025  -4.013  0.00  0.00    +0.175 A 
ATOM      7  C   UNL     1       0.535 -13.244  -4.384  0.00  0.00    +0.073 A 
ATOM     19  C   UNL     1      -0.465 -14.245  -4.007  0.00  0.00    +0.079 A 
ATOM     20  N   UNL     1      -0.544 -15.579  -4.114  0.00  0.00    -0.296 NA
ATOM     21  C   UNL     1      -1.614 -16.206  -3.660  0.00  0.00    +0.041 A 
ENDROOT
BRANCH   7   8
ATOM      8  C   UNL     1       1.809 -13.493  -5.066  0.00  0.00    +0.182 C 
ATOM      9  N   UNL     1       2.035 -14.732  -5.554  0.00  0.00    -0.286 N 
ATOM     10  H   UNL     1       1.333 -15.429  -5.410  0.00  0.00    +0.184 HD
ATOM     18  O   UNL     1       2.607 -12.579  -5.201  0.00  0.00    -0.402 OA
BRANCH   9  11
ATOM     11  C   UNL     1       3.253 -15.117  -6.285  0.00  0.00    +0.124 C 
ATOM     12  C   UNL     1       2.978 -14.927  -7.785  0.00  0.00    +0.036 C 
BRANCH  11  13
ATOM     13  C   UNL     1       3.612 -16.586  -5.986  0.00  0.00    +0.083 C 
ATOM     16  C   UNL     1       4.123 -16.718  -4.546  0.00  0.00    +0.043 C 
ATOM     17  C   UNL     1       4.692 -17.081  -6.960  0.00  0.00    +0.043 C 
BRANCH  13  14
ATOM     14  O   UNL     1       2.453 -17.407  -6.107  0.00  0.00    -0.387 OA
ATOM     15  H   UNL     1       1.785 -17.101  -5.505  0.00  0.00    +0.210 HD
ENDBRANCH  13  14
ENDBRANCH  11  13
ENDBRANCH   9  11
ENDBRANCH   7   8
BRANCH  21  22
ATOM     22  C   UNL     1      -1.752 -17.706  -3.752  0.00  0.00    +0.058 C 
ATOM     23  C   UNL     1      -0.514 -18.565  -3.491  0.00  0.00    +0.023 C 
ATOM     24  C   UNL     1      -1.066 -18.429  -4.917  0.00  0.00    +0.023 C 
ENDBRANCH  21  22
TORSDOF 5
