REMARK  Name = 5HBH
REMARK  7 active torsions:
REMARK  status: ('A' for Active; 'I' for Inactive)
REMARK    1  A    between atoms: C_1  and  O_19
REMARK    2  A    between atoms: C_2  and  C_3
REMARK    3  A    between atoms: C_2  and  O_19
REMARK    4  A    between atoms: C_3  and  N_20
REMARK    5  A    between atoms: C_8  and  N_23
REMARK    6  A    between atoms: C_11  and  C_29
REMARK    7  A    between atoms: C_15  and  N_33
REMARK                            x       y       z     vdW  Elec       q    Type
REMARK                         _______ _______ _______ _____ _____    ______ ____
ROOT
ATOM     10  C   UNL     1       6.919  10.878  10.364  0.00  0.00    +0.059 A 
ATOM     11  C   UNL     1       6.745  10.323   9.051  0.00  0.00    +0.023 A 
ATOM     24  C   UNL     1       7.538   9.245   8.652  0.00  0.00    +0.121 A 
ATOM     25  N   UNL     1       8.419   8.705   9.485  0.00  0.00    -0.261 NA
ATOM     26  C   UNL     1       8.603   9.170  10.714  0.00  0.00    +0.132 A 
ATOM     27  C   UNL     1       7.875  10.250  11.208  0.00  0.00    +0.081 A 
ATOM     28 CL   UNL     1       8.213  10.769  12.844  0.00  0.00    -0.080 Cl
ENDROOT
BRANCH  11  12
ATOM     12  C   UNL     1       5.771  10.926   8.100  0.00  0.00    -0.014 A 
ATOM     13  C   UNL     1       6.294  11.807   7.149  0.00  0.00    +0.010 A 
ATOM     14  C   UNL     1       5.462  12.436   6.259  0.00  0.00    +0.026 A 
ATOM     15  C   UNL     1       4.073  12.209   6.271  0.00  0.00    +0.055 A 
ATOM     16  N   UNL     1       3.158  12.839   5.417  0.00  0.00    -0.210 N 
ATOM     17  S   UNL     1       1.799  12.942   6.349  0.00  0.00    +0.049 S 
ATOM     18  O   UNL     1       2.143  13.929   7.314  0.00  0.00    -0.155 OA
ATOM     19  C   UNL     1       2.029  11.273   7.038  0.00  0.00    +0.226 C 
ATOM     20  O   UNL     1       0.669  13.073   5.496  0.00  0.00    -0.155 OA
ATOM     21  C   UNL     1       3.360  13.352   4.058  0.00  0.00    +0.157 C 
ATOM     22  C   UNL     1       3.543  11.353   7.220  0.00  0.00    -0.002 A 
ATOM     23  C   UNL     1       4.381  10.715   8.137  0.00  0.00    +0.015 A 
ENDBRANCH  11  12
BRANCH  10   9
ATOM      5  N   UNL     1       3.827  15.303  12.435  0.00  0.00    -0.294 NA
ATOM      6  C   UNL     1       4.336  14.147  11.649  0.00  0.00    +0.025 C 
ATOM      7  C   UNL     1       4.604  12.974  12.585  0.00  0.00    +0.041 C 
ATOM      8  C   UNL     1       5.134  11.723  11.871  0.00  0.00    +0.107 C 
ATOM      9  N   UNL     1       6.119  11.964  10.793  0.00  0.00    -0.328 N 
ATOM     29  C   UNL     1       6.183  13.263  10.118  0.00  0.00    +0.107 C 
ATOM     30  C   UNL     1       5.672  14.432  10.956  0.00  0.00    +0.041 C 
ATOM     31  C   UNL     1       3.219  13.808  10.625  0.00  0.00    +0.023 C 
ATOM     32  C   UNL     1       1.991  14.643  11.079  0.00  0.00    +0.017 C 
ATOM     33  C   UNL     1       2.720  15.887  11.649  0.00  0.00    +0.085 C 
BRANCH   5   4
ATOM      4  C   UNL     1       4.824  16.278  12.937  0.00  0.00    +0.113 C 
BRANCH   4   3
ATOM      3  C   UNL     1       4.303  17.462  13.759  0.00  0.00    +0.174 C 
BRANCH   3   2
ATOM      1  C   UNL     1       3.655  18.315  15.844  0.00  0.00    +0.193 C 
ATOM      2  O   UNL     1       3.889  17.130  15.077  0.00  0.00    -0.382 OA
ENDBRANCH   3   2
ENDBRANCH   4   3
ENDBRANCH   5   4
ENDBRANCH  10   9
TORSDOF 5
