REMARK  Name = 5UKJ
REMARK  7 active torsions:
REMARK  status: ('A' for Active; 'I' for Inactive)
REMARK    1  A    between atoms: C_1  and  C_29
REMARK    2  A    between atoms: C_5  and  N_18
REMARK    3  A    between atoms: C_6  and  N_18
REMARK    4  A    between atoms: C_9  and  N_28
REMARK    5  A    between atoms: S_16  and  N_18
REMARK    6  A    between atoms: S_16  and  C_19
REMARK    7  A    between atoms: C_24  and  C_25
REMARK                            x       y       z     vdW  Elec       q    Type
REMARK                         _______ _______ _______ _____ _____    ______ ____
ROOT
ATOM      1  C   UNL     1       2.788 -12.576 -19.169  0.00  0.00    +0.086 C 
ATOM      2  C   UNL     1       1.383 -13.154 -19.310  0.00  0.00    +0.029 C 
ATOM      3  N   UNL     1       2.846 -11.141 -19.521  0.00  0.00    -0.323 N 
ATOM     13  C   UNL     1       2.362 -10.130 -18.579  0.00  0.00    +0.136 C 
ATOM     14  C   UNL     1       2.245 -10.661 -17.187  0.00  0.00    +0.107 C 
ATOM     15  N   UNL     1       2.698 -11.909 -16.871  0.00  0.00    -0.214 NA
ATOM     16  N   UNL     1       2.459 -12.219 -15.562  0.00  0.00    -0.284 N 
ATOM     17  H   UNL     1       2.706 -13.124 -15.048  0.00  0.00    +0.166 HD
ATOM     18  C   UNL     1       1.857 -11.155 -15.076  0.00  0.00    +0.090 C 
ATOM     19  C   UNL     1       1.715 -10.139 -16.030  0.00  0.00    -0.000 C 
ATOM     32  C   UNL     1       3.363 -12.832 -17.788  0.00  0.00    +0.128 C 
ENDROOT
BRANCH   3   4
ATOM      4  C   UNL     1       2.967 -10.755 -20.889  0.00  0.00    +0.042 A 
ATOM      5  C   UNL     1       3.955 -11.344 -21.695  0.00  0.00    +0.042 A 
ATOM      6  C   UNL     1       5.070 -12.224 -21.491  0.00  0.00    +0.033 A 
ATOM      7  C   UNL     1       5.628 -12.426 -22.712  0.00  0.00    +0.114 A 
ATOM      8  N   UNL     1       4.941 -11.722 -23.669  0.00  0.00    -0.236 NA
ATOM      9  C   UNL     1       3.915 -11.046 -23.072  0.00  0.00    +0.162 A 
ATOM     10  N   UNL     1       3.022 -10.220 -23.655  0.00  0.00    -0.236 NA
ATOM     11  C   UNL     1       2.122  -9.645 -22.841  0.00  0.00    +0.115 A 
ATOM     12  C   UNL     1       2.054  -9.875 -21.477  0.00  0.00    +0.043 A 
ENDBRANCH   3   4
BRANCH  19  20
ATOM     20  C   UNL     1       1.281  -8.760 -15.705  0.00  0.00    -0.019 A 
ATOM     21  C   UNL     1       0.705  -7.932 -16.669  0.00  0.00    +0.010 A 
ATOM     22  C   UNL     1       0.346  -6.630 -16.362  0.00  0.00    +0.029 A 
ATOM     23  C   UNL     1       0.566  -6.148 -15.078  0.00  0.00    +0.106 A 
ATOM     24  C   UNL     1       1.155  -6.950 -14.114  0.00  0.00    +0.029 A 
ATOM     31  C   UNL     1       1.490  -8.253 -14.426  0.00  0.00    +0.010 A 
BRANCH  23  25
ATOM     25  S   UNL     1      -0.008  -4.545 -14.633  0.00  0.00    +0.060 S 
ATOM     29  O   UNL     1       0.780  -4.090 -13.531  0.00  0.00    -0.153 OA
ATOM     30  O   UNL     1      -0.073  -3.759 -15.828  0.00  0.00    -0.153 OA
BRANCH  25  26
ATOM     26  N   UNL     1      -1.535  -4.720 -14.091  0.00  0.00    -0.183 NA
ATOM     27  C   UNL     1      -1.754  -5.491 -12.860  0.00  0.00    +0.131 C 
ATOM     28  C   UNL     1      -2.489  -3.624 -14.301  0.00  0.00    +0.131 C 
ENDBRANCH  25  26
ENDBRANCH  23  25
ENDBRANCH  19  20
TORSDOF 4
