REMARK  Name = 3k3j_ligand
REMARK  6 active torsions:
REMARK  status: ('A' for Active; 'I' for Inactive)
REMARK    1  A    between atoms: N1_1  and  C8_7
REMARK    2  A    between atoms: N3_2  and  C11_29
REMARK    3  A    between atoms: C4_3  and  C10_8
REMARK    4  A    between atoms: C5_4  and  C7_6
REMARK    5  A    between atoms: C6_5  and  C1_27
REMARK    6  A    between atoms: C11_29  and  C9_30
REMARK                            x       y       z     vdW  Elec       q    Type
REMARK                         _______ _______ _______ _____ _____    ______ ____
ROOT
ATOM      1  N   UNL     1      -0.777   4.106 -14.244  0.00  0.00    -0.081 N 
ATOM      2  N   UNL     1      -0.612   5.310 -13.562  0.00  0.00    -0.113 NA
ATOM      3  C   UNL     1       0.391   6.130 -13.794  0.00  0.00    +0.110 A 
ATOM      4  C   UNL     1       1.324   5.773 -14.793  0.00  0.00    +0.078 A 
ATOM      5  C   UNL     1       1.188   4.551 -15.474  0.00  0.00    +0.127 A 
ATOM     27  C   UNL     1       0.103   3.714 -15.196  0.00  0.00    +0.272 A 
ATOM     28  O   UNL     1      -0.033   2.624 -15.814  0.00  0.00    -0.395 OA
ENDROOT
BRANCH   1  29
ATOM     29  C   UNL     1      -1.921   3.431 -13.774  0.00  0.00    +0.130 A 
ATOM     30  C   UNL     1      -1.885   2.127 -13.279  0.00  0.00    +0.031 A 
ATOM     31  C   UNL     1      -3.064   1.554 -12.795  0.00  0.00    +0.024 A 
ATOM     32  C   UNL     1      -4.234   2.313 -12.772  0.00  0.00    +0.123 A 
ATOM     33  F   UNL     1      -5.369   1.790 -12.300  0.00  0.00    -0.191 F 
ATOM     34  C   UNL     1      -4.253   3.625 -13.232  0.00  0.00    +0.024 A 
ATOM     35  C   UNL     1      -3.095   4.185 -13.731  0.00  0.00    +0.031 A 
ENDBRANCH   1  29
BRANCH   3  21
ATOM     21  C   UNL     1       0.395   7.400 -13.016  0.00  0.00    +0.016 A 
ATOM     22  C   UNL     1      -0.341   7.519 -11.843  0.00  0.00    +0.040 A 
ATOM     23  C   UNL     1      -0.343   8.743 -11.172  0.00  0.00    +0.088 A 
ATOM     24  N   UNL     1       0.363   9.794 -11.659  0.00  0.00    -0.303 NA
ATOM     25  C   UNL     1       1.039   9.712 -12.803  0.00  0.00    +0.088 A 
ATOM     26  C   UNL     1       1.067   8.517 -13.513  0.00  0.00    +0.040 A 
ENDBRANCH   3  21
BRANCH   5   6
ATOM      6  C   UNL     1       2.185   4.187 -16.542  0.00  0.00    +0.204 C 
ATOM      7  O   UNL     1       3.171   4.910 -16.745  0.00  0.00    -0.394 OA
ATOM      8  N   UNL     1       1.940   3.090 -17.268  0.00  0.00    -0.272 N 
ATOM      9  H   UNL     1       1.118   2.563 -17.051  0.00  0.00    +0.187 HD
BRANCH   8  10
ATOM     10  C   UNL     1       2.770   2.618 -18.332  0.00  0.00    +0.231 C 
BRANCH  10  11
ATOM     11  C   UNL     1       4.034   1.948 -17.833  0.00  0.00    +0.013 A 
ATOM     12  C   UNL     1       4.344   1.884 -16.472  0.00  0.00    +0.036 A 
ATOM     13  C   UNL     1       5.522   1.244 -16.080  0.00  0.00    +0.043 A 
ATOM     14  C   UNL     1       6.377   0.650 -17.035  0.00  0.00    +0.026 A 
ATOM     15  C   UNL     1       6.075   0.717 -18.383  0.00  0.00    +0.044 A 
ATOM     16  C   UNL     1       4.898   1.373 -18.763  0.00  0.00    +0.051 A 
BRANCH  16  17
ATOM     17  C   UNL     1       4.569   1.442 -20.224  0.00  0.00    +0.371 C 
ATOM     18  F   UNL     1       4.189   2.679 -20.514  0.00  0.00    -0.226 F 
ATOM     19  F   UNL     1       3.576   0.609 -20.509  0.00  0.00    -0.226 F 
ATOM     20  F   UNL     1       5.664   1.137 -20.907  0.00  0.00    -0.226 F 
ENDBRANCH  16  17
ENDBRANCH  10  11
ENDBRANCH   8  10
ENDBRANCH   5   6
TORSDOF 6
