REMARK  Name = 2uzo_ligand
REMARK  4 active torsions:
REMARK  status: ('A' for Active; 'I' for Inactive)
REMARK    1  A    between atoms: S2_2  and  N6_4
REMARK    2  A    between atoms: S2_2  and  C16_5
REMARK    3  A    between atoms: C13_8  and  C4_11
REMARK    4  A    between atoms: C1_15  and  C6_16
REMARK                            x       y       z     vdW  Elec       q    Type
REMARK                         _______ _______ _______ _____ _____    ______ ____
ROOT
ATOM      7  C   UNL     1      11.133 -10.142  12.013  0.00  0.00    +0.123 A 
ATOM      8  C   UNL     1      11.114 -10.768  13.216  0.00  0.00    -0.007 A 
ATOM      9  C   UNL     1      12.257 -10.432  13.854  0.00  0.00    -0.009 A 
ATOM     10  C   UNL     1      12.962  -9.588  13.032  0.00  0.00    +0.114 A 
ATOM     20  O   UNL     1      12.286  -9.430  11.935  0.00  0.00    -0.256 OA
ENDROOT
BRANCH  10  11
ATOM     11  C   UNL     1      14.246  -8.976  13.325  0.00  0.00    +0.059 C 
ATOM     12  C   UNL     1      14.676  -7.831  12.613  0.00  0.00    +0.115 C 
ATOM     13  C   UNL     1      15.958  -7.306  12.690  0.00  0.00    +0.241 C 
ATOM     14  O   UNL     1      16.865  -7.791  13.369  0.00  0.00    -0.378 OA
ATOM     15  N   UNL     1      16.093  -6.188  11.912  0.00  0.00    -0.189 N 
ATOM     16  H   UNL     1      16.943  -5.666  11.840  0.00  0.00    +0.225 HD
ATOM     17  C   UNL     1      14.950  -5.858  11.245  0.00  0.00    +0.281 C 
ATOM     18  O   UNL     1      14.849  -4.890  10.488  0.00  0.00    -0.371 OA
ATOM     19  S   UNL     1      13.707  -6.905  11.577  0.00  0.00    +0.040 S 
ENDBRANCH  10  11
BRANCH   7   6
ATOM      3  C   UNL     1       8.149 -10.172   8.986  0.00  0.00    +0.105 A 
ATOM      4  C   UNL     1       8.097 -11.120  10.025  0.00  0.00    +0.026 A 
ATOM      5  C   UNL     1       9.077 -11.116  11.028  0.00  0.00    +0.008 A 
ATOM      6  C   UNL     1      10.095 -10.170  10.988  0.00  0.00    +0.011 A 
ATOM     21  C   UNL     1      10.126  -9.218   9.964  0.00  0.00    +0.008 A 
ATOM     22  C   UNL     1       9.157  -9.221   8.969  0.00  0.00    +0.026 A 
BRANCH   3   2
ATOM      1  O   UNL     1       6.456 -11.550   7.429  0.00  0.00    -0.151 OA
ATOM      2  S   UNL     1       6.892 -10.148   7.732  0.00  0.00    +0.065 S 
ATOM     26  O   UNL     1       5.730  -9.360   8.229  0.00  0.00    -0.151 OA
BRANCH   2  23
ATOM     23  N   UNL     1       7.476  -9.452   6.366  0.00  0.00    -0.261 NA
ATOM     24  H   UNL     1       7.046  -8.625   6.003  0.00  0.00    +0.163 HD
ATOM     25  H   UNL     1       8.262  -9.854   5.896  0.00  0.00    +0.163 HD
ENDBRANCH   2  23
ENDBRANCH   3   2
ENDBRANCH   7   6
TORSDOF 4
