REMARK  Name = 4SP
REMARK  5 active torsions:
REMARK  status: ('A' for Active; 'I' for Inactive)
REMARK    1  A    between atoms: C10_3  and  C11_4
REMARK    2  A    between atoms: C10_3  and  O6_17
REMARK    3  A    between atoms: C20_11  and  S23_26
REMARK    4  A    between atoms: C6_16  and  O6_17
REMARK    5  A    between atoms: N2_23  and  C17_24
REMARK                            x       y       z     vdW  Elec       q    Type
REMARK                         _______ _______ _______ _____ _____    ______ ____
ROOT
ATOM      1  C   UNL     1     -10.213  16.018  19.406  0.00  0.00    +0.289 C 
ATOM      2  N   UNL     1      -9.746  14.805  19.786  0.00  0.00    -0.281 NA
ATOM      3  C   UNL     1      -8.461  14.510  19.647  0.00  0.00    +0.301 C 
ATOM     12  C   UNL     1      -7.600  15.451  19.109  0.00  0.00    +0.308 C 
ATOM     13  N   UNL     1      -6.282  15.437  18.852  0.00  0.00    -0.204 NA
ATOM     14  C   UNL     1      -5.937  16.616  18.326  0.00  0.00    +0.335 C 
ATOM     15  N   UNL     1      -7.039  17.366  18.254  0.00  0.00    -0.010 NA
ATOM     16  C   UNL     1      -8.063  16.648  18.734  0.00  0.00    +0.399 C 
ATOM     17  N   UNL     1     -11.596  16.465  19.514  0.00  0.00    -0.114 NA
ATOM     28  N   UNL     1      -9.366  16.933  18.885  0.00  0.00    +0.048 NA
ENDROOT
BRANCH  17  18
ATOM     18  C   UNL     1     -12.698  15.681  20.065  0.00  0.00    +0.085 A 
ATOM     19  C   UNL     1     -12.487  14.665  20.986  0.00  0.00    +0.019 A 
ATOM     20  C   UNL     1     -13.557  13.939  21.492  0.00  0.00    +0.021 A 
ATOM     21  C   UNL     1     -14.850  14.229  21.085  0.00  0.00    +0.125 A 
ATOM     26  C   UNL     1     -15.065  15.246  20.170  0.00  0.00    +0.021 A 
ATOM     27  C   UNL     1     -13.995  15.969  19.663  0.00  0.00    +0.019 A 
BRANCH  21  22
ATOM     22  S   UNL     1     -16.265  13.287  21.738  0.00  0.00    +0.094 S 
ATOM     23  O   UNL     1     -16.402  13.439  23.193  0.00  0.00    -0.150 OA
ATOM     24  N   UNL     1     -16.153  11.642  21.290  0.00  0.00    +0.039 NA
ATOM     25  O   UNL     1     -17.530  13.869  21.280  0.00  0.00    -0.150 OA
ENDBRANCH  21  22
ENDBRANCH  17  18
BRANCH   3   4
ATOM      4  O   UNL     1      -8.181  13.212  20.095  0.00  0.00    -0.453 OA
BRANCH   4   5
ATOM      5  C   UNL     1      -9.272  12.333  20.048  0.00  0.00    +0.208 C 
BRANCH   5   6
ATOM      6  C   UNL     1      -9.363  11.491  21.339  0.00  0.00    +0.044 C 
ATOM      7  C   UNL     1      -8.408  12.054  22.402  0.00  0.00    +0.004 C 
ATOM      8  C   UNL     1      -8.602  11.409  23.778  0.00  0.00    +0.000 C 
ATOM      9  C   UNL     1      -9.660  10.300  23.778  0.00  0.00    +0.000 C 
ATOM     10  C   UNL     1     -10.983  10.831  23.217  0.00  0.00    +0.000 C 
ATOM     11  C   UNL     1     -10.822  11.444  21.822  0.00  0.00    +0.004 C 
ENDBRANCH   5   6
ENDBRANCH   4   5
ENDBRANCH   3   4
TORSDOF 5
