REMARK  Name = 5UGC
REMARK  9 active torsions:
REMARK  status: ('A' for Active; 'I' for Inactive)
REMARK    1  A    between atoms: C_3  and  N_20
REMARK    2  A    between atoms: N_5  and  C_7
REMARK    3  A    between atoms: C_8  and  N_20
REMARK    4  A    between atoms: C_9  and  O_24
REMARK    5  A    between atoms: C_10  and  N_22
REMARK    6  A    between atoms: C_11  and  C_28
REMARK    7  A    between atoms: C_11  and  C_29
REMARK    8  A    between atoms: C_12  and  N_27
REMARK    9  A    between atoms: O_24  and  C_25
REMARK                            x       y       z     vdW  Elec       q    Type
REMARK                         _______ _______ _______ _____ _____    ______ ____
ROOT
ATOM      1  C   UNL     1     -15.062  16.603 -25.611  0.00  0.00    +0.133 C 
ATOM      2  N   UNL     1     -13.899  16.786 -26.474  0.00  0.00    -0.295 N 
ATOM      3  C   UNL     1     -13.444  18.159 -26.526  0.00  0.00    +0.146 C 
ATOM      4  C   UNL     1     -14.697  18.916 -26.095  0.00  0.00    +0.205 C 
ATOM      5  F   UNL     1     -15.566  19.015 -27.149  0.00  0.00    -0.242 F 
ATOM      6  C   UNL     1     -13.296  15.747 -27.149  0.00  0.00    +0.222 A 
ATOM      7  N   UNL     1     -12.191  15.981 -27.915  0.00  0.00    -0.195 NA
ATOM      8  C   UNL     1     -11.680  14.860 -28.499  0.00  0.00    +0.167 A 
ATOM      9  C   UNL     1     -12.166  13.556 -28.389  0.00  0.00    +0.148 A 
ATOM     10  N   UNL     1     -11.390  12.686 -29.117  0.00  0.00    -0.231 NA
ATOM     11  C   UNL     1     -10.456  13.444 -29.656  0.00  0.00    +0.201 A 
ATOM     12  C   UNL     1     -13.324  13.379 -27.589  0.00  0.00    +0.156 A 
ATOM     24  N   UNL     1     -10.594  14.763 -29.313  0.00  0.00    -0.318 N 
ATOM     25  C   UNL     1      -9.748  15.852 -29.737  0.00  0.00    +0.152 C 
ATOM     26  N   UNL     1     -13.847  14.509 -26.997  0.00  0.00    -0.197 NA
ATOM     27  C   UNL     1     -15.317  18.008 -25.049  0.00  0.00    +0.126 C 
ENDROOT
BRANCH  27  28
ATOM     28  N   UNL     1     -14.605  18.189 -23.774  0.00  0.00    -0.308 N 
ATOM     29  H   UNL     1     -13.674  18.716 -23.792  0.00  0.00    +0.149 HD
ATOM     30  C   UNL     1     -15.061  17.721 -22.551  0.00  0.00    +0.213 C 
ATOM     31  O   UNL     1     -16.110  17.099 -22.372  0.00  0.00    -0.276 OA
BRANCH  30  32
ATOM     32  C   UNL     1     -14.080  18.086 -21.441  0.00  0.00    +0.092 C 
ATOM     33  C   UNL     1     -14.355  17.389 -20.116  0.00  0.00    +0.013 C 
ENDBRANCH  30  32
ENDBRANCH  27  28
BRANCH  12  13
ATOM     13  N   UNL     1     -13.945  12.125 -27.431  0.00  0.00    -0.296 N 
ATOM     14  H   UNL     1     -13.432  11.291 -27.862  0.00  0.00    +0.154 HD
BRANCH  13  15
ATOM     15  C   UNL     1     -15.119  11.841 -26.797  0.00  0.00    +0.084 C 
ATOM     16  C   UNL     1     -15.844  12.531 -25.837  0.00  0.00    +0.161 C 
ATOM     17  N   UNL     1     -16.949  11.773 -25.590  0.00  0.00    -0.224 NA
ATOM     18  N   UNL     1     -17.004  10.640 -26.316  0.00  0.00    -0.247 N 
ATOM     19  H   UNL     1     -17.760   9.883 -26.309  0.00  0.00    +0.169 HD
ATOM     20  C   UNL     1     -18.014  12.075 -24.662  0.00  0.00    +0.128 C 
ATOM     21  C   UNL     1     -15.882  10.691 -27.050  0.00  0.00    +0.213 C 
BRANCH  21  22
ATOM     22  O   UNL     1     -15.524   9.732 -27.955  0.00  0.00    -0.481 OA
ATOM     23  C   UNL     1     -16.420   8.631 -28.109  0.00  0.00    +0.278 C 
ENDBRANCH  21  22
ENDBRANCH  13  15
ENDBRANCH  12  13
TORSDOF 5
