REMARK  Name = 3TUB
REMARK  8 active torsions:
REMARK  status: ('A' for Active; 'I' for Inactive)
REMARK    1  A    between atoms: C_1  and  O_3
REMARK    2  A    between atoms: O_3  and  C_4
REMARK    3  A    between atoms: O_6  and  C_18
REMARK    4  A    between atoms: O_6  and  C_19
REMARK    5  A    between atoms: O_9  and  C_13
REMARK    6  A    between atoms: O_9  and  C_20
REMARK    7  A    between atoms: N_11  and  C_26
REMARK    8  A    between atoms: C_28  and  C_29
REMARK                            x       y       z     vdW  Elec       q    Type
REMARK                         _______ _______ _______ _____ _____    ______ ____
ROOT
ATOM     12  C   UNL     1      22.693  -6.133  -8.410  0.00  0.00    +0.147 A 
ATOM     13  C   UNL     1      22.476  -5.019  -9.232  0.00  0.00    +0.159 A 
ATOM     14  N   UNL     1      23.341  -4.642 -10.196  0.00  0.00    -0.236 NA
ATOM     15  C   UNL     1      24.447  -5.432 -10.374  0.00  0.00    +0.126 A 
ATOM     16  C   UNL     1      24.714  -6.581  -9.595  0.00  0.00    +0.047 A 
ATOM     17  N   UNL     1      25.389  -5.078 -11.350  0.00  0.00    -0.254 N 
ATOM     18  H   UNL     1      26.202  -5.685 -11.423  0.00  0.00    +0.158 HD
ATOM     19  C   UNL     1      25.222  -4.015 -12.283  0.00  0.00    +0.305 C 
ATOM     20  O   UNL     1      24.177  -3.406 -12.459  0.00  0.00    -0.253 OA
ATOM     21  N   UNL     1      26.384  -3.776 -13.043  0.00  0.00    -0.296 N 
ATOM     22  H   UNL     1      27.308  -3.962 -12.675  0.00  0.00    +0.150 HD
ATOM     32  C   UNL     1      23.822  -6.930  -8.598  0.00  0.00    +0.051 A 
ENDROOT
BRANCH  21  23
ATOM     23  C   UNL     1      26.284  -2.938 -14.205  0.00  0.00    +0.083 C 
ATOM     24  C   UNL     1      26.300  -1.413 -14.052  0.00  0.00    +0.041 C 
ATOM     31  C   UNL     1      27.493  -2.136 -14.649  0.00  0.00    +0.033 C 
BRANCH  24  25
ATOM     25  C   UNL     1      25.336  -0.679 -14.886  0.00  0.00    -0.043 A 
ATOM     26  C   UNL     1      24.259  -0.056 -14.256  0.00  0.00    +0.004 A 
ATOM     27  C   UNL     1      23.291   0.583 -15.016  0.00  0.00    +0.000 A 
ATOM     28  C   UNL     1      23.389   0.600 -16.403  0.00  0.00    +0.000 A 
ATOM     29  C   UNL     1      24.470  -0.007 -17.028  0.00  0.00    +0.000 A 
ATOM     30  C   UNL     1      25.446  -0.647 -16.273  0.00  0.00    +0.004 A 
ENDBRANCH  24  25
ENDBRANCH  21  23
BRANCH  12  11
ATOM     11  O   UNL     1      21.789  -6.592  -7.485  0.00  0.00    -0.454 OA
BRANCH  11   8
ATOM      3  C   UNL     1      18.273  -7.699  -5.612  0.00  0.00    +0.162 A 
ATOM      4  C   UNL     1      17.618  -6.742  -4.778  0.00  0.00    +0.164 A 
ATOM      5  C   UNL     1      18.172  -5.517  -4.535  0.00  0.00    +0.077 A 
ATOM      6  C   UNL     1      19.392  -5.168  -5.178  0.00  0.00    +0.078 A 
ATOM      7  C   UNL     1      20.020  -6.099  -6.027  0.00  0.00    +0.046 A 
ATOM      8  C   UNL     1      21.214  -5.656  -6.672  0.00  0.00    +0.139 A 
ATOM      9  C   UNL     1      21.715  -4.399  -6.449  0.00  0.00    +0.066 A 
ATOM     10  C   UNL     1      20.976  -3.534  -5.596  0.00  0.00    +0.115 A 
ATOM     33  N   UNL     1      19.866  -3.878  -4.963  0.00  0.00    -0.255 NA
ATOM     36  C   UNL     1      19.461  -7.389  -6.223  0.00  0.00    +0.063 A 
BRANCH   3   2
ATOM      1  C   UNL     1      18.139  -9.867  -6.541  0.00  0.00    +0.277 C 
ATOM      2  O   UNL     1      17.599  -8.879  -5.702  0.00  0.00    -0.491 OA
ENDBRANCH   3   2
BRANCH   4  34
ATOM     34  O   UNL     1      16.359  -7.002  -4.305  0.00  0.00    -0.491 OA
ATOM     35  C   UNL     1      16.354  -7.785  -3.138  0.00  0.00    +0.277 C 
ENDBRANCH   4  34
ENDBRANCH  11   8
ENDBRANCH  12  11
TORSDOF 6
