REMARK  Name = 4XG9
REMARK  8 active torsions:
REMARK  status: ('A' for Active; 'I' for Inactive)
REMARK    1  A    between atoms: C_1  and  N_17
REMARK    2  A    between atoms: C_7  and  O_8
REMARK    3  A    between atoms: N_10  and  C_11
REMARK    4  A    between atoms: C_11  and  C_12
REMARK    5  A    between atoms: C_14  and  C_15
REMARK    6  A    between atoms: N_19  and  C_20
REMARK    7  A    between atoms: C_25  and  C_26
REMARK    8  A    between atoms: N_27  and  C_28
REMARK                            x       y       z     vdW  Elec       q    Type
REMARK                         _______ _______ _______ _____ _____    ______ ____
ROOT
ATOM      1  C   UNL     1       4.118   6.428   4.142  0.00  0.00    +0.143 A 
ATOM     16  N   UNL     1       3.008   6.260   3.380  0.00  0.00    -0.198 NA
ATOM     17  C   UNL     1       2.938   5.458   2.291  0.00  0.00    +0.221 A 
ATOM     18  N   UNL     1       1.838   5.308   1.518  0.00  0.00    -0.284 N 
ATOM     19  H   UNL     1       1.959   4.795   0.587  0.00  0.00    +0.155 HD
ATOM     32  N   UNL     1       4.040   4.766   1.939  0.00  0.00    -0.223 NA
ATOM     33  C   UNL     1       5.222   4.870   2.691  0.00  0.00    +0.118 A 
ATOM     34  C   UNL     1       5.266   5.701   3.802  0.00  0.00    +0.065 A 
ENDROOT
BRANCH  18  20
ATOM     20  C   UNL     1       0.587   5.756   1.827  0.00  0.00    +0.034 A 
ATOM     21  C   UNL     1      -0.431   5.320   0.980  0.00  0.00    +0.025 A 
ATOM     22  C   UNL     1      -1.749   5.727   1.198  0.00  0.00    +0.028 A 
ATOM     23  C   UNL     1      -2.066   6.545   2.205  0.00  0.00    +0.051 A 
ATOM     24  N   UNL     1      -3.245   7.050   2.584  0.00  0.00    -0.346 N 
ATOM     25  C   UNL     1      -4.554   6.789   1.927  0.00  0.00    +0.149 C 
ATOM     26  C   UNL     1      -3.020   7.808   3.646  0.00  0.00    +0.035 A 
ATOM     27  C   UNL     1      -4.096   8.583   4.413  0.00  0.00    +0.065 C 
ATOM     28  C   UNL     1      -1.725   7.773   3.924  0.00  0.00    +0.069 A 
ATOM     29 CL   UNL     1      -0.982   8.621   5.228  0.00  0.00    -0.081 Cl
ATOM     30  C   UNL     1      -1.105   6.989   3.037  0.00  0.00    +0.020 A 
ATOM     31  C   UNL     1       0.184   6.623   2.877  0.00  0.00    +0.034 A 
ENDBRANCH  18  20
BRANCH   1   2
ATOM      2  N   UNL     1       4.087   7.220   5.231  0.00  0.00    -0.233 N 
ATOM      3  N   UNL     1       5.071   7.578   5.926  0.00  0.00    -0.267 N 
ATOM      4  H   UNL     1       6.091   7.321   5.732  0.00  0.00    +0.170 HD
ATOM      5  C   UNL     1       4.647   8.326   6.940  0.00  0.00    +0.021 C 
ATOM      6  C   UNL     1       5.572   8.962   7.986  0.00  0.00    +0.062 C 
ATOM      7  C   UNL     1       3.322   8.398   6.872  0.00  0.00    -0.019 C 
ATOM     15  C   UNL     1       2.973   7.716   5.788  0.00  0.00    +0.163 C 
BRANCH   7   8
ATOM      8  C   UNL     1       2.347   9.185   7.794  0.00  0.00    +0.118 C 
BRANCH   8   9
ATOM      9  N   UNL     1       1.156   8.454   8.286  0.00  0.00    -0.293 NA
ATOM     10  C   UNL     1       0.899   7.021   7.977  0.00  0.00    +0.117 C 
ATOM     11  C   UNL     1       0.258   6.941   9.340  0.00  0.00    +0.143 C 
ATOM     14  C   UNL     1       1.072   8.180   9.752  0.00  0.00    +0.117 C 
BRANCH  11  12
ATOM     12  O   UNL     1      -1.164   7.242   9.278  0.00  0.00    -0.389 OA
ATOM     13  H   UNL     1      -1.496   7.562  10.221  0.00  0.00    +0.210 HD
ENDBRANCH  11  12
ENDBRANCH   8   9
ENDBRANCH   7   8
ENDBRANCH   1   2
TORSDOF 5
