REMARK  Name = 4ase_ligand
REMARK  8 active torsions:
REMARK  status: ('A' for Active; 'I' for Inactive)
REMARK    1  A    between atoms: C1_1  and  O34_21
REMARK    2  A    between atoms: C6_6  and  O33_20
REMARK    3  A    between atoms: C10_10  and  O11_11
REMARK    4  A    between atoms: O11_11  and  C12_12
REMARK    5  A    between atoms: C15_14  and  N28_19
REMARK    6  A    between atoms: O33_20  and  C49_31
REMARK    7  A    between atoms: O34_21  and  C53_32
REMARK    8  A    between atoms: C40_26  and  C30_27
REMARK                            x       y       z     vdW  Elec       q    Type
REMARK                         _______ _______ _______ _____ _____    ______ ____
ROOT
ATOM     11  C   UNL     1     -22.729  -0.567 -13.281  0.00  0.00    +0.108 A 
ATOM     12  C   UNL     1     -22.535  -1.049 -11.975  0.00  0.00    +0.013 A 
ATOM     13  C   UNL     1     -23.620  -1.613 -11.292  0.00  0.00    +0.001 A 
ATOM     14  C   UNL     1     -24.919  -1.703 -11.899  0.00  0.00    +0.072 A 
ATOM     27  C   UNL     1     -25.112  -1.214 -13.228  0.00  0.00    +0.053 A 
ATOM     28 CL   UNL     1     -26.660  -1.299 -14.003  0.00  0.00    -0.085 Cl
ATOM     29  C   UNL     1     -24.017  -0.644 -13.930  0.00  0.00    +0.027 A 
ENDROOT
BRANCH  14  15
ATOM     15  N   UNL     1     -26.006  -2.272 -11.188  0.00  0.00    -0.220 N 
ATOM     16  H   UNL     1     -26.601  -2.924 -11.658  0.00  0.00    +0.224 HD
ATOM     17  C   UNL     1     -26.277  -1.953  -9.848  0.00  0.00    +0.311 C 
ATOM     18  N   UNL     1     -27.393  -2.663  -9.384  0.00  0.00    -0.216 N 
ATOM     19  H   UNL     1     -27.848  -3.281 -10.025  0.00  0.00    +0.221 HD
ATOM     20  C   UNL     1     -27.919  -2.571  -8.088  0.00  0.00    +0.115 A 
ATOM     21  N   UNL     1     -28.985  -3.295  -7.725  0.00  0.00    -0.168 NA
ATOM     22  O   UNL     1     -29.229  -2.965  -6.398  0.00  0.00    -0.193 OA
ATOM     23  C   UNL     1     -28.317  -2.051  -5.975  0.00  0.00    +0.124 A 
ATOM     24  C   UNL     1     -28.419  -1.580  -4.583  0.00  0.00    +0.142 C 
ATOM     25  C   UNL     1     -27.470  -1.767  -6.995  0.00  0.00    +0.013 A 
ATOM     26  O   UNL     1     -25.607  -1.162  -9.185  0.00  0.00    -0.383 OA
ENDBRANCH  14  15
BRANCH  11  10
ATOM     10  O   UNL     1     -21.643  -0.017 -13.910  0.00  0.00    -0.254 OA
BRANCH  10   9
ATOM      1  C   UNL     1     -17.630   2.779 -15.334  0.00  0.00    +0.128 A 
ATOM      4  C   UNL     1     -17.832   1.368 -15.169  0.00  0.00    +0.128 A 
ATOM      7  C   UNL     1     -19.114   0.904 -14.744  0.00  0.00    +0.030 A 
ATOM      8  C   UNL     1     -20.190   1.809 -14.475  0.00  0.00    +0.027 A 
ATOM      9  C   UNL     1     -21.493   1.384 -14.043  0.00  0.00    +0.135 A 
ATOM     30  C   UNL     1     -22.509   2.363 -13.789  0.00  0.00    +0.045 A 
ATOM     31  C   UNL     1     -22.189   3.707 -13.977  0.00  0.00    +0.063 A 
ATOM     32  N   UNL     1     -20.964   4.145 -14.390  0.00  0.00    -0.329 NA
ATOM     33  C   UNL     1     -19.979   3.235 -14.638  0.00  0.00    +0.017 A 
ATOM     34  C   UNL     1     -18.714   3.685 -15.063  0.00  0.00    +0.027 A 
BRANCH   1   2
ATOM      2  O   UNL     1     -16.362   3.156 -15.751  0.00  0.00    -0.318 OA
ATOM      3  C   UNL     1     -16.074   4.553 -15.939  0.00  0.00    +0.233 C 
ENDBRANCH   1   2
BRANCH   4   5
ATOM      5  O   UNL     1     -16.735   0.553 -15.441  0.00  0.00    -0.321 OA
ATOM      6  C   UNL     1     -16.861  -0.868 -15.291  0.00  0.00    +0.231 C 
ENDBRANCH   4   5
ENDBRANCH  10   9
ENDBRANCH  11  10
TORSDOF 5
