REMARK  Name = 4R5S
REMARK  14 active torsions:
REMARK  status: ('A' for Active; 'I' for Inactive)
REMARK    1  A    between atoms: C_1  and  C_2
REMARK    2  A    between atoms: C_2  and  C_3
REMARK    3  A    between atoms: N_5  and  C_6
REMARK    4  A    between atoms: C_11  and  C_12
REMARK    5  A    between atoms: C_12  and  N_13
REMARK    6  A    between atoms: N_13  and  C_29
REMARK    7  A    between atoms: N_16  and  C_17
REMARK    8  A    between atoms: C_22  and  O_23
REMARK    9  A    between atoms: O_23  and  C_24
REMARK   10  A    between atoms: C_26  and  O_27
REMARK   11  A    between atoms: O_27  and  C_28
REMARK   12  A    between atoms: N_35  and  C_36
REMARK   13  A    between atoms: C_41  and  N_42
REMARK   14  A    between atoms: N_45  and  C_46
REMARK                            x       y       z     vdW  Elec       q    Type
REMARK                         _______ _______ _______ _____ _____    ______ ____
ROOT
ATOM     11  N   UNL     1     -51.945   1.170 -24.979  0.00  0.00    -0.235 N 
ATOM     33  C   UNL     1     -51.914   0.869 -26.282  0.00  0.00    +0.312 C 
ATOM     34  N   UNL     1     -53.001   1.055 -27.032  0.00  0.00    -0.266 N 
ATOM     35  H   UNL     1     -53.903   1.470 -26.631  0.00  0.00    +0.157 HD
ATOM     48  O   UNL     1     -50.893   0.433 -26.790  0.00  0.00    -0.252 OA
ENDROOT
BRANCH  11  12
ATOM     12  C   UNL     1     -53.071   1.634 -24.475  0.00  0.00    +0.134 A 
ATOM     13  N   UNL     1     -53.973   2.176 -25.277  0.00  0.00    -0.220 NA
ATOM     14  C   UNL     1     -55.157   2.668 -24.767  0.00  0.00    +0.225 A 
ATOM     15  N   UNL     1     -55.393   2.584 -23.413  0.00  0.00    -0.221 NA
ATOM     16  C   UNL     1     -54.491   2.040 -22.606  0.00  0.00    +0.128 A 
ATOM     17  N   UNL     1     -54.773   1.986 -21.318  0.00  0.00    -0.299 N 
ATOM     18  H   UNL     1     -55.755   2.238 -20.977  0.00  0.00    +0.154 HD
ATOM     32  C   UNL     1     -53.308   1.552 -23.115  0.00  0.00    +0.088 A 
BRANCH  17  19
ATOM     19  C   UNL     1     -53.849   1.622 -20.448  0.00  0.00    +0.033 A 
ATOM     20  C   UNL     1     -53.744   2.322 -19.265  0.00  0.00    +0.025 A 
ATOM     21  C   UNL     1     -52.806   1.970 -18.318  0.00  0.00    +0.025 A 
ATOM     22  C   UNL     1     -51.977   0.902 -18.556  0.00  0.00    +0.030 A 
ATOM     30  C   UNL     1     -52.080   0.190 -19.733  0.00  0.00    +0.025 A 
ATOM     31  C   UNL     1     -53.023   0.547 -20.683  0.00  0.00    +0.025 A 
BRANCH  22  23
ATOM     23  N   UNL     1     -51.073   0.570 -17.645  0.00  0.00    -0.328 N 
ATOM     24  C   UNL     1     -50.899   1.409 -16.458  0.00  0.00    +0.120 C 
ATOM     25  C   UNL     1     -50.680   0.562 -15.243  0.00  0.00    +0.103 C 
ATOM     26  N   UNL     1     -49.605  -0.395 -15.477  0.00  0.00    -0.302 NA
ATOM     27  C   UNL     1     -49.418  -1.171 -14.250  0.00  0.00    +0.105 C 
ATOM     28  C   UNL     1     -50.007  -1.321 -16.534  0.00  0.00    +0.103 C 
ATOM     29  C   UNL     1     -50.232  -0.611 -17.839  0.00  0.00    +0.120 C 
ENDBRANCH  22  23
ENDBRANCH  17  19
ENDBRANCH  11  12
BRANCH  34  36
ATOM     36  C   UNL     1     -52.897   0.695 -28.305  0.00  0.00    +0.079 A 
ATOM     37  C   UNL     1     -53.419  -0.516 -28.689  0.00  0.00    +0.105 A 
ATOM     38  C   UNL     1     -53.312  -0.914 -30.006  0.00  0.00    +0.144 A 
ATOM     39  C   UNL     1     -52.691  -0.130 -30.947  0.00  0.00    +0.094 A 
ATOM     40  C   UNL     1     -52.183   1.074 -30.526  0.00  0.00    +0.144 A 
ATOM     45 CL   UNL     1     -54.153  -1.472 -27.611  0.00  0.00    -0.078 Cl
ATOM     46  C   UNL     1     -52.269   1.502 -29.222  0.00  0.00    +0.105 A 
ATOM     47 CL   UNL     1     -51.652   2.921 -28.825  0.00  0.00    -0.078 Cl
BRANCH  40  41
ATOM     41  O   UNL     1     -51.568   1.882 -31.391  0.00  0.00    -0.493 OA
ATOM     42  C   UNL     1     -51.123   0.999 -32.413  0.00  0.00    +0.277 C 
ENDBRANCH  40  41
BRANCH  38  43
ATOM     43  O   UNL     1     -53.832  -2.110 -30.333  0.00  0.00    -0.493 OA
ATOM     44  C   UNL     1     -52.886  -2.728 -31.205  0.00  0.00    +0.277 C 
ENDBRANCH  38  43
ENDBRANCH  34  36
BRANCH  11  10
ATOM     10  C   UNL     1     -50.770   0.994 -24.133  0.00  0.00    +0.152 C 
BRANCH  10   9
ATOM      6  C   UNL     1     -50.751  -2.945 -22.879  0.00  0.00    +0.033 A 
ATOM      7  C   UNL     1     -50.297  -1.960 -22.024  0.00  0.00    +0.023 A 
ATOM      8  C   UNL     1     -50.298  -0.637 -22.435  0.00  0.00    +0.007 A 
ATOM      9  C   UNL     1     -50.752  -0.308 -23.699  0.00  0.00    -0.029 A 
ATOM     49  C   UNL     1     -51.202  -1.291 -24.550  0.00  0.00    +0.007 A 
ATOM     50  C   UNL     1     -51.198  -2.611 -24.141  0.00  0.00    +0.023 A 
BRANCH   6   4
ATOM      3  C   UNL     1     -50.506  -4.463 -21.235  0.00  0.00    +0.217 C 
ATOM      4  N   UNL     1     -50.748  -4.213 -22.510  0.00  0.00    -0.285 N 
ATOM      5  H   UNL     1     -50.933  -5.001 -23.210  0.00  0.00    +0.155 HD
ATOM     51  O   UNL     1     -50.309  -3.600 -20.395  0.00  0.00    -0.276 OA
BRANCH   3   2
ATOM      1  C   UNL     1     -51.080  -6.076 -19.483  0.00  0.00    +0.013 C 
ATOM      2  C   UNL     1     -50.485  -5.925 -20.866  0.00  0.00    +0.093 C 
ENDBRANCH   3   2
ENDBRANCH   6   4
ENDBRANCH  10   9
ENDBRANCH  11  10
TORSDOF 10
