REMARK  Name = 1rw8_ligand
REMARK  3 active torsions:
REMARK  status: ('A' for Active; 'I' for Inactive)
REMARK    1  A    between atoms: C1_1  and  C16_10
REMARK    2  A    between atoms: C2_2  and  C15_9
REMARK    3  A    between atoms: C29_19  and  C35_22
REMARK                            x       y       z     vdW  Elec       q    Type
REMARK                         _______ _______ _______ _____ _____    ______ ____
ROOT
ATOM      1  C   UNL     1       5.604  15.478  10.842  0.00  0.00    +0.011 A 
ATOM      9  C   UNL     1       5.970  14.253  11.373  0.00  0.00    +0.087 A 
ATOM     10  C   UNL     1       6.928  13.708  12.384  0.00  0.00    +0.115 C 
ATOM     11  C   UNL     1       6.603  12.195  12.289  0.00  0.00    +0.056 C 
ATOM     12  C   UNL     1       5.486  11.950  11.232  0.00  0.00    +0.203 C 
ATOM     13  N   UNL     1       5.236  13.319  10.786  0.00  0.00    -0.196 N 
ATOM     14  N   UNL     1       4.332  13.743   9.844  0.00  0.00    -0.211 NA
ATOM     15  C   UNL     1       4.531  15.103   9.848  0.00  0.00    +0.055 A 
ENDROOT
BRANCH   1   2
ATOM      2  C   UNL     1       6.169  16.826  11.209  0.00  0.00    -0.043 A 
ATOM      3  C   UNL     1       7.567  17.065  11.194  0.00  0.00    -0.012 A 
ATOM      4  C   UNL     1       8.092  18.342  11.536  0.00  0.00    +0.024 A 
ATOM      5  C   UNL     1       7.196  19.377  11.890  0.00  0.00    +0.126 A 
ATOM      6  F   UNL     1       7.665  20.572  12.205  0.00  0.00    -0.189 F 
ATOM      7  C   UNL     1       5.812  19.162  11.912  0.00  0.00    +0.024 A 
ATOM      8  C   UNL     1       5.309  17.882  11.571  0.00  0.00    -0.012 A 
ENDBRANCH   1   2
BRANCH  15  16
ATOM     16  C   UNL     1       3.731  15.985   8.962  0.00  0.00    +0.046 A 
ATOM     17  N   UNL     1       2.374  15.731   8.866  0.00  0.00    -0.296 NA
ATOM     18  C   UNL     1       1.552  16.459   8.099  0.00  0.00    +0.022 A 
ATOM     19  C   UNL     1       0.114  16.057   8.104  0.00  0.00    +0.110 C 
ATOM     20  C   UNL     1       2.035  17.541   7.334  0.00  0.00    +0.029 A 
ATOM     21  C   UNL     1       3.420  17.833   7.408  0.00  0.00    +0.021 A 
ATOM     22  C   UNL     1       4.278  17.055   8.220  0.00  0.00    +0.029 A 
ENDBRANCH  15  16
TORSDOF 2
