REMARK  Name = 3vf9_ligand
REMARK  5 active torsions:
REMARK  status: ('A' for Active; 'I' for Inactive)
REMARK    1  A    between atoms: CAT_1  and  CAR_2
REMARK    2  A    between atoms: CAR_2  and  CAW_3
REMARK    3  A    between atoms: CAR_2  and  OAS_4
REMARK    4  A    between atoms: CAR_2  and  CAJ_5
REMARK    5  A    between atoms: CAD_13  and  CAC_14
REMARK                            x       y       z     vdW  Elec       q    Type
REMARK                         _______ _______ _______ _____ _____    ______ ____
ROOT
ATOM      3  C   UNL     1       2.221  -2.720 -15.570  0.00  0.00    -0.060 A 
ATOM      4  C   UNL     1       2.394  -1.661 -14.671  0.00  0.00    +0.001 A 
ATOM      5  C   UNL     1       1.321  -0.835 -14.333  0.00  0.00    +0.009 A 
ATOM      6  C   UNL     1       0.065  -1.069 -14.893  0.00  0.00    +0.005 A 
ATOM      7  C   UNL     1      -0.115  -2.118 -15.788  0.00  0.00    +0.095 A 
ATOM      8  N   UNL     1      -1.391  -2.096 -16.158  0.00  0.00    -0.256 N 
ATOM      9  H   UNL     1      -1.831  -2.740 -16.815  0.00  0.00    +0.229 HD
ATOM     10  C   UNL     1      -2.002  -1.091 -15.527  0.00  0.00    +0.113 A 
ATOM     20  C   UNL     1      -1.110  -0.462 -14.759  0.00  0.00    +0.019 A 
ATOM     21  C   UNL     1       0.957  -2.949 -16.123  0.00  0.00    +0.057 A 
ENDROOT
BRANCH  10  11
ATOM     11  C   UNL     1      -3.350  -0.765 -15.667  0.00  0.00    +0.147 A 
ATOM     12  C   UNL     1      -4.008   0.202 -14.928  0.00  0.00    +0.079 A 
ATOM     13  S   UNL     1      -3.910   1.413 -13.765  0.00  0.00    -0.048 S 
ATOM     14  C   UNL     1      -5.533   1.875 -13.851  0.00  0.00    +0.071 A 
ATOM     15  C   UNL     1      -6.111   1.102 -14.784  0.00  0.00    -0.011 A 
ATOM     16  C   UNL     1      -5.320   0.191 -15.393  0.00  0.00    +0.049 A 
ATOM     17  N   UNL     1      -5.352  -0.767 -16.328  0.00  0.00    -0.209 NA
ATOM     18  N   UNL     1      -4.252  -1.315 -16.476  0.00  0.00    -0.210 N 
ATOM     19  H   UNL     1      -4.064  -2.079 -17.125  0.00  0.00    +0.256 HD
ENDBRANCH  10  11
BRANCH   3   2
ATOM      1  C   UNL     1       4.687  -3.181 -15.269  0.00  0.00    -0.047 C 
ATOM      2  C   UNL     1       3.394  -3.647 -15.946  0.00  0.00    +0.019 C 
ATOM     24  C   UNL     1       3.056  -5.067 -15.483  0.00  0.00    -0.047 C 
BRANCH   2  22
ATOM     22  O   UNL     1       3.557  -3.626 -17.367  0.00  0.00    -0.448 OA
ATOM     23  H   UNL     1       3.769  -2.734 -17.651  0.00  0.00    +0.188 HD
ENDBRANCH   2  22
ENDBRANCH   3   2
TORSDOF 3
