REMARK  Name = 4KS7
REMARK  10 active torsions:
REMARK  status: ('A' for Active; 'I' for Inactive)
REMARK    1  A    between atoms: C_5  and  C_10
REMARK    2  A    between atoms: C_5  and  C_11
REMARK    3  A    between atoms: N_7  and  C_12
REMARK    4  A    between atoms: N_16  and  C_21
REMARK    5  A    between atoms: C_20  and  C_25
REMARK    6  A    between atoms: C_21  and  C_26
REMARK    7  A    between atoms: C_21  and  C_27
REMARK    8  A    between atoms: C_27  and  N_30
REMARK    9  A    between atoms: N_30  and  C_34
REMARK   10  A    between atoms: N_30  and  C_35
REMARK                            x       y       z     vdW  Elec       q    Type
REMARK                         _______ _______ _______ _____ _____    ______ ____
ROOT
ATOM      1  C   UNL     1      30.227  39.078  27.838  0.00  0.00    +0.034 A 
ATOM      2  C   UNL     1      31.446  38.201  27.729  0.00  0.00    +0.150 C 
ATOM      3  N   UNL     1      32.468  39.115  28.359  0.00  0.00    -0.270 N 
ATOM      4  C   UNL     1      33.778  38.840  28.329  0.00  0.00    +0.304 C 
ATOM      5  O   UNL     1      34.589  39.500  28.991  0.00  0.00    -0.253 OA
ATOM      6  N   UNL     1      34.191  37.747  27.683  0.00  0.00    -0.291 N 
ATOM      7  H   UNL     1      33.482  37.092  27.222  0.00  0.00    +0.151 HD
ATOM     19  C   UNL     1      31.906  40.347  29.014  0.00  0.00    +0.075 C 
ATOM     20  C   UNL     1      31.945  40.134  30.540  0.00  0.00    +0.038 C 
ATOM     21  C   UNL     1      32.567  41.671  28.629  0.00  0.00    +0.038 C 
ATOM     22  C   UNL     1      28.809  39.295  27.521  0.00  0.00    +0.151 A 
ATOM     23  N   UNL     1      28.373  40.491  27.935  0.00  0.00    -0.158 NA
ATOM     24  N   UNL     1      29.427  41.127  28.623  0.00  0.00    -0.277 N 
ATOM     25  H   UNL     1      29.393  42.080  29.109  0.00  0.00    +0.189 HD
ATOM     26  N   UNL     1      27.968  38.552  26.729  0.00  0.00    -0.282 N 
ATOM     27  H   UNL     1      27.123  39.042  26.292  0.00  0.00    +0.155 HD
ATOM     38  C   UNL     1      30.498  40.287  28.546  0.00  0.00    +0.066 A 
ENDROOT
BRANCH  26  28
ATOM     28  C   UNL     1      28.146  37.238  26.470  0.00  0.00    +0.142 A 
ATOM     29  N   UNL     1      29.027  36.531  27.224  0.00  0.00    -0.216 NA
ATOM     30  C   UNL     1      29.172  35.196  27.181  0.00  0.00    +0.129 A 
ATOM     31  C   UNL     1      30.241  34.497  27.972  0.00  0.00    +0.088 C 
ATOM     32  N   UNL     1      28.403  34.456  26.382  0.00  0.00    -0.232 NA
ATOM     33  C   UNL     1      27.435  35.050  25.640  0.00  0.00    +0.083 A 
ATOM     34  C   UNL     1      26.502  34.418  24.749  0.00  0.00    +0.036 A 
ATOM     35  C   UNL     1      25.656  35.388  24.176  0.00  0.00    +0.048 A 
ATOM     36  S   UNL     1      25.976  37.057  24.660  0.00  0.00    -0.092 S 
ATOM     37  C   UNL     1      27.195  36.472  25.666  0.00  0.00    +0.078 A 
ENDBRANCH  26  28
BRANCH   6   8
ATOM      8  C   UNL     1      35.633  37.451  27.611  0.00  0.00    +0.119 C 
BRANCH   8  13
ATOM     13  C   UNL     1      36.246  36.834  28.836  0.00  0.00    -0.026 A 
ATOM     14  C   UNL     1      35.497  36.087  29.714  0.00  0.00    +0.005 A 
ATOM     15  C   UNL     1      36.103  35.541  30.860  0.00  0.00    +0.000 A 
ATOM     16  C   UNL     1      37.469  35.745  31.120  0.00  0.00    +0.000 A 
ATOM     17  C   UNL     1      38.230  36.498  30.235  0.00  0.00    +0.000 A 
ATOM     18  C   UNL     1      37.612  37.027  29.110  0.00  0.00    +0.005 A 
ENDBRANCH   8  13
BRANCH   8   9
ATOM      9  C   UNL     1      36.047  36.661  26.336  0.00  0.00    +0.110 C 
BRANCH   9  10
ATOM     10  N   UNL     1      36.185  37.552  25.147  0.00  0.00    -0.306 NA
ATOM     11  C   UNL     1      35.048  38.445  24.789  0.00  0.00    +0.104 C 
ATOM     12  C   UNL     1      36.490  36.684  23.977  0.00  0.00    +0.104 C 
ENDBRANCH   9  10
ENDBRANCH   8   9
ENDBRANCH   6   8
TORSDOF 5
