REMARK  Name = 5GD
REMARK  3 active torsions:
REMARK  status: ('A' for Active; 'I' for Inactive)
REMARK    1  A    between atoms: C5_2  and  C4_8
REMARK    2  A    between atoms: C1_4  and  O_11
REMARK    3  A    between atoms: C21_5  and  O3_9
REMARK                            x       y       z     vdW  Elec       q    Type
REMARK                         _______ _______ _______ _____ _____    ______ ____
ROOT
ATOM      1  C   UNL     1      11.766   6.696   1.292  0.00  0.00    +0.100 A 
ATOM      2  N   UNL     1      12.162   7.452   2.370  0.00  0.00    -0.128 NA
ATOM      3  C   UNL     1      10.436   6.926   0.824  0.00  0.00    +0.055 A 
ATOM      4  C   UNL     1       9.971   6.176  -0.187  0.00  0.00    +0.143 A 
ATOM      7  C   UNL     1      10.748   5.229  -0.830  0.00  0.00    +0.074 A 
ATOM      8  C   UNL     1      12.063   4.987  -0.399  0.00  0.00    +0.147 A 
ATOM     11  C   UNL     1      12.559   5.749   0.636  0.00  0.00    +0.107 A 
ENDROOT
BRANCH  11  12
ATOM     12  C   UNL     1      13.943   5.581   1.168  0.00  0.00    +0.288 C 
ATOM     13  N   UNL     1      14.244   6.321   2.297  0.00  0.00    -0.084 NA
ATOM     14  O   UNL     1      14.829   4.841   0.688  0.00  0.00    -0.267 OA
ENDBRANCH  11  12
BRANCH   4   5
ATOM      5  O   UNL     1       8.715   6.287  -0.729  0.00  0.00    -0.471 OA
ATOM      6  C   UNL     1       7.784   7.206  -0.149  0.00  0.00    +0.253 C 
ENDBRANCH   4   5
BRANCH   8   9
ATOM      9  O   UNL     1      12.835   4.005  -0.910  0.00  0.00    -0.471 OA
ATOM     10  C   UNL     1      12.272   3.090  -1.834  0.00  0.00    +0.253 C 
ENDBRANCH   8   9
TORSDOF 3
