REMARK  Name = 2xke_ligand
REMARK  4 active torsions:
REMARK  status: ('A' for Active; 'I' for Inactive)
REMARK    1  A    between atoms: CAW_3  and  CAQ_4
REMARK    2  A    between atoms: CAU_16  and  CAT_17
REMARK    3  A    between atoms: CAS_22  and  OAP_23
REMARK    4  A    between atoms: OAP_23  and  CAA_24
REMARK                            x       y       z     vdW  Elec       q    Type
REMARK                         _______ _______ _______ _____ _____    ______ ____
ROOT
ATOM      1  C   UNL     1     -22.746   7.210  16.448  0.00  0.00    +0.135 C 
ATOM      2  N   UNL     1     -24.223   7.149  16.676  0.00  0.00    -0.291 N 
ATOM      3  C   UNL     1     -24.721   6.890  17.979  0.00  0.00    +0.165 A 
ATOM      4  C   UNL     1     -24.539   5.614  18.602  0.00  0.00    +0.162 A 
ATOM      5  N   UNL     1     -24.938   5.443  19.905  0.00  0.00    -0.275 NA
ATOM      6  C   UNL     1     -25.479   6.477  20.572  0.00  0.00    +0.092 A 
ATOM      7  C   UNL     1     -25.647   7.741  19.969  0.00  0.00    +0.047 A 
ATOM     16  N   UNL     1     -24.013   4.492  18.000  0.00  0.00    -0.318 N 
ATOM     17  H   UNL     1     -23.693   4.535  17.032  0.00  0.00    +0.177 HD
ATOM     18  H   UNL     1     -23.944   3.618  18.522  0.00  0.00    +0.177 HD
ATOM     19  N   UNL     1     -25.260   7.927  18.683  0.00  0.00    -0.272 NA
ATOM     20  C   UNL     1     -24.980   8.077  15.777  0.00  0.00    +0.135 C 
ATOM     21  C   UNL     1     -24.524   7.858  14.322  0.00  0.00    +0.043 C 
ATOM     22  C   UNL     1     -23.022   7.992  14.084  0.00  0.00    +0.062 C 
ATOM     26  C   UNL     1     -22.349   6.982  14.986  0.00  0.00    +0.043 C 
ENDROOT
BRANCH   7   8
ATOM      8  C   UNL     1     -26.284   8.824  20.769  0.00  0.00    -0.016 A 
ATOM      9  C   UNL     1     -26.080  10.139  20.313  0.00  0.00    -0.010 A 
ATOM     10  C   UNL     1     -26.628  11.243  20.984  0.00  0.00    -0.010 A 
ATOM     11  C   UNL     1     -27.408  11.051  22.131  0.00  0.00    +0.022 A 
ATOM     12  C   UNL     1     -27.619   9.738  22.572  0.00  0.00    +0.091 A 
ATOM     15  C   UNL     1     -27.068   8.630  21.904  0.00  0.00    +0.030 A 
BRANCH  12  13
ATOM     13  O   UNL     1     -28.332   9.452  23.705  0.00  0.00    -0.321 OA
ATOM     14  C   UNL     1     -29.291  10.397  24.146  0.00  0.00    +0.232 C 
ENDBRANCH  12  13
ENDBRANCH   7   8
BRANCH  22  23
ATOM     23  C   UNL     1     -22.618   7.731  12.653  0.00  0.00    +0.038 C 
ATOM     24  O   UNL     1     -23.323   8.485  11.779  0.00  0.00    -0.569 OA
ATOM     25  O   UNL     1     -21.920   6.814  12.227  0.00  0.00    -0.569 OA
ENDBRANCH  22  23
TORSDOF 3
