REMARK  Name = A13F
REMARK  7 active torsions:
REMARK  status: ('A' for Active; 'I' for Inactive)
REMARK    1  A    between atoms: C4_1  and  C3_9
REMARK    2  A    between atoms: C5_2  and  S_15
REMARK    3  A    between atoms: C6_3  and  N2_8
REMARK    4  A    between atoms: C7_4  and  C8_5
REMARK    5  A    between atoms: N1_7  and  C1_11
REMARK    6  A    between atoms: N2_8  and  S_15
REMARK    7  A    between atoms: C3_9  and  C2_12
REMARK                            x       y       z     vdW  Elec       q    Type
REMARK                         _______ _______ _______ _____ _____    ______ ____
ROOT
ATOM      1  C   UNL     1       6.586   3.900  22.121  0.00  0.00    +0.002 C 
ATOM      9  C   UNL     1       6.747   2.791  21.375  0.00  0.00    +0.142 C 
ENDROOT
BRANCH   9  10
ATOM     10  S   UNL     1       6.036   1.428  21.872  0.00  0.00    +0.094 S 
ATOM     16  O   UNL     1       4.760   1.730  22.204  0.00  0.00    -0.148 OA
ATOM     17  O   UNL     1       6.290   0.180  21.037  0.00  0.00    -0.148 OA
BRANCH  10  11
ATOM     11  N   UNL     1       6.592   1.140  23.417  0.00  0.00    -0.095 NA
BRANCH  11  12
ATOM     12  C   UNL     1       7.821   0.507  23.831  0.00  0.00    +0.108 C 
ATOM     13  C   UNL     1       8.445   1.013  24.830  0.00  0.00    +0.019 C 
BRANCH  13  14
ATOM     14  C   UNL     1       9.737   0.710  25.055  0.00  0.00    +0.001 C 
ATOM     15  C   UNL     1      10.399  -0.120  24.278  0.00  0.00    +0.000 C 
ENDBRANCH  13  14
ENDBRANCH  11  12
ENDBRANCH  10  11
ENDBRANCH   9  10
BRANCH   1   2
ATOM      2  C   UNL     1       7.181   5.066  21.788  0.00  0.00    +0.072 C 
BRANCH   2   3
ATOM      3  C   UNL     1       7.977   5.062  20.664  0.00  0.00    +0.069 C 
ATOM      4  N   UNL     1       8.696   6.109  20.458  0.00  0.00    -0.164 NA
BRANCH   4   5
ATOM      5  C   UNL     1       9.594   6.217  19.525  0.00  0.00    +0.343 C 
ATOM      6  O   UNL     1      10.165   7.099  19.550  0.00  0.00    -0.249 OA
ATOM      7  N   UNL     1       9.772   5.160  18.769  0.00  0.00    -0.185 NA
ATOM      8  C   UNL     1      10.886   5.117  17.867  0.00  0.00    +0.140 C 
ENDBRANCH   4   5
ENDBRANCH   2   3
ENDBRANCH   1   2
TORSDOF 7
