REMARK  Name = 4XZ4
REMARK  3 active torsions:
REMARK  status: ('A' for Active; 'I' for Inactive)
REMARK    1  A    between atoms: C_1  and  C_2
REMARK    2  A    between atoms: C_9  and  O_20
REMARK    3  A    between atoms: O_20  and  C_21
REMARK                            x       y       z     vdW  Elec       q    Type
REMARK                         _______ _______ _______ _____ _____    ______ ____
ROOT
ATOM      1  C   UNL     1      14.220  62.115  23.678  0.00  0.00    +0.109 C 
ATOM      2  C   UNL     1      15.697  62.094  23.325  0.00  0.00    +0.216 C 
ATOM      3  N   UNL     1      16.505  61.108  23.828  0.00  0.00    -0.265 N 
ATOM      4  H   UNL     1      16.069  60.403  24.505  0.00  0.00    +0.157 HD
ATOM      5  C   UNL     1      17.863  60.960  23.517  0.00  0.00    +0.165 A 
ATOM      6  S   UNL     1      18.682  61.809  22.251  0.00  0.00    -0.055 S 
ATOM      7  C   UNL     1      20.182  60.936  22.633  0.00  0.00    +0.032 A 
ATOM      8  C   UNL     1      21.515  61.122  21.923  0.00  0.00    +0.150 C 
ATOM      9  N   UNL     1      22.635  60.574  22.709  0.00  0.00    -0.309 N 
ATOM     10  C   UNL     1      23.815  60.526  21.916  0.00  0.00    +0.144 A 
ATOM     11  N   UNL     1      23.883  61.172  20.722  0.00  0.00    -0.195 NA
ATOM     12  C   UNL     1      25.011  61.140  19.960  0.00  0.00    +0.235 A 
ATOM     15  C   UNL     1      26.128  60.397  20.416  0.00  0.00    +0.178 A 
ATOM     16  N   UNL     1      26.086  59.752  21.583  0.00  0.00    -0.255 NA
ATOM     17  C   UNL     1      24.971  59.807  22.330  0.00  0.00    +0.154 A 
ATOM     18  C   UNL     1      22.273  59.262  23.293  0.00  0.00    +0.113 C 
ATOM     19  C   UNL     1      21.039  59.179  24.198  0.00  0.00    +0.075 C 
ATOM     20  C   UNL     1      19.941  60.061  23.646  0.00  0.00    +0.057 A 
ATOM     21  N   UNL     1      18.677  60.101  24.085  0.00  0.00    -0.229 NA
ATOM     22  O   UNL     1      16.129  62.972  22.590  0.00  0.00    -0.276 OA
ENDROOT
BRANCH  12  13
ATOM     13  O   UNL     1      25.076  61.782  18.735  0.00  0.00    -0.479 OA
ATOM     14  C   UNL     1      24.998  63.218  18.603  0.00  0.00    +0.279 C 
ENDBRANCH  12  13
TORSDOF 1
