REMARK  Name = 5CT0
REMARK  7 active torsions:
REMARK  status: ('A' for Active; 'I' for Inactive)
REMARK    1  A    between atoms: C_1  and  N_16
REMARK    2  A    between atoms: C_1  and  C_17
REMARK    3  A    between atoms: C_2  and  C_15
REMARK    4  A    between atoms: C_7  and  C_8
REMARK    5  A    between atoms: C_15  and  N_16
REMARK    6  A    between atoms: C_17  and  C_18
REMARK    7  A    between atoms: C_18  and  O_19
REMARK                            x       y       z     vdW  Elec       q    Type
REMARK                         _______ _______ _______ _____ _____    ______ ____
ROOT
ATOM      9  C   UNL     1       3.938 137.248 355.174  0.00  0.00    -0.032 A 
ATOM     10  C   UNL     1       5.087 138.019 355.253  0.00  0.00    +0.025 A 
ATOM     11  C   UNL     1       5.053 139.361 354.928  0.00  0.00    +0.049 A 
ATOM     12  C   UNL     1       3.876 139.985 354.522  0.00  0.00    +0.001 A 
ATOM     19  C   UNL     1       2.726 139.203 354.452  0.00  0.00    +0.010 A 
ATOM     20 CL   UNL     1       6.528 140.265 355.027  0.00  0.00    -0.083 Cl
ATOM     21  C   UNL     1       2.763 137.859 354.773  0.00  0.00    +0.005 A 
ENDROOT
BRANCH  12  13
ATOM     13  C   UNL     1       3.795 141.427 354.159  0.00  0.00    -0.017 A 
ATOM     14  C   UNL     1       2.710 142.203 354.554  0.00  0.00    +0.008 A 
ATOM     15  C   UNL     1       2.641 143.545 354.224  0.00  0.00    +0.001 A 
ATOM     16  C   UNL     1       3.649 144.134 353.495  0.00  0.00    +0.000 A 
ATOM     17  C   UNL     1       4.729 143.379 353.091  0.00  0.00    +0.001 A 
ATOM     18  C   UNL     1       4.805 142.036 353.421  0.00  0.00    +0.008 A 
ENDBRANCH  12  13
BRANCH   9   8
ATOM      8  C   UNL     1       3.965 135.774 355.495  0.00  0.00    +0.116 C 
BRANCH   8   6
ATOM      6  N   UNL     1       5.021 135.399 356.434  0.00  0.00    -0.312 NA
ATOM      7  H   UNL     1       5.757 136.175 356.450  0.00  0.00    +0.122 HD
BRANCH   6   1
ATOM      1  C   UNL     1       5.673 134.142 356.070  0.00  0.00    +0.083 C 
BRANCH   1   2
ATOM      2  C   UNL     1       6.125 133.357 357.280  0.00  0.00    +0.043 C 
BRANCH   2   3
ATOM      3  C   UNL     1       6.680 132.011 356.932  0.00  0.00    +0.157 C 
BRANCH   3   4
ATOM      4  O   UNL     1       5.667 131.025 356.956  0.00  0.00    -0.395 OA
ATOM      5  H   UNL     1       5.247 130.978 357.917  0.00  0.00    +0.209 HD
ENDBRANCH   3   4
ENDBRANCH   2   3
ENDBRANCH   1   2
ENDBRANCH   6   1
ENDBRANCH   8   6
ENDBRANCH   9   8
TORSDOF 7
