REMARK  Name = 5M4M
REMARK  10 active torsions:
REMARK  status: ('A' for Active; 'I' for Inactive)
REMARK    1  A    between atoms: C_1  and  O_7
REMARK    2  A    between atoms: C_3  and  O_8
REMARK    3  A    between atoms: C_4  and  C_9
REMARK    4  A    between atoms: N_11  and  C_12
REMARK    5  A    between atoms: N_11  and  C_19
REMARK    6  A    between atoms: C_12  and  C_13
REMARK    7  A    between atoms: C_22  and  C_25
REMARK    8  A    between atoms: N_26  and  C_28
REMARK    9  A    between atoms: N_26  and  C_29
REMARK   10  A    between atoms: C_29  and  C_30
REMARK                            x       y       z     vdW  Elec       q    Type
REMARK                         _______ _______ _______ _____ _____    ______ ____
ROOT
ATOM      9  C   UNL     1      42.088 -48.679  -9.578  0.00  0.00    +0.037 A 
ATOM     10  C   UNL     1      42.185 -48.904  -8.247  0.00  0.00    +0.024 A 
ATOM     11  C   UNL     1      42.855 -48.006  -7.467  0.00  0.00    +0.015 A 
ATOM     12  C   UNL     1      43.378 -46.865  -7.998  0.00  0.00    +0.037 A 
ATOM     28  C   UNL     1      43.293 -46.632  -9.344  0.00  0.00    +0.015 A 
ATOM     29  C   UNL     1      42.608 -47.537 -10.128  0.00  0.00    +0.024 A 
ENDROOT
BRANCH  12  13
ATOM     13  C   UNL     1      44.135 -45.867  -7.119  0.00  0.00    +0.247 C 
ATOM     14  O   UNL     1      43.417 -45.400  -6.242  0.00  0.00    -0.270 OA
ATOM     15  N   UNL     1      45.394 -45.583  -7.206  0.00  0.00    -0.296 N 
ATOM     27  C   UNL     1      46.246 -46.403  -8.049  0.00  0.00    +0.133 C 
BRANCH  15  16
ATOM     16  C   UNL     1      45.936 -44.562  -6.278  0.00  0.00    +0.143 C 
BRANCH  16  17
ATOM     17  C   UNL     1      46.330 -45.172  -4.937  0.00  0.00    -0.028 A 
ATOM     18  C   UNL     1      46.434 -46.529  -4.841  0.00  0.00    +0.035 A 
ATOM     19  C   UNL     1      46.832 -47.128  -3.685  0.00  0.00    +0.089 A 
ATOM     20  N   UNL     1      46.913 -48.455  -3.619  0.00  0.00    -0.252 NA
ATOM     21  C   UNL     1      47.292 -49.045  -2.507  0.00  0.00    +0.131 A 
ATOM     22  C   UNL     1      47.615 -48.282  -1.396  0.00  0.00    +0.131 A 
ATOM     23  N   UNL     1      47.538 -46.972  -1.465  0.00  0.00    -0.252 NA
ATOM     24  C   UNL     1      47.147 -46.364  -2.591  0.00  0.00    +0.089 A 
ATOM     25  C   UNL     1      47.054 -44.992  -2.672  0.00  0.00    +0.030 A 
ATOM     26  C   UNL     1      46.647 -44.401  -3.846  0.00  0.00    +0.007 A 
ENDBRANCH  16  17
ENDBRANCH  15  16
ENDBRANCH  12  13
BRANCH   9   8
ATOM      7  C   UNL     1      40.150 -49.212 -10.550  0.00  0.00    +0.255 C 
ATOM      8  N   UNL     1      41.388 -49.523 -10.251  0.00  0.00    -0.263 N 
ATOM     37  O   UNL     1      39.374 -49.978 -11.022  0.00  0.00    -0.270 OA
BRANCH   7   6
ATOM      1  C   UNL     1      38.812 -45.181 -10.074  0.00  0.00    +0.120 A 
ATOM      4  C   UNL     1      39.136 -45.895  -8.953  0.00  0.00    +0.046 A 
ATOM      5  C   UNL     1      39.562 -47.200  -9.084  0.00  0.00    +0.020 A 
ATOM      6  C   UNL     1      39.678 -47.780 -10.330  0.00  0.00    +0.079 A 
ATOM     38  C   UNL     1      39.347 -47.056 -11.422  0.00  0.00    +0.132 A 
ATOM     41  C   UNL     1      38.916 -45.765 -11.303  0.00  0.00    +0.091 A 
BRANCH   1   2
ATOM      2  O   UNL     1      38.395 -43.930 -10.006  0.00  0.00    -0.507 OA
ATOM      3  H   UNL     1      39.053 -43.312 -10.542  0.00  0.00    +0.292 HD
ENDBRANCH   1   2
BRANCH  38  39
ATOM     39  O   UNL     1      39.460 -47.620 -12.611  0.00  0.00    -0.506 OA
ATOM     40  H   UNL     1      38.524 -47.627 -13.086  0.00  0.00    +0.292 HD
ENDBRANCH  38  39
ENDBRANCH   7   6
BRANCH   8  30
ATOM     30  C   UNL     1      41.818 -50.886 -10.315  0.00  0.00    +0.149 C 
BRANCH  30  31
ATOM     31  C   UNL     1      43.031 -51.182 -11.150  0.00  0.00    -0.030 A 
ATOM     32  C   UNL     1      44.271 -50.891 -10.664  0.00  0.00    +0.005 A 
ATOM     33  C   UNL     1      45.373 -51.143 -11.438  0.00  0.00    +0.000 A 
ATOM     34  C   UNL     1      45.216 -51.677 -12.693  0.00  0.00    +0.000 A 
ATOM     35  C   UNL     1      43.965 -51.946 -13.184  0.00  0.00    +0.000 A 
ATOM     36  C   UNL     1      42.869 -51.692 -12.406  0.00  0.00    +0.005 A 
ENDBRANCH  30  31
ENDBRANCH   8  30
ENDBRANCH   9   8
TORSDOF 9
