REMARK  Name = 1y8o_ligand
REMARK  9 active torsions:
REMARK  status: ('A' for Active; 'I' for Inactive)
REMARK    1  A    between atoms: PB_1  and  O3A_8
REMARK    2  A    between atoms: PA_5  and  O3A_8
REMARK    3  A    between atoms: PA_5  and  O5_9
REMARK    4  A    between atoms: O5_9  and  C5_10
REMARK    5  A    between atoms: C5_10  and  C4_11
REMARK    6  A    between atoms: C3_13  and  O3_14
REMARK    7  A    between atoms: C2_15  and  O2_16
REMARK    8  A    between atoms: C1_17  and  N9_18
REMARK    9  A    between atoms: C6_22  and  N6_23
REMARK                            x       y       z     vdW  Elec       q    Type
REMARK                         _______ _______ _______ _____ _____    ______ ____
ROOT
ATOM      6  C   UNL     1     -46.991  16.480  68.739  0.00  0.00    +0.184 C 
ATOM      7  C   UNL     1     -46.179  17.662  69.283  0.00  0.00    +0.180 C 
ATOM      8  C   UNL     1     -46.078  18.600  68.087  0.00  0.00    +0.206 C 
ATOM      9  C   UNL     1     -47.325  18.308  67.259  0.00  0.00    +0.301 C 
ATOM     26  O   UNL     1     -47.850  17.023  67.703  0.00  0.00    -0.336 OA
ENDROOT
BRANCH   9  10
ATOM     10  N   UNL     1     -48.382  19.347  67.428  0.00  0.00    -0.192 N 
ATOM     11  C   UNL     1     -48.432  20.553  66.846  0.00  0.00    +0.161 A 
ATOM     12  N   UNL     1     -47.614  21.254  66.012  0.00  0.00    -0.271 NA
ATOM     13  C   UNL     1     -47.983  22.490  65.611  0.00  0.00    +0.153 A 
ATOM     14  N   UNL     1     -49.132  23.111  66.011  0.00  0.00    -0.270 NA
ATOM     15  C   UNL     1     -50.015  22.546  66.857  0.00  0.00    +0.130 A 
ATOM     19  C   UNL     1     -49.696  21.169  67.318  0.00  0.00    +0.105 A 
ATOM     20  N   UNL     1     -50.291  20.275  68.131  0.00  0.00    -0.296 NA
ATOM     21  C   UNL     1     -49.487  19.192  68.186  0.00  0.00    +0.247 A 
BRANCH  15  16
ATOM     16  N   UNL     1     -51.146  23.186  67.244  0.00  0.00    -0.315 N 
ATOM     17  H   UNL     1     -51.812  22.718  67.875  0.00  0.00    +0.182 HD
ATOM     18  H   UNL     1     -51.339  24.140  66.907  0.00  0.00    +0.182 HD
ENDBRANCH  15  16
ENDBRANCH   9  10
BRANCH   8  22
ATOM     22  O   UNL     1     -44.956  18.221  67.276  0.00  0.00    -0.384 OA
ATOM     23  H   UNL     1     -44.160  18.278  67.792  0.00  0.00    +0.210 HD
ENDBRANCH   8  22
BRANCH   7  24
ATOM     24  O   UNL     1     -44.898  17.178  69.701  0.00  0.00    -0.386 OA
ATOM     25  H   UNL     1     -45.014  16.524  70.380  0.00  0.00    +0.210 HD
ENDBRANCH   7  24
BRANCH   6   5
ATOM      5  C   UNL     1     -47.719  15.634  69.790  0.00  0.00    +0.243 C 
BRANCH   5   4
ATOM      4  O   UNL     1     -48.387  16.396  70.793  0.00  0.00    -0.244 OA
BRANCH   4   3
ATOM      3  P   UNL     1     -48.814  15.741  72.222  0.00  0.00    +0.328 P 
ATOM     27  O   UNL     1     -49.512  16.836  73.021  0.00  0.00    -0.556 OA
ATOM     28  O   UNL     1     -49.433  14.360  72.041  0.00  0.00    -0.556 OA
BRANCH   3   2
ATOM      2  O   UNL     1     -47.400  15.448  72.973  0.00  0.00    -0.155 OA
BRANCH   2   1
ATOM      1  P   UNL     1     -46.255  16.565  73.318  0.00  0.00    +0.207 P 
ATOM     29  O   UNL     1     -46.946  17.921  73.363  0.00  0.00    -0.589 OA
ATOM     30  O   UNL     1     -45.279  16.363  72.175  0.00  0.00    -0.589 OA
ATOM     31  O   UNL     1     -45.842  16.078  74.709  0.00  0.00    -0.589 OA
ENDBRANCH   2   1
ENDBRANCH   3   2
ENDBRANCH   4   3
ENDBRANCH   5   4
ENDBRANCH   6   5
TORSDOF 9
