REMARK  Name = 4bhz_ligand
REMARK  0 active torsions:
REMARK  status: ('A' for Active; 'I' for Inactive)
REMARK                            x       y       z     vdW  Elec       q    Type
REMARK                         _______ _______ _______ _____ _____    ______ ____
ROOT
ATOM      1  C   UNL     1       0.894 -42.218  17.337  0.00  0.00    +0.018 A 
ATOM      2  C   UNL     1      -0.034 -42.979  16.539  0.00  0.00    +0.012 A 
ATOM      3  C   UNL     1      -0.693 -44.046  17.256  0.00  0.00    +0.111 A 
ATOM      4  S   UNL     1      -1.805 -44.829  16.171  0.00  0.00    -0.015 S 
ATOM      5  C   UNL     1      -1.418 -43.790  14.851  0.00  0.00    +0.091 A 
ATOM      6  N   UNL     1      -0.535 -44.372  18.546  0.00  0.00    -0.280 NA
ATOM      7  C   UNL     1       0.316 -43.645  19.239  0.00  0.00    +0.104 A 
ATOM      8  C   UNL     1      -0.484 -42.862  15.149  0.00  0.00    -0.004 A 
ATOM      9  C   UNL     1       1.673 -41.128  16.882  0.00  0.00    +0.108 A 
ATOM     10  N   UNL     1       2.526 -40.430  17.628  0.00  0.00    -0.295 NA
ATOM     11  C   UNL     1       2.648 -40.778  18.915  0.00  0.00    +0.089 A 
ATOM     12  C   UNL     1       1.966 -41.803  19.497  0.00  0.00    +0.047 A 
ATOM     13  C   UNL     1       1.066 -42.560  18.716  0.00  0.00    +0.016 A 
ENDROOT
TORSDOF 0
