REMARK  Name = 6J7
REMARK  1 active torsions:
REMARK  status: ('A' for Active; 'I' for Inactive)
REMARK    1  A    between atoms: N_12  and  C4_13
REMARK                            x       y       z     vdW  Elec       q    Type
REMARK                         _______ _______ _______ _____ _____    ______ ____
ROOT
ATOM      1 BR   UNL     1      -6.054  -4.608 -10.916  0.00  0.00    -0.008 Br
ATOM      2  C   UNL     1      -6.234  -5.670 -12.526  0.00  0.00    +0.183 C 
ATOM      3  N   UNL     1      -5.713  -6.889 -12.575  0.00  0.00    -0.214 NA
ATOM      4  C   UNL     1      -6.040  -7.261 -13.820  0.00  0.00    +0.175 C 
ATOM      5  C   UNL     1      -6.791  -6.156 -14.471  0.00  0.00    +0.173 C 
ATOM      6  N   UNL     1      -7.213  -6.296 -15.739  0.00  0.00    -0.192 NA
ATOM      7  C   UNL     1      -6.958  -7.450 -16.400  0.00  0.00    +0.261 C 
ATOM      8  N   UNL     1      -6.277  -8.487 -15.860  0.00  0.00    -0.171 NA
ATOM      9  N   UNL     1      -7.401  -7.581 -17.661  0.00  0.00    -0.086 NA
ATOM     10  C   UNL     1      -5.801  -8.456 -14.621  0.00  0.00    +0.302 C 
ATOM     11  O   UNL     1      -5.175  -9.414 -14.112  0.00  0.00    -0.263 OA
ATOM     12  N   UNL     1      -6.866  -5.190 -13.586  0.00  0.00    -0.266 NA
ENDROOT
BRANCH  12  13
ATOM     13  C   UNL     1      -7.526  -3.871 -13.717  0.00  0.00    +0.241 C 
ATOM     14  O   UNL     1      -8.945  -4.057 -13.863  0.00  0.00    -0.331 OA
ATOM     15  C   UNL     1      -9.333  -2.999 -14.756  0.00  0.00    +0.177 C 
ATOM     16  C   UNL     1     -10.710  -3.151 -15.385  0.00  0.00    +0.181 C 
ATOM     17  O   UNL     1     -10.848  -2.043 -16.281  0.00  0.00    -0.311 OA
ATOM     18  P   UNL     1      -9.764  -1.821 -17.429  0.00  0.00    +0.214 P 
ATOM     19  O   UNL     1      -8.333  -1.855 -16.684  0.00  0.00    -0.311 OA
ATOM     20  O   UNL     1      -9.958  -0.454 -18.013  0.00  0.00    -0.437 OA
ATOM     21  O   UNL     1      -9.829  -3.013 -18.344  0.00  0.00    -0.517 OA
ATOM     22  C   UNL     1      -8.236  -2.980 -15.801  0.00  0.00    +0.186 C 
ATOM     23  C   UNL     1      -7.007  -3.068 -14.908  0.00  0.00    +0.231 C 
ATOM     24  O   UNL     1      -6.641  -1.766 -14.424  0.00  0.00    -0.216 OA
ENDBRANCH  12  13
TORSDOF 1
