REMARK  Name = 4ph4_ligand
REMARK  4 active torsions:
REMARK  status: ('A' for Active; 'I' for Inactive)
REMARK    1  A    between atoms: C2_2  and  C3_3
REMARK    2  A    between atoms: C12_5  and  C13_6
REMARK    3  A    between atoms: C13_6  and  C14_7
REMARK    4  A    between atoms: N3_19  and  C7_20
REMARK                            x       y       z     vdW  Elec       q    Type
REMARK                         _______ _______ _______ _____ _____    ______ ____
ROOT
ATOM     14  C   UNL     1       0.813   4.717 -14.450  0.00  0.00    +0.056 A 
ATOM     15  C   UNL     1       0.935   5.068 -15.788  0.00  0.00    +0.047 A 
ATOM     16  C   UNL     1       0.597   4.111 -16.715  0.00  0.00    +0.100 A 
ATOM     17  N   UNL     1       0.158   2.889 -16.388  0.00  0.00    -0.254 NA
ATOM     18  C   UNL     1       0.064   2.645 -15.071  0.00  0.00    +0.210 A 
ATOM     19  N   UNL     1      -0.361   1.392 -14.752  0.00  0.00    -0.234 N 
ATOM     20  H   UNL     1      -0.565   0.813 -15.579  0.00  0.00    +0.222 HD
ATOM     27  N   UNL     1       0.364   3.503 -14.078  0.00  0.00    -0.250 NA
ENDROOT
BRANCH  14  13
ATOM      1  C   UNL     1       2.284   6.548 -13.643  0.00  0.00    +0.113 A 
ATOM      2  N   UNL     1       2.685   7.519 -12.818  0.00  0.00    -0.257 NA
ATOM      3  C   UNL     1       2.037   7.571 -11.634  0.00  0.00    +0.185 A 
ATOM      4  N   UNL     1       1.076   6.712 -11.227  0.00  0.00    -0.249 NA
ATOM      5  C   UNL     1       0.699   5.734 -12.071  0.00  0.00    +0.047 A 
ATOM     10  N   UNL     1       2.334   8.584 -10.815  0.00  0.00    -0.302 N 
ATOM     11  H   UNL     1       3.033   9.286 -11.097  0.00  0.00    +0.184 HD
ATOM     12  H   UNL     1       1.864   8.663  -9.902  0.00  0.00    +0.184 HD
ATOM     13  C   UNL     1       1.266   5.631 -13.365  0.00  0.00    +0.045 A 
BRANCH   5   6
ATOM      6  C   UNL     1      -0.239   4.719 -11.458  0.00  0.00    +0.105 C 
BRANCH   6   7
ATOM      7  C   UNL     1      -1.671   5.186 -11.172  0.00  0.00    +0.006 C 
ATOM      8  C   UNL     1      -1.904   6.339 -10.244  0.00  0.00    +0.007 C 
ATOM      9  C   UNL     1      -2.177   4.944  -9.792  0.00  0.00    +0.007 C 
ENDBRANCH   6   7
ENDBRANCH   5   6
ENDBRANCH  14  13
BRANCH  19  21
ATOM     21  C   UNL     1      -0.582   0.716 -13.536  0.00  0.00    +0.086 A 
ATOM     22  C   UNL     1      -0.248   1.272 -12.304  0.00  0.00    +0.052 A 
ATOM     23  C   UNL     1      -0.495   0.528 -11.162  0.00  0.00    +0.077 A 
ATOM     24  N   UNL     1      -1.053  -0.688 -11.171  0.00  0.00    -0.314 NA
ATOM     25  C   UNL     1      -1.368  -1.204 -12.363  0.00  0.00    +0.077 A 
ATOM     26  C   UNL     1      -1.150  -0.554 -13.568  0.00  0.00    +0.052 A 
ENDBRANCH  19  21
TORSDOF 4
