REMARK  Name = 4FV4
REMARK  6 active torsions:
REMARK  status: ('A' for Active; 'I' for Inactive)
REMARK    1  A    between atoms: C_2  and  C_3
REMARK    2  A    between atoms: C_10  and  N_11
REMARK    3  A    between atoms: N_11  and  C_12
REMARK    4  A    between atoms: N_11  and  C_13
REMARK    5  A    between atoms: N_19  and  C_20
REMARK    6  A    between atoms: C_24  and  O_25
REMARK                            x       y       z     vdW  Elec       q    Type
REMARK                         _______ _______ _______ _____ _____    ______ ____
ROOT
ATOM      3  C   UNL     1     -12.776   2.790  15.118  0.00  0.00    +0.094 A 
ATOM      4  S   UNL     1     -13.115   4.004  16.306  0.00  0.00    -0.062 S 
ATOM      5  C   UNL     1     -14.822   3.710  16.176  0.00  0.00    +0.078 A 
ATOM      9  C   UNL     1     -15.110   2.734  15.245  0.00  0.00    +0.034 A 
ATOM     10  C   UNL     1     -16.403   2.166  14.833  0.00  0.00    +0.082 A 
ATOM     11  N   UNL     1     -17.505   2.428  15.560  0.00  0.00    -0.214 NA
ATOM     12  C   UNL     1     -18.658   1.829  15.206  0.00  0.00    +0.220 A 
ATOM     13  N   UNL     1     -19.800   2.126  15.878  0.00  0.00    -0.283 N 
ATOM     14  H   UNL     1     -20.627   1.746  15.427  0.00  0.00    +0.155 HD
ATOM     23  N   UNL     1     -18.782   0.959  14.193  0.00  0.00    -0.222 NA
ATOM     24  C   UNL     1     -17.670   0.719  13.488  0.00  0.00    +0.120 A 
ATOM     25  C   UNL     1     -16.451   1.306  13.731  0.00  0.00    -0.003 A 
ATOM     26  C   UNL     1     -15.254   1.099  12.836  0.00  0.00    +0.043 C 
ATOM     27  C   UNL     1     -13.941   1.116  13.600  0.00  0.00    +0.042 C 
ATOM     28  C   UNL     1     -13.902   2.208  14.637  0.00  0.00    -0.012 A 
ENDROOT
BRANCH  13  15
ATOM     15  C   UNL     1     -20.120   2.831  17.058  0.00  0.00    +0.037 A 
ATOM     16  C   UNL     1     -21.388   3.403  17.144  0.00  0.00    +0.068 A 
ATOM     17  C   UNL     1     -21.693   4.278  18.173  0.00  0.00    +0.119 A 
ATOM     20  C   UNL     1     -20.743   4.585  19.137  0.00  0.00    +0.045 A 
ATOM     21  C   UNL     1     -19.491   3.989  19.069  0.00  0.00    +0.005 A 
ATOM     22  C   UNL     1     -19.177   3.116  18.038  0.00  0.00    +0.023 A 
BRANCH  17  18
ATOM     18  O   UNL     1     -22.942   4.842  18.199  0.00  0.00    -0.507 OA
ATOM     19  H   UNL     1     -23.018   5.463  18.970  0.00  0.00    +0.292 HD
ENDBRANCH  17  18
ENDBRANCH  13  15
BRANCH   5   6
ATOM      6  N   UNL     1     -15.618   4.406  17.036  0.00  0.00    -0.330 N 
ATOM      7  C   UNL     1     -16.326   5.605  16.606  0.00  0.00    +0.129 C 
ATOM      8  C   UNL     1     -15.795   4.010  18.431  0.00  0.00    +0.129 C 
ENDBRANCH   5   6
BRANCH   3   2
ATOM      1  N   UNL     1     -10.364   2.163  14.487  0.00  0.00    -0.190 NA
ATOM      2  C   UNL     1     -11.427   2.461  14.779  0.00  0.00    +0.107 C 
ENDBRANCH   3   2
TORSDOF 4
