REMARK  Name = 2iw9_ligand
REMARK  6 active torsions:
REMARK  status: ('A' for Active; 'I' for Inactive)
REMARK    1  A    between atoms: C10_3  and  C11_4
REMARK    2  A    between atoms: C10_3  and  O6_17
REMARK    3  A    between atoms: C20_11  and  S23_26
REMARK    4  A    between atoms: N26_14  and  S23_26
REMARK    5  A    between atoms: C6_16  and  O6_17
REMARK    6  A    between atoms: N2_23  and  C17_24
REMARK                            x       y       z     vdW  Elec       q    Type
REMARK                         _______ _______ _______ _____ _____    ______ ____
ROOT
ATOM      1  C   UNL     1       7.790  43.729  49.842  0.00  0.00    +0.179 A 
ATOM      2  N   UNL     1       7.390  42.767  48.984  0.00  0.00    -0.249 N 
ATOM      3  H   UNL     1       8.063  42.506  48.249  0.00  0.00    +0.216 HD
ATOM     16  N   UNL     1       9.119  44.007  49.957  0.00  0.00    -0.257 NA
ATOM     17  C   UNL     1       9.531  44.979  50.807  0.00  0.00    +0.145 A 
ATOM     18  N   UNL     1      10.788  45.388  51.062  0.00  0.00    -0.240 N 
ATOM     19  H   UNL     1      11.658  45.029  50.644  0.00  0.00    +0.238 HD
ATOM     20  C   UNL     1      10.664  46.381  51.993  0.00  0.00    +0.235 A 
ATOM     21  N   UNL     1       9.364  46.576  52.334  0.00  0.00    -0.302 NA
ATOM     22  C   UNL     1       8.656  45.701  51.595  0.00  0.00    +0.104 A 
ATOM     23  C   UNL     1       7.228  45.372  51.453  0.00  0.00    +0.176 A 
ATOM     32  N   UNL     1       6.868  44.397  50.581  0.00  0.00    -0.240 NA
ENDROOT
BRANCH   2   4
ATOM      4  C   UNL     1       6.203  42.101  48.974  0.00  0.00    +0.064 A 
ATOM      5  C   UNL     1       5.336  42.023  50.080  0.00  0.00    +0.017 A 
ATOM      6  C   UNL     1       4.130  41.312  49.979  0.00  0.00    +0.016 A 
ATOM      7  C   UNL     1       3.792  40.640  48.797  0.00  0.00    +0.096 A 
ATOM     14  C   UNL     1       4.664  40.721  47.711  0.00  0.00    +0.016 A 
ATOM     15  C   UNL     1       5.866  41.439  47.802  0.00  0.00    +0.017 A 
BRANCH   7   8
ATOM      8  S   UNL     1       2.406  39.804  48.654  0.00  0.00    +0.061 S 
ATOM      9  O   UNL     1       1.851  40.006  47.315  0.00  0.00    -0.152 OA
ATOM     10  O   UNL     1       2.667  38.371  48.894  0.00  0.00    -0.152 OA
BRANCH   8  11
ATOM     11  N   UNL     1       1.384  40.300  49.664  0.00  0.00    -0.262 NA
ATOM     12  H   UNL     1       1.620  41.043  50.291  0.00  0.00    +0.163 HD
ATOM     13  H   UNL     1       0.476  39.883  49.702  0.00  0.00    +0.163 HD
ENDBRANCH   8  11
ENDBRANCH   7   8
ENDBRANCH   2   4
BRANCH  23  24
ATOM     24  O   UNL     1       6.287  46.029  52.184  0.00  0.00    -0.293 OA
BRANCH  24  25
ATOM     25  C   UNL     1       4.938  45.744  51.842  0.00  0.00    +0.206 C 
BRANCH  25  26
ATOM     26  C   UNL     1       4.058  46.011  53.044  0.00  0.00    +0.021 C 
ATOM     27  C   UNL     1       4.576  45.256  54.272  0.00  0.00    +0.006 C 
ATOM     28  C   UNL     1       3.734  45.726  55.446  0.00  0.00    +0.000 C 
ATOM     29  C   UNL     1       2.277  45.304  55.236  0.00  0.00    +0.000 C 
ATOM     30  C   UNL     1       1.705  45.836  53.921  0.00  0.00    +0.000 C 
ATOM     31  C   UNL     1       2.618  45.596  52.719  0.00  0.00    +0.006 C 
ENDBRANCH  25  26
ENDBRANCH  24  25
ENDBRANCH  23  24
TORSDOF 6
