REMARK  Name = 2HCK
REMARK  6 active torsions:
REMARK  status: ('A' for Active; 'I' for Inactive)
REMARK    1  A    between atoms: C_2  and  O_22
REMARK    2  A    between atoms: C_6  and  O_21
REMARK    3  A    between atoms: C_8  and  O_20
REMARK    4  A    between atoms: C_9  and  C_10
REMARK    5  A    between atoms: C_13  and  O_19
REMARK    6  A    between atoms: C_14  and  O_18
REMARK                            x       y       z     vdW  Elec       q    Type
REMARK                         _______ _______ _______ _____ _____    ______ ____
ROOT
ATOM      1  C   UNL     1      35.819  46.424  99.173  0.00  0.00    +0.091 A 
ATOM      2  C   UNL     1      35.044  47.463  99.734  0.00  0.00    +0.124 A 
ATOM      5  C   UNL     1      33.671  47.234  99.754  0.00  0.00    +0.092 A 
ATOM      6  C   UNL     1      33.101  46.060  99.224  0.00  0.00    +0.146 A 
ATOM      7  O   UNL     1      31.743  45.915  99.273  0.00  0.00    -0.451 OA
ATOM      8  C   UNL     1      31.070  44.800  98.778  0.00  0.00    +0.181 C 
ATOM     19  C   UNL     1      31.799  43.712  98.187  0.00  0.00    +0.208 C 
ATOM     22  C   UNL     1      33.232  43.835  98.113  0.00  0.00    +0.238 C 
ATOM     23  O   UNL     1      33.879  42.952  97.539  0.00  0.00    -0.283 OA
ATOM     24  C   UNL     1      33.866  45.006  98.653  0.00  0.00    +0.109 A 
ATOM     25  C   UNL     1      35.264  45.226  98.632  0.00  0.00    +0.135 A 
ENDROOT
BRANCH   8   9
ATOM      9  C   UNL     1      29.642  44.834  98.770  0.00  0.00    +0.025 A 
ATOM     10  C   UNL     1      29.004  45.947  99.367  0.00  0.00    +0.060 A 
ATOM     11  C   UNL     1      27.639  46.223  99.334  0.00  0.00    +0.159 A 
ATOM     14  C   UNL     1      26.798  45.296  98.656  0.00  0.00    +0.158 A 
ATOM     17  C   UNL     1      27.377  44.162  98.052  0.00  0.00    +0.050 A 
ATOM     18  C   UNL     1      28.774  43.942  98.107  0.00  0.00    +0.015 A 
BRANCH  11  12
ATOM     12  O   UNL     1      27.217  47.423  99.924  0.00  0.00    -0.503 OA
ATOM     13  H   UNL     1      26.787  48.041  99.192  0.00  0.00    +0.292 HD
ENDBRANCH  11  12
BRANCH  14  15
ATOM     15  O   UNL     1      25.407  45.437  98.548  0.00  0.00    -0.503 OA
ATOM     16  H   UNL     1      25.138  45.490  97.534  0.00  0.00    +0.292 HD
ENDBRANCH  14  15
ENDBRANCH   8   9
BRANCH   2   3
ATOM      3  O   UNL     1      35.558  48.642 100.265  0.00  0.00    -0.506 OA
ATOM      4  H   UNL     1      36.204  48.415 101.061  0.00  0.00    +0.292 HD
ENDBRANCH   2   3
BRANCH  19  20
ATOM     20  O   UNL     1      31.204  42.545  97.721  0.00  0.00    -0.501 OA
ATOM     21  H   UNL     1      31.429  42.419  96.703  0.00  0.00    +0.292 HD
ENDBRANCH  19  20
BRANCH  25  26
ATOM     26  O   UNL     1      36.095  44.249  98.115  0.00  0.00    -0.506 OA
ATOM     27  H   UNL     1      36.655  44.649  97.322  0.00  0.00    +0.292 HD
ENDBRANCH  25  26
TORSDOF 6
