REMARK  Name = GJJ
REMARK  7 active torsions:
REMARK  status: ('A' for Active; 'I' for Inactive)
REMARK    1  A    between atoms: C2_1  and  N8_26
REMARK    2  A    between atoms: C3_2  and  C27_17
REMARK    3  A    between atoms: C9_3  and  N8_26
REMARK    4  A    between atoms: C12_6  and  C15_9
REMARK    5  A    between atoms: C24_15  and  N26_16
REMARK    6  A    between atoms: C30_18  and  C32_19
REMARK    7  A    between atoms: N16_27  and  C18_28
REMARK                            x       y       z     vdW  Elec       q    Type
REMARK                         _______ _______ _______ _____ _____    ______ ____
ROOT
ATOM      1  C   UNL     1     -20.274   6.006  -0.634  0.00  0.00    +0.158 A 
ATOM     16  N   UNL     1     -21.368   6.687  -1.031  0.00  0.00    -0.214 NA
ATOM     17  C   UNL     1     -21.547   7.051  -2.318  0.00  0.00    +0.133 A 
ATOM     18  N   UNL     1     -22.703   7.763  -2.591  0.00  0.00    -0.291 N 
ATOM     19  C   UNL     1     -23.593   8.203  -1.540  0.00  0.00    +0.114 C 
ATOM     20  C   UNL     1     -24.520   9.156  -2.313  0.00  0.00    +0.117 C 
ATOM     26  C   UNL     1     -24.461   8.740  -3.759  0.00  0.00    +0.045 C 
ATOM     27  C   UNL     1     -23.060   8.152  -3.953  0.00  0.00    +0.094 C 
ATOM     28  C   UNL     1     -20.611   6.778  -3.315  0.00  0.00    +0.035 A 
ATOM     29  C   UNL     1     -19.447   6.059  -2.978  0.00  0.00    +0.010 A 
ATOM     30  C   UNL     1     -19.261   5.697  -1.668  0.00  0.00    +0.090 A 
ENDROOT
BRANCH  20  21
ATOM     21  N   UNL     1     -24.166  10.580  -2.285  0.00  0.00    -0.205 NA
ATOM     22  C   UNL     1     -24.630  11.444  -1.370  0.00  0.00    +0.241 C 
ATOM     23  O   UNL     1     -25.384  11.182  -0.435  0.00  0.00    -0.273 OA
BRANCH  22  24
ATOM     24  C   UNL     1     -24.251  12.903  -1.507  0.00  0.00    +0.087 C 
ATOM     25  C   UNL     1     -24.085  13.757  -0.253  0.00  0.00    +0.010 C 
ENDBRANCH  22  24
ENDBRANCH  20  21
BRANCH  30  31
ATOM     31  C   UNL     1     -17.980   5.002  -1.284  0.00  0.00    +0.287 C 
ATOM     32  O   UNL     1     -17.881   4.457  -0.210  0.00  0.00    -0.267 OA
ATOM     33  N   UNL     1     -16.933   5.074  -2.190  0.00  0.00    -0.084 NA
ENDBRANCH  30  31
BRANCH   1   2
ATOM      2  N   UNL     1     -20.089   5.652   0.665  0.00  0.00    -0.194 NA
BRANCH   2   3
ATOM      3  C   UNL     1     -20.929   5.811   1.715  0.00  0.00    +0.072 A 
ATOM      4  C   UNL     1     -20.499   5.336   2.959  0.00  0.00    +0.017 A 
ATOM      5  C   UNL     1     -21.290   5.528   4.094  0.00  0.00    +0.006 A 
ATOM      6  C   UNL     1     -22.543   6.158   3.971  0.00  0.00    +0.055 A 
ATOM     14  C   UNL     1     -22.958   6.646   2.744  0.00  0.00    +0.006 A 
ATOM     15  C   UNL     1     -22.152   6.478   1.617  0.00  0.00    +0.017 A 
BRANCH   6   7
ATOM      7  C   UNL     1     -23.443   6.473   5.131  0.00  0.00    +0.265 C 
ATOM      8  N   UNL     1     -22.908   6.704   6.352  0.00  0.00    -0.205 NA
ATOM     13  O   UNL     1     -24.626   6.661   4.864  0.00  0.00    -0.268 OA
BRANCH   8   9
ATOM      9  C   UNL     1     -23.683   7.082   7.544  0.00  0.00    +0.079 C 
ATOM     10  C   UNL     1     -22.717   7.240   8.723  0.00  0.00    +0.022 C 
ATOM     11  C   UNL     1     -24.741   6.037   7.891  0.00  0.00    +0.022 C 
ATOM     12  C   UNL     1     -24.344   8.446   7.296  0.00  0.00    +0.022 C 
ENDBRANCH   8   9
ENDBRANCH   6   7
ENDBRANCH   2   3
ENDBRANCH   1   2
TORSDOF 7
