REMARK  Name = 6R4A
REMARK  5 active torsions:
REMARK  status: ('A' for Active; 'I' for Inactive)
REMARK    1  A    between atoms: N1_1  and  C2_14
REMARK    2  A    between atoms: N3_2  and  C10_8
REMARK    3  A    between atoms: C10_8  and  C11_18
REMARK    4  A    between atoms: C1_13  and  C2_14
REMARK    5  A    between atoms: C11_18  and  C12_19
REMARK                            x       y       z     vdW  Elec       q    Type
REMARK                         _______ _______ _______ _____ _____    ______ ____
ROOT
ATOM     10  C   UNL     1     -11.963  12.251 -19.991  0.00  0.00    +0.600 C 
ATOM     11  O   UNL     1     -12.860  12.529 -19.202  0.00  0.00    -0.550 OA
ATOM     12  N   UNL     1     -10.901  11.507 -19.669  0.00  0.00    -0.400 NA
ENDROOT
BRANCH  10   9
ATOM      9  C   UNL     1     -12.025  12.666 -21.457  0.00  0.00    -0.050 C 
BRANCH   9   1
ATOM      1  N   UNL     1     -13.166  13.502 -21.753  0.00  0.00    -0.350 N 
ATOM      2  C   UNL     1     -14.388  13.122 -22.220  0.00  0.00    +0.100 A 
ATOM      3  N   UNL     1     -15.209  14.129 -22.391  0.00  0.00    -0.300 NA
ATOM      4  C   UNL     1     -14.491  15.261 -22.012  0.00  0.00    +0.200 A 
ATOM      5  C   UNL     1     -14.852  16.607 -21.984  0.00  0.00    -0.130 A 
ATOM      6  C   UNL     1     -13.917  17.524 -21.553  0.00  0.00    -0.130 A 
ATOM      7  C   UNL     1     -12.641  17.122 -21.155  0.00  0.00    -0.130 A 
ATOM      8  C   UNL     1     -12.268  15.799 -21.181  0.00  0.00    -0.130 A 
ATOM     21  C   UNL     1     -13.211  14.878 -21.615  0.00  0.00    +0.200 A 
ENDBRANCH   9   1
ENDBRANCH  10   9
BRANCH  12  13
ATOM     13  C   UNL     1      -9.581  11.981 -19.276  0.00  0.00    +0.000 C 
BRANCH  13  14
ATOM     14  C   UNL     1      -9.493  12.556 -17.875  0.00  0.00    -0.100 C 
BRANCH  14  15
ATOM     15  C   UNL     1     -10.321  13.802 -17.674  0.00  0.00    +0.000 A 
ATOM     16  C   UNL     1      -9.963  14.988 -18.294  0.00  0.00    -0.130 A 
ATOM     17  C   UNL     1     -10.718  16.130 -18.113  0.00  0.00    -0.130 A 
ATOM     18  C   UNL     1     -11.828  16.102 -17.301  0.00  0.00    -0.130 A 
ATOM     19  C   UNL     1     -12.188  14.934 -16.670  0.00  0.00    -0.130 A 
ATOM     20  C   UNL     1     -11.439  13.787 -16.854  0.00  0.00    -0.130 A 
ENDBRANCH  14  15
ENDBRANCH  13  14
ENDBRANCH  12  13
TORSDOF 5
