REMARK  Name = HRA
REMARK  6 active torsions:
REMARK  status: ('A' for Active; 'I' for Inactive)
REMARK    1  A    between atoms: C3_3  and  C_15
REMARK    2  A    between atoms: C7_7  and  O2_28
REMARK    3  A    between atoms: C10_9  and  C11_10
REMARK    4  A    between atoms: C11_10  and  C13_12
REMARK    5  A    between atoms: C18_18  and  N3_19
REMARK    6  A    between atoms: O2_28  and  C19_29
REMARK                            x       y       z     vdW  Elec       q    Type
REMARK                         _______ _______ _______ _____ _____    ______ ____
ROOT
ATOM      3  N   UNL     1      21.503   6.095   1.614  0.00  0.00    -0.033 NA
ATOM      4  C   UNL     1      20.314   5.611   1.203  0.00  0.00    +0.368 C 
ATOM      5  C   UNL     1      19.262   5.376   2.092  0.00  0.00    +0.180 C 
ATOM      6  C   UNL     1      19.010   5.495   3.477  0.00  0.00    +0.101 C 
ATOM     23  C   UNL     1      17.721   5.093   3.665  0.00  0.00    +0.240 C 
ATOM     24  N   UNL     1      17.172   4.747   2.498  0.00  0.00    -0.030 NA
ATOM     25  C   UNL     1      18.091   4.889   1.543  0.00  0.00    +0.383 C 
ATOM     26  N   UNL     1      17.925   4.620   0.230  0.00  0.00    -0.001 NA
ATOM     27  C   UNL     1      18.998   4.860  -0.576  0.00  0.00    +0.525 C 
ATOM     28  N   UNL     1      20.180   5.362  -0.109  0.00  0.00    -0.004 NA
ENDROOT
BRANCH   3   2
ATOM      1  C   UNL     1      23.879   6.567   1.566  0.00  0.00    +0.056 C 
ATOM      2  C   UNL     1      22.603   6.486   0.721  0.00  0.00    +0.234 C 
ATOM     29  C   UNL     1      22.303   7.849   0.076  0.00  0.00    +0.193 C 
ATOM     30  O   UNL     1      23.444   8.243  -0.676  0.00  0.00    -0.349 OA
ATOM     31  C   UNL     1      24.710   8.295   0.059  0.00  0.00    +0.148 C 
ATOM     34  C   UNL     1      25.020   6.974   0.716  0.00  0.00    +0.037 C 
BRANCH  31  32
ATOM     32  C   UNL     1      25.913   8.559  -0.816  0.00  0.00    +0.211 C 
ATOM     33  O   UNL     1      25.569   9.677  -1.602  0.00  0.00    -0.218 OA
ENDBRANCH  31  32
ENDBRANCH   3   2
BRANCH   6   7
ATOM      7  C   UNL     1      19.836   5.925   4.559  0.00  0.00    +0.201 C 
ATOM     22  O   UNL     1      20.961   6.406   4.338  0.00  0.00    -0.286 OA
BRANCH   7   8
ATOM      8  C   UNL     1      19.367   5.859   5.924  0.00  0.00    +0.050 A 
ATOM      9  C   UNL     1      19.259   7.061   6.636  0.00  0.00    +0.007 A 
ATOM     10  C   UNL     1      18.794   7.106   7.948  0.00  0.00    +0.038 A 
ATOM     11  C   UNL     1      18.432   5.927   8.576  0.00  0.00    +0.146 A 
ATOM     19  C   UNL     1      18.545   4.722   7.907  0.00  0.00    +0.049 A 
ATOM     20  C   UNL     1      19.006   4.680   6.605  0.00  0.00    +0.064 A 
ATOM     21 CL   UNL     1      19.111   3.135   5.864  0.00  0.00    -0.082 Cl
BRANCH  11  12
ATOM     12  O   UNL     1      17.978   5.933   9.855  0.00  0.00    -0.454 OA
BRANCH  12  13
ATOM     13  C   UNL     1      16.963   6.807  10.199  0.00  0.00    +0.145 A 
ATOM     14  C   UNL     1      16.975   7.332  11.501  0.00  0.00    +0.037 A 
ATOM     15  C   UNL     1      15.983   8.228  11.914  0.00  0.00    +0.003 A 
ATOM     16  C   UNL     1      14.958   8.592  11.026  0.00  0.00    +0.000 A 
ATOM     17  C   UNL     1      14.935   8.061   9.731  0.00  0.00    +0.003 A 
ATOM     18  C   UNL     1      15.936   7.174   9.310  0.00  0.00    +0.037 A 
ENDBRANCH  12  13
ENDBRANCH  11  12
ENDBRANCH   7   8
ENDBRANCH   6   7
TORSDOF 6
