REMARK  Name = CF6
REMARK  17 active torsions:
REMARK  status: ('A' for Active; 'I' for Inactive)
REMARK    1  A    between atoms: C42_7  and  C41_8
REMARK    2  A    between atoms: C9_13  and  C10_24
REMARK    3  A    between atoms: C10_24  and  C11_25
REMARK    4  A    between atoms: N3_27  and  C12_28
REMARK    5  A    between atoms: C12_28  and  C13_29
REMARK    6  A    between atoms: C13_29  and  C14_30
REMARK    7  A    between atoms: C14_30  and  C15_31
REMARK    8  A    between atoms: C15_31  and  C16_32
REMARK    9  A    between atoms: C16_32  and  C17_33
REMARK   10  A    between atoms: C17_33  and  C18_34
REMARK   11  A    between atoms: C18_34  and  C19_35
REMARK   12  A    between atoms: C19_35  and  C20_36
REMARK   13  A    between atoms: C20_36  and  C21_37
REMARK   14  A    between atoms: C21_37  and  N4_38
REMARK   15  A    between atoms: C22_39  and  C23_41
REMARK   16  A    between atoms: C23_41  and  C24_42
REMARK   17  A    between atoms: C25_56  and  C35_58
REMARK                            x       y       z     vdW  Elec       q    Type
REMARK                         _______ _______ _______ _____ _____    ______ ____
ROOT
ATOM     28  C   UNL     1     -23.788  16.333  28.619  0.00  0.00    +0.000 C 
ENDROOT
BRANCH  28  27
ATOM     27  C   UNL     1     -22.906  17.000  29.669  0.00  0.00    +0.000 C 
BRANCH  27  26
ATOM     26  C   UNL     1     -22.796  16.108  30.904  0.00  0.00    +0.002 C 
BRANCH  26  25
ATOM     25  C   UNL     1     -22.065  16.815  32.036  0.00  0.00    +0.023 C 
BRANCH  25  24
ATOM     24  C   UNL     1     -21.840  15.889  33.227  0.00  0.00    +0.115 C 
BRANCH  24  23
ATOM     22  C   UNL     1     -23.378  14.127  33.876  0.00  0.00    +0.244 C 
ATOM     23  N   UNL     1     -23.084  15.427  33.815  0.00  0.00    -0.205 NA
ATOM     61  O   UNL     1     -22.657  13.266  33.373  0.00  0.00    -0.273 OA
BRANCH  22  21
ATOM     21  C   UNL     1     -24.657  13.746  34.596  0.00  0.00    +0.119 C 
BRANCH  21   8
ATOM      6  C   UNL     1     -25.833  11.836  31.804  0.00  0.00    +0.078 C 
ATOM      7  N   UNL     1     -25.562  12.773  32.605  0.00  0.00    -0.264 NA
ATOM      8  C   UNL     1     -25.201  12.461  33.977  0.00  0.00    +0.171 C 
ATOM      9  C   UNL     1     -26.427  11.977  34.652  0.00  0.00    +0.170 A 
ATOM     10  N   UNL     1     -27.160  12.601  35.593  0.00  0.00    -0.131 NA
ATOM     11  N   UNL     1     -28.229  11.747  35.929  0.00  0.00    -0.133 NA
ATOM     12  C   UNL     1     -28.134  10.620  35.185  0.00  0.00    +0.148 A 
ATOM     13  C   UNL     1     -29.108   9.465  35.245  0.00  0.00    +0.074 C 
ATOM     14  N   UNL     1     -27.044  10.810  34.423  0.00  0.00    -0.274 N 
ATOM     15  C   UNL     1     -26.512   9.962  33.508  0.00  0.00    +0.097 A 
ATOM     16  S   UNL     1     -26.382   8.243  33.650  0.00  0.00    -0.074 S 
ATOM     17  C   UNL     1     -25.554   7.971  32.144  0.00  0.00    +0.005 A 
ATOM     18  C   UNL     1     -25.201   6.557  31.758  0.00  0.00    +0.038 C 
ATOM     19  C   UNL     1     -25.323   9.253  31.435  0.00  0.00    -0.017 A 
ATOM     20  C   UNL     1     -24.615   9.302  30.106  0.00  0.00    +0.031 C 
ATOM     62  C   UNL     1     -25.872  10.409  32.239  0.00  0.00    +0.036 A 
BRANCH   6   5
ATOM      1 CL   UNL     1     -27.411  13.065  26.108  0.00  0.00    -0.082 Cl
ATOM      2  C   UNL     1     -26.940  12.708  27.789  0.00  0.00    +0.058 A 
ATOM      3  C   UNL     1     -26.051  13.547  28.449  0.00  0.00    +0.011 A 
ATOM      4  C   UNL     1     -25.680  13.268  29.757  0.00  0.00    +0.002 A 
ATOM      5  C   UNL     1     -26.218  12.151  30.390  0.00  0.00    +0.017 A 
ATOM     63  C   UNL     1     -27.112  11.317  29.715  0.00  0.00    +0.002 A 
ATOM     64  C   UNL     1     -27.480  11.598  28.413  0.00  0.00    +0.011 A 
ENDBRANCH   6   5
ENDBRANCH  21   8
ENDBRANCH  22  21
ENDBRANCH  24  23
ENDBRANCH  25  24
ENDBRANCH  26  25
ENDBRANCH  27  26
ENDBRANCH  28  27
BRANCH  28  29
ATOM     29  C   UNL     1     -23.907  17.125  27.313  0.00  0.00    +0.000 C 
BRANCH  29  30
ATOM     30  C   UNL     1     -24.900  16.417  26.396  0.00  0.00    +0.000 C 
BRANCH  30  31
ATOM     31  C   UNL     1     -24.944  16.969  24.975  0.00  0.00    +0.002 C 
BRANCH  31  32
ATOM     32  C   UNL     1     -26.005  16.188  24.200  0.00  0.00    +0.023 C 
BRANCH  32  33
ATOM     33  C   UNL     1     -26.139  16.603  22.734  0.00  0.00    +0.115 C 
BRANCH  33  34
ATOM     34  N   UNL     1     -25.031  16.142  21.911  0.00  0.00    -0.205 NA
ATOM     35  C   UNL     1     -24.950  14.882  21.478  0.00  0.00    +0.244 C 
ATOM     36  O   UNL     1     -25.824  14.045  21.686  0.00  0.00    -0.273 OA
BRANCH  35  37
ATOM     37  C   UNL     1     -23.714  14.505  20.681  0.00  0.00    +0.119 C 
BRANCH  37  38
ATOM     38  C   UNL     1     -23.146  13.240  21.312  0.00  0.00    +0.171 C 
ATOM     39  N   UNL     1     -22.609  13.680  22.590  0.00  0.00    -0.264 NA
ATOM     40  C   UNL     1     -22.288  12.817  23.447  0.00  0.00    +0.078 C 
ATOM     48  C   UNL     1     -22.373  11.361  23.152  0.00  0.00    +0.036 A 
ATOM     49  C   UNL     1     -22.938  10.315  24.084  0.00  0.00    -0.017 A 
ATOM     50  C   UNL     1     -23.546  10.521  25.454  0.00  0.00    +0.031 C 
ATOM     51  C   UNL     1     -22.821   8.966  23.474  0.00  0.00    +0.005 A 
ATOM     52  C   UNL     1     -23.234   7.613  24.002  0.00  0.00    +0.038 C 
ATOM     53  S   UNL     1     -22.088   9.054  21.904  0.00  0.00    -0.074 S 
ATOM     54  C   UNL     1     -21.845  10.769  21.899  0.00  0.00    +0.097 A 
ATOM     55  N   UNL     1     -21.364  11.512  20.870  0.00  0.00    -0.274 N 
ATOM     56  C   UNL     1     -20.374  11.211  20.005  0.00  0.00    +0.148 A 
ATOM     57  C   UNL     1     -19.436  10.036  19.976  0.00  0.00    +0.074 C 
ATOM     58  N   UNL     1     -20.344  12.252  19.137  0.00  0.00    -0.133 NA
ATOM     59  N   UNL     1     -21.373  13.160  19.482  0.00  0.00    -0.131 NA
ATOM     60  C   UNL     1     -22.009  12.652  20.562  0.00  0.00    +0.170 A 
BRANCH  40  41
ATOM     41  C   UNL     1     -21.707  13.250  24.759  0.00  0.00    +0.017 A 
ATOM     42  C   UNL     1     -20.979  12.352  25.545  0.00  0.00    +0.002 A 
ATOM     43  C   UNL     1     -20.434  12.725  26.760  0.00  0.00    +0.011 A 
ATOM     44  C   UNL     1     -20.602  14.037  27.154  0.00  0.00    +0.058 A 
ATOM     45 CL   UNL     1     -19.884  14.527  28.701  0.00  0.00    -0.082 Cl
ATOM     46  C   UNL     1     -21.293  14.960  26.378  0.00  0.00    +0.011 A 
ATOM     47  C   UNL     1     -21.848  14.572  25.168  0.00  0.00    +0.002 A 
ENDBRANCH  40  41
ENDBRANCH  37  38
ENDBRANCH  35  37
ENDBRANCH  33  34
ENDBRANCH  32  33
ENDBRANCH  31  32
ENDBRANCH  30  31
ENDBRANCH  29  30
ENDBRANCH  28  29
TORSDOF 17
