REMARK  Name = DY4
REMARK  4 active torsions:
REMARK  status: ('A' for Active; 'I' for Inactive)
REMARK    1  A    between atoms: C5_2  and  C7_5
REMARK    2  A    between atoms: C9_8  and  N6_32
REMARK    3  A    between atoms: C10_9  and  C11_10
REMARK    4  A    between atoms: N3_12  and  C2_22
REMARK                            x       y       z     vdW  Elec       q    Type
REMARK                         _______ _______ _______ _____ _____    ______ ____
ROOT
ATOM      7  C   UNL     1      -5.266 -47.030  -8.758  0.00  0.00    +0.044 A 
ATOM      8  C   UNL     1      -4.856 -47.084  -7.423  0.00  0.00    +0.159 A 
ATOM      9  F   UNL     1      -5.295 -46.209  -6.526  0.00  0.00    -0.203 F 
ATOM     10  C   UNL     1      -4.000 -48.097  -6.992  0.00  0.00    +0.128 A 
ATOM     23  C   UNL     1      -3.556 -48.999  -7.910  0.00  0.00    +0.158 A 
ATOM     24  F   UNL     1      -2.704 -49.960  -7.480  0.00  0.00    -0.203 F 
ATOM     25  C   UNL     1      -3.910 -48.959  -9.232  0.00  0.00    +0.031 A 
ATOM     26  C   UNL     1      -4.764 -47.953  -9.661  0.00  0.00    +0.006 A 
ENDROOT
BRANCH   7   2
ATOM      1  C   UNL     1      -5.925 -45.327 -10.473  0.00  0.00    +0.098 C 
ATOM      2  C   UNL     1      -6.149 -45.931  -9.238  0.00  0.00    +0.087 C 
ATOM      3  N   UNL     1      -7.117 -45.501  -8.428  0.00  0.00    -0.160 NA
ATOM      4  N   UNL     1      -7.960 -44.454  -8.816  0.00  0.00    -0.075 NA
ATOM      5  C   UNL     1      -7.776 -43.839  -9.971  0.00  0.00    +0.300 C 
ATOM      6  O   UNL     1      -8.552 -42.896 -10.298  0.00  0.00    -0.265 OA
ATOM     27  C   UNL     1      -6.742 -44.276 -10.896  0.00  0.00    +0.123 C 
ATOM     28  N   UNL     1      -6.658 -43.563 -12.058  0.00  0.00    -0.224 NA
BRANCH  28  29
ATOM     29  C   UNL     1      -5.889 -43.823 -13.164  0.00  0.00    +0.183 A 
ATOM     30  N   UNL     1      -4.944 -44.764 -13.164  0.00  0.00    -0.150 NA
ATOM     31  N   UNL     1      -4.424 -44.681 -14.427  0.00  0.00    -0.251 N 
ATOM     32  C   UNL     1      -3.327 -45.614 -14.765  0.00  0.00    +0.153 C 
ATOM     33  C   UNL     1      -4.988 -43.706 -15.116  0.00  0.00    +0.059 A 
ATOM     34  C   UNL     1      -4.711 -43.176 -16.506  0.00  0.00    +0.052 C 
ATOM     35  C   UNL     1      -5.979 -43.127 -14.361  0.00  0.00    +0.055 A 
ENDBRANCH  28  29
ENDBRANCH   7   2
BRANCH  10  11
ATOM     11  N   UNL     1      -3.621 -48.145  -5.624  0.00  0.00    -0.170 NA
ATOM     12  C   UNL     1      -3.949 -49.171  -4.830  0.00  0.00    +0.275 C 
ATOM     22  O   UNL     1      -4.603 -50.098  -5.320  0.00  0.00    -0.268 OA
BRANCH  12  13
ATOM     13  C   UNL     1      -3.565 -49.198  -3.387  0.00  0.00    +0.084 A 
ATOM     14  S   UNL     1      -4.159 -50.450  -2.427  0.00  0.00    -0.087 S 
ATOM     15  C   UNL     1      -3.373 -49.773  -1.107  0.00  0.00    +0.003 A 
ATOM     16  C   UNL     1      -3.423 -50.384   0.279  0.00  0.00    +0.033 C 
ATOM     17  C   UNL     1      -2.295 -49.823   1.138  0.00  0.00    +0.005 C 
ATOM     18  C   UNL     1      -2.274 -48.300   1.024  0.00  0.00    +0.005 C 
ATOM     19  C   UNL     1      -1.919 -47.849  -0.386  0.00  0.00    +0.027 C 
ATOM     20  C   UNL     1      -2.703 -48.654  -1.430  0.00  0.00    -0.020 A 
ATOM     21  C   UNL     1      -2.845 -48.363  -2.692  0.00  0.00    +0.007 A 
ENDBRANCH  12  13
ENDBRANCH  10  11
TORSDOF 4
