REMARK  Name = 6B3
REMARK  4 active torsions:
REMARK  status: ('A' for Active; 'I' for Inactive)
REMARK    1  A    between atoms: C14_2  and  C13_3
REMARK    2  A    between atoms: C12_6  and  C28_31
REMARK    3  A    between atoms: C9_7  and  C22_20
REMARK    4  A    between atoms: C2_11  and  N12_27
REMARK                            x       y       z     vdW  Elec       q    Type
REMARK                         _______ _______ _______ _____ _____    ______ ____
ROOT
ATOM     15  N   UNL     1      10.729  19.220  -9.611  0.00  0.00    -0.175 NA
ATOM     16  C   UNL     1      11.085  18.569 -10.725  0.00  0.00    +0.269 C 
ATOM     17  O   UNL     1      10.907  17.381 -10.870  0.00  0.00    -0.268 OA
ENDROOT
BRANCH  15  12
ATOM      1  C   UNL     1       7.489  17.459  -5.318  0.00  0.00    +0.006 A 
ATOM      2  C   UNL     1       7.394  18.198  -4.135  0.00  0.00    +0.000 A 
ATOM      3  C   UNL     1       6.606  17.752  -3.088  0.00  0.00    +0.000 A 
ATOM      4  C   UNL     1       5.979  16.508  -3.228  0.00  0.00    +0.000 A 
ATOM      5  C   UNL     1       6.024  15.783  -4.410  0.00  0.00    +0.005 A 
ATOM      6  C   UNL     1       6.805  16.245  -5.454  0.00  0.00    +0.058 A 
ATOM      7  C   UNL     1       6.876  15.526  -6.673  0.00  0.00    +0.279 A 
ATOM      8  O   UNL     1       6.183  14.459  -6.811  0.00  0.00    -0.265 OA
ATOM      9  N   UNL     1       7.706  16.007  -7.680  0.00  0.00    -0.208 NA
ATOM     10  C   UNL     1       8.391  17.148  -7.571  0.00  0.00    +0.086 A 
ATOM     11  C   UNL     1       9.172  17.553  -8.650  0.00  0.00    +0.036 A 
ATOM     12  C   UNL     1       9.896  18.752  -8.618  0.00  0.00    +0.075 A 
ATOM     13  C   UNL     1       9.824  19.516  -7.444  0.00  0.00    +0.017 A 
ATOM     14  C   UNL     1       9.043  19.105  -6.344  0.00  0.00    +0.003 A 
ATOM     33  C   UNL     1       8.297  17.906  -6.398  0.00  0.00    +0.018 A 
ENDBRANCH  15  12
BRANCH  16  18
ATOM     18  C   UNL     1      11.541  19.298 -11.956  0.00  0.00    +0.055 A 
ATOM     19  C   UNL     1      10.965  20.526 -12.279  0.00  0.00    +0.005 A 
ATOM     20  C   UNL     1      11.319  21.203 -13.447  0.00  0.00    +0.000 A 
ATOM     21  C   UNL     1      12.225  20.660 -14.335  0.00  0.00    +0.000 A 
ATOM     22  C   UNL     1      12.787  19.424 -14.036  0.00  0.00    +0.000 A 
ATOM     23  C   UNL     1      12.448  18.750 -12.862  0.00  0.00    +0.005 A 
BRANCH  23  24
ATOM     24  C   UNL     1      13.232  17.567 -12.620  0.00  0.00    +0.006 A 
ATOM     25  C   UNL     1      14.108  17.619 -11.549  0.00  0.00    +0.080 A 
ATOM     29  C   UNL     1      14.923  16.536 -11.242  0.00  0.00    +0.007 A 
ATOM     30  C   UNL     1      14.919  15.368 -12.002  0.00  0.00    +0.000 A 
ATOM     31  C   UNL     1      14.080  15.299 -13.107  0.00  0.00    +0.000 A 
ATOM     32  C   UNL     1      13.255  16.400 -13.412  0.00  0.00    +0.000 A 
BRANCH  25  26
ATOM     26  C   UNL     1      14.100  18.804 -10.649  0.00  0.00    +0.388 C 
ATOM     27  O   UNL     1      13.810  18.603  -9.364  0.00  0.00    -0.241 OA
ATOM     28  O   UNL     1      14.344  19.884 -11.087  0.00  0.00    -0.241 OA
ENDBRANCH  25  26
ENDBRANCH  23  24
ENDBRANCH  16  18
TORSDOF 4
