REMARK  Name = 1E9E
REMARK  7 active torsions:
REMARK  status: ('A' for Active; 'I' for Inactive)
REMARK    1  A    between atoms: P_1  and  O_5
REMARK    2  A    between atoms: O_5  and  C_6
REMARK    3  A    between atoms: C_6  and  C_7
REMARK    4  A    between atoms: C_9  and  O_10
REMARK    5  A    between atoms: C_12  and  N_13
REMARK    6  A    between atoms: C_17  and  O_18
REMARK    7  A    between atoms: C_19  and  C_20
REMARK                            x       y       z     vdW  Elec       q    Type
REMARK                         _______ _______ _______ _____ _____    ______ ____
ROOT
ATOM      4  C   UNL     1      14.723  74.957  25.796  0.00  0.00    +0.175 C 
ATOM      5  C   UNL     1      13.688  75.446  26.775  0.00  0.00    +0.150 C 
ATOM      6  C   UNL     1      12.828  76.434  25.958  0.00  0.00    +0.085 C 
ATOM      7  C   UNL     1      13.812  76.854  24.870  0.00  0.00    +0.213 C 
ATOM     21  O   UNL     1      14.612  75.741  24.608  0.00  0.00    -0.350 OA
ENDROOT
BRANCH   7   8
ATOM      8  N   UNL     1      13.324  77.436  23.634  0.00  0.00    -0.255 N 
ATOM      9  C   UNL     1      12.621  76.547  22.915  0.00  0.00    +0.147 C 
ATOM     10  C   UNL     1      12.140  76.882  21.695  0.00  0.00    +0.002 C 
ATOM     11  C   UNL     1      11.363  75.990  20.821  0.00  0.00    +0.046 C 
ATOM     12  C   UNL     1      12.502  78.251  21.242  0.00  0.00    +0.185 C 
ATOM     15  N   UNL     1      13.240  79.093  22.036  0.00  0.00    -0.240 N 
ATOM     16  H   UNL     1      13.465  80.071  21.666  0.00  0.00    +0.159 HD
ATOM     17  C   UNL     1      13.708  78.744  23.289  0.00  0.00    +0.311 C 
ATOM     18  O   UNL     1      14.359  79.505  23.980  0.00  0.00    -0.252 OA
BRANCH  12  13
ATOM     13  O   UNL     1      12.081  78.685  20.001  0.00  0.00    -0.495 OA
ATOM     14  H   UNL     1      11.473  79.534  20.114  0.00  0.00    +0.293 HD
ENDBRANCH  12  13
ENDBRANCH   7   8
BRANCH   5  19
ATOM     19  O   UNL     1      14.324  76.189  27.803  0.00  0.00    -0.389 OA
ATOM     20  H   UNL     1      15.016  75.576  28.302  0.00  0.00    +0.210 HD
ENDBRANCH   5  19
BRANCH   4   3
ATOM      3  C   UNL     1      14.843  73.431  25.666  0.00  0.00    +0.197 C 
BRANCH   3   2
ATOM      2  O   UNL     1      13.501  72.961  25.397  0.00  0.00    -0.365 OA
BRANCH   2   1
ATOM      1  P   UNL     1      12.833  71.707  26.105  0.00  0.00    -0.015 P 
ATOM     22  O   UNL     1      13.872  70.559  26.104  0.00  0.00    -0.577 OA
ATOM     23  O   UNL     1      11.572  71.472  25.359  0.00  0.00    -0.638 OA
ATOM     24  O   UNL     1      12.505  72.125  27.534  0.00  0.00    -0.577 OA
ENDBRANCH   2   1
ENDBRANCH   3   2
ENDBRANCH   4   3
TORSDOF 6
