REMARK  Name = 3RGF
REMARK  7 active torsions:
REMARK  status: ('A' for Active; 'I' for Inactive)
REMARK    1  A    between atoms: C_2  and  N_26
REMARK    2  A    between atoms: C_6  and  N_27
REMARK    3  A    between atoms: C_9  and  O_12
REMARK    4  A    between atoms: O_12  and  C_29
REMARK    5  A    between atoms: C_15  and  C_31
REMARK    6  A    between atoms: N_17  and  C_18
REMARK    7  A    between atoms: C_20  and  C_21
REMARK                            x       y       z     vdW  Elec       q    Type
REMARK                         _______ _______ _______ _____ _____    ______ ____
ROOT
ATOM     18  C   UNL     1      -6.176   4.577  27.475  0.00  0.00    +0.035 A 
ATOM     19  C   UNL     1      -6.049   3.263  27.902  0.00  0.00    +0.027 A 
ATOM     20  C   UNL     1      -6.346   2.919  29.207  0.00  0.00    +0.048 A 
ATOM     21  C   UNL     1      -6.787   3.893  30.096  0.00  0.00    +0.129 A 
ATOM     34  C   UNL     1      -6.925   5.206  29.671  0.00  0.00    +0.048 A 
ATOM     35  C   UNL     1      -6.617   5.542  28.366  0.00  0.00    +0.027 A 
ENDROOT
BRANCH  18  16
ATOM     12  N   UNL     1      -4.854   4.978  24.037  0.00  0.00    -0.269 N 
ATOM     13  H   UNL     1      -5.496   5.813  23.847  0.00  0.00    +0.156 HD
ATOM     14  C   UNL     1      -4.966   4.410  25.294  0.00  0.00    +0.308 C 
ATOM     15  O   UNL     1      -4.304   3.460  25.638  0.00  0.00    -0.252 OA
ATOM     16  N   UNL     1      -5.889   4.979  26.147  0.00  0.00    -0.269 N 
ATOM     17  H   UNL     1      -6.446   5.810  25.766  0.00  0.00    +0.156 HD
BRANCH  12  11
ATOM      1  C   UNL     1      -3.479   3.317  22.868  0.00  0.00    +0.037 A 
ATOM      2  C   UNL     1      -2.657   2.974  21.801  0.00  0.00    +0.075 A 
ATOM      7  C   UNL     1      -2.359   3.935  20.848  0.00  0.00    +0.053 A 
ATOM      8 CL   UNL     1      -1.338   3.559  19.525  0.00  0.00    -0.083 Cl
ATOM      9  C   UNL     1      -2.871   5.220  20.944  0.00  0.00    +0.022 A 
ATOM     10  C   UNL     1      -3.696   5.545  22.001  0.00  0.00    +0.025 A 
ATOM     11  C   UNL     1      -4.004   4.602  22.970  0.00  0.00    +0.035 A 
BRANCH   2   3
ATOM      3  C   UNL     1      -2.063   1.578  21.678  0.00  0.00    +0.419 C 
ATOM      4  F   UNL     1      -0.718   1.698  21.789  0.00  0.00    -0.166 F 
ATOM      5  F   UNL     1      -2.357   1.029  20.487  0.00  0.00    -0.166 F 
ATOM      6  F   UNL     1      -2.512   0.720  22.618  0.00  0.00    -0.166 F 
ENDBRANCH   2   3
ENDBRANCH  12  11
ENDBRANCH  18  16
BRANCH  21  22
ATOM     22  O   UNL     1      -7.100   3.609  31.390  0.00  0.00    -0.456 OA
BRANCH  22  23
ATOM     23  C   UNL     1      -7.187   2.399  32.019  0.00  0.00    +0.132 A 
ATOM     24  C   UNL     1      -6.458   2.255  33.185  0.00  0.00    +0.079 A 
ATOM     25  C   UNL     1      -6.495   1.063  33.886  0.00  0.00    +0.129 A 
ATOM     31  N   UNL     1      -7.269   0.013  33.406  0.00  0.00    -0.250 NA
ATOM     32  C   UNL     1      -8.009   0.159  32.241  0.00  0.00    +0.115 A 
ATOM     33  C   UNL     1      -7.965   1.355  31.541  0.00  0.00    +0.066 A 
BRANCH  25  26
ATOM     26  C   UNL     1      -5.696   0.936  35.126  0.00  0.00    +0.262 C 
ATOM     27  O   UNL     1      -4.929   1.825  35.422  0.00  0.00    -0.269 OA
ATOM     28  N   UNL     1      -5.796  -0.177  35.938  0.00  0.00    -0.313 N 
ATOM     29  H   UNL     1      -6.477  -0.952  35.654  0.00  0.00    +0.149 HD
ATOM     30  C   UNL     1      -5.015  -0.354  37.173  0.00  0.00    +0.128 C 
ENDBRANCH  25  26
ENDBRANCH  22  23
ENDBRANCH  21  22
TORSDOF 6
