REMARK  Name = 9HW
REMARK  5 active torsions:
REMARK  status: ('A' for Active; 'I' for Inactive)
REMARK    1  A    between atoms: CBB_2  and  NAZ_3
REMARK    2  A    between atoms: CAX_4  and  CAW_6
REMARK    3  A    between atoms: CAW_6  and  CAJ_8
REMARK    4  A    between atoms: CAQ_19  and  OBD_20
REMARK    5  A    between atoms: CAH_24  and  CAE_25
REMARK                            x       y       z     vdW  Elec       q    Type
REMARK                         _______ _______ _______ _____ _____    ______ ____
ROOT
ATOM      7  C   UNL     1      17.200  -6.888   8.005  0.00  0.00    +0.170 C 
ATOM      8  N   UNL     1      17.115  -6.387   9.344  0.00  0.00    -0.264 NA
ATOM      9  C   UNL     1      17.592  -5.190   9.628  0.00  0.00    +0.078 C 
ATOM     17  C   UNL     1      18.184  -4.250   8.591  0.00  0.00    +0.036 A 
ATOM     18  C   UNL     1      19.364  -3.622   8.935  0.00  0.00    +0.040 A 
ATOM     19  C   UNL     1      19.921  -2.805   7.976  0.00  0.00    +0.139 A 
ATOM     22  C   UNL     1      19.361  -2.591   6.725  0.00  0.00    +0.038 A 
ATOM     23  C   UNL     1      18.161  -3.241   6.428  0.00  0.00    +0.021 A 
ATOM     24  C   UNL     1      17.557  -4.083   7.363  0.00  0.00    +0.068 A 
ATOM     25  N   UNL     1      16.481  -4.810   6.963  0.00  0.00    -0.279 N 
ATOM     26  C   UNL     1      15.393  -4.402   6.269  0.00  0.00    +0.147 A 
ATOM     27  N   UNL     1      14.505  -5.399   6.086  0.00  0.00    -0.133 NA
ATOM     28  N   UNL     1      15.047  -6.501   6.699  0.00  0.00    -0.131 NA
ATOM     29  C   UNL     1      15.119  -3.019   5.723  0.00  0.00    +0.074 C 
ATOM     30  C   UNL     1      16.214  -6.082   7.199  0.00  0.00    +0.170 A 
ENDROOT
BRANCH   9  10
ATOM     10  C   UNL     1      17.391  -4.650  11.019  0.00  0.00    +0.017 A 
ATOM     11  C   UNL     1      17.428  -5.521  12.093  0.00  0.00    +0.002 A 
ATOM     12  C   UNL     1      17.234  -5.033  13.373  0.00  0.00    +0.011 A 
ATOM     13  C   UNL     1      16.989  -3.683  13.566  0.00  0.00    +0.058 A 
ATOM     14 CL   UNL     1      16.742  -3.070  15.177  0.00  0.00    -0.082 Cl
ATOM     15  C   UNL     1      16.947  -2.811  12.496  0.00  0.00    +0.011 A 
ATOM     16  C   UNL     1      17.146  -3.299  11.215  0.00  0.00    +0.002 A 
ENDBRANCH   9  10
BRANCH   7   6
ATOM      6  C   UNL     1      16.915  -8.371   7.936  0.00  0.00    +0.108 C 
ATOM     31  C   UNL     1      17.245  -8.894   6.551  0.00  0.00    +0.012 C 
BRANCH   6   4
ATOM      3  N   UNL     1      17.068  -9.875   9.928  0.00  0.00    -0.205 NA
ATOM      4  C   UNL     1      17.750  -9.067   8.989  0.00  0.00    +0.243 C 
ATOM      5  O   UNL     1      18.971  -8.948   9.032  0.00  0.00    -0.273 OA
BRANCH   3   2
ATOM      1  C   UNL     1      18.252 -11.898  10.420  0.00  0.00    +0.025 C 
ATOM      2  C   UNL     1      17.771 -10.566  10.948  0.00  0.00    +0.115 C 
ENDBRANCH   3   2
ENDBRANCH   6   4
ENDBRANCH   7   6
BRANCH  19  20
ATOM     20  O   UNL     1      21.115  -2.166   8.354  0.00  0.00    -0.471 OA
ATOM     21  C   UNL     1      21.684  -1.250   7.449  0.00  0.00    +0.253 C 
ENDBRANCH  19  20
TORSDOF 5
