REMARK  Name = GDH
REMARK  5 active torsions:
REMARK  status: ('A' for Active; 'I' for Inactive)
REMARK    1  A    between atoms: C7_4  and  O8_17
REMARK    2  A    between atoms: C10_5  and  C9_18
REMARK    3  A    between atoms: C17_8  and  C18_23
REMARK    4  A    between atoms: O2_15  and  C3_16
REMARK    5  A    between atoms: O8_17  and  C9_18
REMARK                            x       y       z     vdW  Elec       q    Type
REMARK                         _______ _______ _______ _____ _____    ______ ____
ROOT
ATOM      1  C   UNL     1      25.831 -42.780  40.774  0.00  0.00    +0.037 A 
ATOM      2  C   UNL     1      25.157 -41.748  40.145  0.00  0.00    +0.142 A 
ATOM      5  C   UNL     1      25.311 -41.516  38.791  0.00  0.00    +0.068 A 
ATOM     17  C   UNL     1      26.165 -42.357  38.101  0.00  0.00    +0.142 A 
ATOM     18  C   UNL     1      26.852 -43.395  38.715  0.00  0.00    +0.037 A 
ATOM     28  C   UNL     1      26.683 -43.604  40.073  0.00  0.00    +0.006 A 
ENDROOT
BRANCH   5   6
ATOM      6  C   UNL     1      24.620 -40.423  38.105  0.00  0.00    +0.005 A 
ATOM      7  C   UNL     1      23.242 -40.427  37.982  0.00  0.00    -0.000 A 
ATOM      8  C   UNL     1      22.574 -39.412  37.332  0.00  0.00    -0.004 A 
ATOM      9  C   UNL     1      23.257 -38.352  36.772  0.00  0.00    -0.025 A 
ATOM     10  C   UNL     1      24.641 -38.319  36.883  0.00  0.00    -0.025 A 
ATOM     11  C   UNL     1      25.442 -37.194  36.282  0.00  0.00    +0.045 C 
ATOM     12  C   UNL     1      25.052 -35.881  36.941  0.00  0.00    +0.093 C 
ATOM     13  N   UNL     1      23.894 -35.309  36.256  0.00  0.00    -0.217 NA
ATOM     14  C   UNL     1      22.630 -35.913  36.689  0.00  0.00    +0.093 C 
ATOM     15  C   UNL     1      22.453 -37.293  36.064  0.00  0.00    +0.045 C 
ATOM     16  C   UNL     1      25.302 -39.348  37.544  0.00  0.00    -0.004 A 
ENDBRANCH   5   6
BRANCH   2   3
ATOM      3  O   UNL     1      24.303 -40.884  40.813  0.00  0.00    -0.471 OA
ATOM      4  C   UNL     1      24.067 -41.065  42.219  0.00  0.00    +0.253 C 
ENDBRANCH   2   3
BRANCH  17  19
ATOM     19  O   UNL     1      26.251 -42.081  36.752  0.00  0.00    -0.469 OA
BRANCH  19  20
ATOM     20  C   UNL     1      27.376 -42.604  36.042  0.00  0.00    +0.251 C 
BRANCH  20  21
ATOM     21  C   UNL     1      27.438 -41.855  34.743  0.00  0.00    +0.102 A 
ATOM     22  C   UNL     1      26.457 -40.938  34.397  0.00  0.00    +0.014 A 
ATOM     23  C   UNL     1      26.521 -40.277  33.187  0.00  0.00    -0.019 A 
ATOM     24  C   UNL     1      25.475 -39.284  32.775  0.00  0.00    +0.031 C 
ATOM     25  C   UNL     1      27.604 -40.530  32.369  0.00  0.00    +0.016 A 
ATOM     26  C   UNL     1      28.547 -41.448  32.784  0.00  0.00    +0.098 A 
ATOM     27  N   UNL     1      28.478 -42.120  33.947  0.00  0.00    -0.245 NA
ENDBRANCH  20  21
ENDBRANCH  19  20
ENDBRANCH  17  19
TORSDOF 5
