REMARK  Name = 5VC5
REMARK  11 active torsions:
REMARK  status: ('A' for Active; 'I' for Inactive)
REMARK    1  A    between atoms: C_1  and  C_2
REMARK    2  A    between atoms: C_2  and  N_3
REMARK    3  A    between atoms: N_3  and  C_4
REMARK    4  A    between atoms: N_3  and  C_6
REMARK    5  A    between atoms: C_4  and  C_5
REMARK    6  A    between atoms: C_6  and  C_7
REMARK    7  A    between atoms: C_7  and  O_8
REMARK    8  A    between atoms: O_8  and  C_9
REMARK    9  A    between atoms: C_12  and  N_13
REMARK   10  A    between atoms: C_21  and  C_26
REMARK   11  A    between atoms: N_24  and  C_25
REMARK                            x       y       z     vdW  Elec       q    Type
REMARK                         _______ _______ _______ _____ _____    ______ ____
ROOT
ATOM     11  N   UNL     1      -6.219   6.462  13.392  0.00  0.00    -0.284 N 
ATOM     12  H   UNL     1      -6.536   6.748  14.204  0.00  0.00    +0.155 HD
ATOM     13  C   UNL     1      -5.573   5.286  13.426  0.00  0.00    +0.221 A 
ATOM     14  N   UNL     1      -5.597   4.489  14.508  0.00  0.00    -0.222 NA
ATOM     15  C   UNL     1      -4.945   3.308  14.529  0.00  0.00    +0.126 A 
ATOM     16  C   UNL     1      -4.222   2.884  13.412  0.00  0.00    +0.036 A 
ATOM     17  C   UNL     1      -3.521   1.662  13.391  0.00  0.00    +0.027 C 
ATOM     18  C   UNL     1      -2.796   1.286  12.249  0.00  0.00    +0.050 C 
ATOM     27  C   UNL     1      -2.779   2.183  11.153  0.00  0.00    +0.260 C 
ATOM     28  N   UNL     1      -3.468   3.381  11.175  0.00  0.00    -0.295 N 
ATOM     29  C   UNL     1      -3.489   4.305  10.052  0.00  0.00    +0.154 C 
ATOM     30  O   UNL     1      -2.089   1.810  10.181  0.00  0.00    -0.267 OA
ATOM     31  C   UNL     1      -4.174   3.728  12.300  0.00  0.00    +0.148 A 
ATOM     32  N   UNL     1      -4.839   4.889  12.367  0.00  0.00    -0.196 NA
ENDROOT
BRANCH  18  19
ATOM     19  C   UNL     1      -2.092   0.040  12.197  0.00  0.00    +0.024 A 
ATOM     20  C   UNL     1      -0.685  -0.041  12.313  0.00  0.00    +0.050 A 
ATOM     21 CL   UNL     1       0.235   1.357  12.563  0.00  0.00    -0.083 Cl
ATOM     22  C   UNL     1      -0.010  -1.285  12.229  0.00  0.00    +0.021 A 
ATOM     23  C   UNL     1      -0.725  -2.474  12.029  0.00  0.00    +0.003 A 
ATOM     24  C   UNL     1      -2.132  -2.426  11.909  0.00  0.00    +0.021 A 
ATOM     25  C   UNL     1      -2.798  -1.174  11.970  0.00  0.00    +0.050 A 
ATOM     26 CL   UNL     1      -4.479  -1.165  11.812  0.00  0.00    -0.083 Cl
ENDBRANCH  18  19
BRANCH  11  10
ATOM      7  C   UNL     1      -7.144   9.159  10.294  0.00  0.00    +0.121 A 
ATOM      8  C   UNL     1      -6.011   8.335  10.171  0.00  0.00    +0.047 A 
ATOM      9  C   UNL     1      -5.698   7.419  11.181  0.00  0.00    +0.027 A 
ATOM     10  C   UNL     1      -6.484   7.310  12.339  0.00  0.00    +0.034 A 
ATOM     33  C   UNL     1      -7.611   8.162  12.475  0.00  0.00    +0.027 A 
ATOM     34  C   UNL     1      -7.946   9.077  11.453  0.00  0.00    +0.047 A 
BRANCH   7   6
ATOM      6  O   UNL     1      -7.414  10.056   9.320  0.00  0.00    -0.491 OA
BRANCH   6   5
ATOM      5  C   UNL     1      -7.143   9.600   7.966  0.00  0.00    +0.244 C 
BRANCH   5   4
ATOM      4  C   UNL     1      -8.208  10.211   7.002  0.00  0.00    +0.125 C 
BRANCH   4   3
ATOM      3  N   UNL     1      -8.723  11.565   7.436  0.00  0.00    -0.300 NA
BRANCH   3   2
ATOM      1  C   UNL     1     -10.268  11.340   9.591  0.00  0.00    +0.020 C 
ATOM      2  C   UNL     1     -10.092  11.736   8.088  0.00  0.00    +0.081 C 
ENDBRANCH   3   2
BRANCH   3  35
ATOM     35  C   UNL     1      -7.764  12.719   7.312  0.00  0.00    +0.081 C 
ATOM     36  C   UNL     1      -6.466  12.699   8.166  0.00  0.00    +0.020 C 
ENDBRANCH   3  35
ENDBRANCH   4   3
ENDBRANCH   5   4
ENDBRANCH   6   5
ENDBRANCH   7   6
ENDBRANCH  11  10
TORSDOF 8
