REMARK  Name = 3iw7_ligand
REMARK  5 active torsions:
REMARK  status: ('A' for Active; 'I' for Inactive)
REMARK    1  A    between atoms: CAR_15  and  SAW_17
REMARK    2  A    between atoms: CAR_15  and  CAY_19
REMARK    3  A    between atoms: CAS_16  and  CAZ_20
REMARK    4  A    between atoms: CAS_16  and  CBE_22
REMARK    5  A    between atoms: CAX_18  and  CBA_21
REMARK                            x       y       z     vdW  Elec       q    Type
REMARK                         _______ _______ _______ _____ _____    ______ ____
ROOT
ATOM      1  O   UNL     1      19.847   1.265 -26.227  0.00  0.00    -0.388 OA
ATOM      2  C   UNL     1      19.612   1.724 -25.116  0.00  0.00    +0.202 C 
ATOM      3  N   UNL     1      19.598   0.897 -24.065  0.00  0.00    -0.273 N 
ATOM      4  C   UNL     1      19.871  -0.559 -24.257  0.00  0.00    +0.138 C 
ATOM      5  C   UNL     1      20.815  -1.121 -23.175  0.00  0.00    +0.030 C 
ATOM      6  C   UNL     1      21.276  -0.055 -22.164  0.00  0.00    +0.005 C 
ATOM     14  C   UNL     1      20.089   0.743 -21.604  0.00  0.00    +0.030 C 
ATOM     15  C   UNL     1      19.316   1.461 -22.697  0.00  0.00    +0.138 C 
ENDROOT
BRANCH   2  16
ATOM     16  C   UNL     1      19.329   3.236 -24.929  0.00  0.00    +0.043 A 
ATOM     17  C   UNL     1      20.277   4.199 -25.291  0.00  0.00    +0.017 A 
ATOM     18  C   UNL     1      20.007   5.553 -25.110  0.00  0.00    +0.003 A 
ATOM     19  C   UNL     1      18.774   5.952 -24.561  0.00  0.00    -0.029 A 
ATOM     23  C   UNL     1      17.832   4.983 -24.207  0.00  0.00    +0.003 A 
ATOM     24  C   UNL     1      18.105   3.635 -24.393  0.00  0.00    +0.017 A 
BRANCH  19  20
ATOM     20  C   UNL     1      18.424   7.449 -24.345  0.00  0.00    +0.136 C 
BRANCH  20  21
ATOM     21  S   UNL     1      19.698   8.334 -23.340  0.00  0.00    -0.164 S 
ATOM     22  H   UNL     1      19.426   9.298 -23.229  0.00  0.00    +0.104 HD
ENDBRANCH  20  21
ENDBRANCH  19  20
ENDBRANCH   2  16
BRANCH   6   7
ATOM      7  C   UNL     1      22.049  -0.589 -20.954  0.00  0.00    +0.070 C 
BRANCH   7   8
ATOM      8  C   UNL     1      22.509  -2.046 -20.982  0.00  0.00    -0.043 A 
ATOM      9  C   UNL     1      23.771  -2.346 -21.470  0.00  0.00    -0.005 A 
ATOM     10  C   UNL     1      24.205  -3.666 -21.475  0.00  0.00    -0.009 A 
ATOM     11  C   UNL     1      23.384  -4.685 -20.972  0.00  0.00    -0.013 A 
ATOM     12  C   UNL     1      22.124  -4.370 -20.459  0.00  0.00    -0.009 A 
ATOM     13  C   UNL     1      21.683  -3.051 -20.462  0.00  0.00    -0.005 A 
ENDBRANCH   7   8
ENDBRANCH   6   7
TORSDOF 5
