REMARK  Name = 5NK3
REMARK  5 active torsions:
REMARK  status: ('A' for Active; 'I' for Inactive)
REMARK    1  A    between atoms: C_5  and  N_6
REMARK    2  A    between atoms: C_7  and  C_9
REMARK    3  A    between atoms: C_14  and  N_15
REMARK    4  A    between atoms: C_20  and  C_21
REMARK    5  A    between atoms: N_23  and  C_24
REMARK                            x       y       z     vdW  Elec       q    Type
REMARK                         _______ _______ _______ _____ _____    ______ ____
ROOT
ATOM     10  N   UNL     1     127.349  32.115 -23.153  0.00  0.00    -0.189 NA
ATOM     11  C   UNL     1     128.331  32.842 -23.691  0.00  0.00    +0.184 A 
ATOM     12  N   UNL     1     129.615  32.462 -23.620  0.00  0.00    -0.221 NA
ATOM     13  C   UNL     1     130.502  33.320 -24.203  0.00  0.00    +0.112 A 
ATOM     14  C   UNL     1     129.934  34.399 -24.782  0.00  0.00    +0.107 A 
ATOM     26  S   UNL     1     128.248  34.315 -24.532  0.00  0.00    -0.045 S 
ENDROOT
BRANCH  10   9
ATOM      5  C   UNL     1     124.242  34.098 -22.845  0.00  0.00    +0.056 A 
ATOM      6  C   UNL     1     123.312  33.077 -22.999  0.00  0.00    +0.005 A 
ATOM      7  C   UNL     1     123.737  31.767 -23.204  0.00  0.00    +0.002 A 
ATOM      8  C   UNL     1     125.103  31.481 -23.251  0.00  0.00    +0.017 A 
ATOM      9  C   UNL     1     126.047  32.490 -23.107  0.00  0.00    +0.073 A 
ATOM     27  C   UNL     1     125.606  33.800 -22.889  0.00  0.00    +0.021 A 
BRANCH   5   4
ATOM      3  N   UNL     1     122.784  35.806 -23.425  0.00  0.00    -0.202 NA
ATOM      4  C   UNL     1     123.788  35.407 -22.631  0.00  0.00    +0.265 C 
ATOM     28  O   UNL     1     124.248  36.104 -21.728  0.00  0.00    -0.268 OA
BRANCH   3   2
ATOM      1  C   UNL     1     123.010  38.223 -23.905  0.00  0.00    +0.042 C 
ATOM      2  C   UNL     1     122.151  37.143 -23.307  0.00  0.00    +0.114 C 
ATOM     29  C   UNL     1     120.990  37.255 -24.256  0.00  0.00    +0.110 C 
ATOM     30  N   UNL     1     120.672  38.698 -24.158  0.00  0.00    -0.216 NA
ATOM     31  C   UNL     1     121.987  39.364 -24.005  0.00  0.00    +0.091 C 
ENDBRANCH   3   2
ENDBRANCH   5   4
ENDBRANCH  10   9
BRANCH  14  15
ATOM     15  C   UNL     1     130.547  35.421 -25.426  0.00  0.00    +0.277 C 
ATOM     16  N   UNL     1     131.889  35.337 -25.650  0.00  0.00    -0.174 NA
ATOM     25  O   UNL     1     129.888  36.411 -25.746  0.00  0.00    -0.267 OA
BRANCH  16  17
ATOM     17  C   UNL     1     132.569  36.374 -26.224  0.00  0.00    +0.080 A 
ATOM     18  C   UNL     1     132.943  37.464 -25.429  0.00  0.00    -0.006 A 
ATOM     19  C   UNL     1     132.620  37.541 -24.074  0.00  0.00    +0.032 C 
ATOM     20  C   UNL     1     133.654  38.524 -25.997  0.00  0.00    -0.003 A 
ATOM     21  C   UNL     1     134.006  38.499 -27.341  0.00  0.00    +0.001 A 
ATOM     22  C   UNL     1     133.644  37.412 -28.126  0.00  0.00    +0.013 A 
ATOM     23  C   UNL     1     132.931  36.343 -27.580  0.00  0.00    +0.073 A 
ATOM     24 CL   UNL     1     132.525  35.026 -28.631  0.00  0.00    -0.081 Cl
ENDBRANCH  16  17
ENDBRANCH  14  15
TORSDOF 5
