REMARK  Name = 4QP8
REMARK  2 active torsions:
REMARK  status: ('A' for Active; 'I' for Inactive)
REMARK    1  A    between atoms: C_3  and  C_10
REMARK    2  A    between atoms: C_6  and  C_16
REMARK                            x       y       z     vdW  Elec       q    Type
REMARK                         _______ _______ _______ _____ _____    ______ ____
ROOT
ATOM      7  C   UNL     1      36.534 -44.222  39.435  0.00  0.00    +0.031 A 
ATOM      8  C   UNL     1      35.522 -44.417  40.483  0.00  0.00    +0.118 A 
ATOM      9  N   UNL     1      34.310 -44.962  40.498  0.00  0.00    -0.241 NA
ATOM     10  C   UNL     1      33.620 -44.996  41.629  0.00  0.00    +0.093 A 
ATOM     17  C   UNL     1      34.171 -44.458  42.796  0.00  0.00    +0.141 A 
ATOM     18  N   UNL     1      35.372 -43.916  42.787  0.00  0.00    -0.232 NA
ATOM     19  C   UNL     1      36.073 -43.877  41.660  0.00  0.00    +0.179 A 
ATOM     20  N   UNL     1      37.319 -43.391  41.339  0.00  0.00    -0.234 NA
ATOM     21  C   UNL     1      37.586 -43.597  40.018  0.00  0.00    +0.124 A 
ENDROOT
BRANCH   7   6
ATOM      1  C   UNL     1      35.414 -45.511  37.618  0.00  0.00    +0.119 A 
ATOM      2  N   UNL     1      35.291 -45.858  36.354  0.00  0.00    -0.263 NA
ATOM      3  C   UNL     1      36.088 -45.378  35.418  0.00  0.00    +0.111 A 
ATOM      4  C   UNL     1      37.094 -44.483  35.728  0.00  0.00    +0.020 A 
ATOM      5  C   UNL     1      37.263 -44.086  37.043  0.00  0.00    +0.012 A 
ATOM      6  C   UNL     1      36.408 -44.618  38.013  0.00  0.00    +0.004 A 
ENDBRANCH   7   6
BRANCH  10  11
ATOM     11  C   UNL     1      32.265 -45.606  41.644  0.00  0.00    +0.039 A 
ATOM     12  C   UNL     1      31.432 -45.706  42.722  0.00  0.00    +0.144 A 
ATOM     13  N   UNL     1      30.306 -46.323  42.312  0.00  0.00    -0.182 NA
ATOM     14  N   UNL     1      30.435 -46.615  40.949  0.00  0.00    -0.284 N 
ATOM     15  H   UNL     1      29.702 -47.103  40.341  0.00  0.00    +0.188 HD
ATOM     16  C   UNL     1      31.603 -46.190  40.545  0.00  0.00    +0.115 A 
ENDBRANCH  10  11
TORSDOF 2
