REMARK  Name = A4B
REMARK  3 active torsions:
REMARK  status: ('A' for Active; 'I' for Inactive)
REMARK    1  A    between atoms: C11_2  and  C10_9
REMARK    2  A    between atoms: C1_5  and  O_15
REMARK    3  A    between atoms: C7_13  and  C6_14
REMARK                            x       y       z     vdW  Elec       q    Type
REMARK                         _______ _______ _______ _____ _____    ______ ____
ROOT
ATOM      4  C   UNL     1       5.016 140.124 351.165  0.00  0.00    +0.014 A 
ATOM      5  C   UNL     1       5.883 139.799 352.205  0.00  0.00    +0.001 A 
ATOM      6  C   UNL     1       5.910 138.521 352.733  0.00  0.00    -0.003 A 
ATOM      7  C   UNL     1       5.079 137.526 352.246  0.00  0.00    -0.002 A 
ATOM     10  C   UNL     1       4.211 137.840 351.209  0.00  0.00    +0.009 A 
ATOM     11  C   UNL     1       4.184 139.116 350.683  0.00  0.00    +0.058 A 
ATOM     12 CL   UNL     1       3.077 139.442 349.389  0.00  0.00    -0.082 Cl
ENDROOT
BRANCH   4   3
ATOM      1  C   UNL     1       4.409 143.839 350.882  0.00  0.00    +0.000 A 
ATOM      2  C   UNL     1       4.427 142.541 351.360  0.00  0.00    +0.003 A 
ATOM      3  C   UNL     1       5.012 141.515 350.619  0.00  0.00    +0.035 A 
ATOM     13  C   UNL     1       5.578 141.840 349.383  0.00  0.00    +0.139 A 
ATOM     14  C   UNL     1       5.559 143.141 348.905  0.00  0.00    +0.037 A 
ATOM     17  C   UNL     1       4.971 144.137 349.663  0.00  0.00    +0.003 A 
BRANCH  13  15
ATOM     15  O   UNL     1       6.139 140.800 348.696  0.00  0.00    -0.471 OA
ATOM     16  C   UNL     1       6.670 141.077 347.403  0.00  0.00    +0.253 C 
ENDBRANCH  13  15
ENDBRANCH   4   3
BRANCH   7   8
ATOM      8  C   UNL     1       5.112 136.134 352.825  0.00  0.00    +0.136 C 
ATOM      9  N   UNL     1       6.038 135.214 352.173  0.00  0.00    -0.126 NA
ENDBRANCH   7   8
TORSDOF 3
