REMARK  Name = 4nka_ligand
REMARK  12 active torsions:
REMARK  status: ('A' for Active; 'I' for Inactive)
REMARK    1  A    between atoms: C1_1  and  C_32
REMARK    2  A    between atoms: C3_3  and  C4_29
REMARK    3  A    between atoms: C8_6  and  N4_23
REMARK    4  A    between atoms: C9_7  and  N4_23
REMARK    5  A    between atoms: C11_9  and  C12_10
REMARK    6  A    between atoms: C12_10  and  C13_11
REMARK    7  A    between atoms: C13_11  and  C14_12
REMARK    8  A    between atoms: C20_16  and  O1_21
REMARK    9  A    between atoms: C21_17  and  O2_18
REMARK   10  A    between atoms: O2_18  and  C17_19
REMARK   11  A    between atoms: C18_20  and  O1_21
REMARK   12  A    between atoms: N1_28  and  C4_29
REMARK                            x       y       z     vdW  Elec       q    Type
REMARK                         _______ _______ _______ _____ _____    ______ ____
ROOT
ATOM     14  C   UNL     1      87.631   0.018   9.638  0.00  0.00    +0.173 A 
ATOM     15  C   UNL     1      87.750   1.107  10.546  0.00  0.00    -0.009 A 
ATOM     16  C   UNL     1      88.694   0.701  11.454  0.00  0.00    -0.011 A 
ATOM     17  N   UNL     1      89.052  -0.558  11.124  0.00  0.00    -0.252 NA
ATOM     30  N   UNL     1      88.416  -1.003   9.973  0.00  0.00    -0.211 N 
ATOM     31  H   UNL     1      88.526  -1.908   9.493  0.00  0.00    +0.247 HD
ENDROOT
BRANCH  14  12
ATOM     12  N   UNL     1      86.800  -0.122   8.493  0.00  0.00    -0.230 N 
ATOM     13  H   UNL     1      86.881  -1.016   7.988  0.00  0.00    +0.222 HD
BRANCH  12  11
ATOM      7  N   UNL     1      84.627   4.023   8.803  0.00  0.00    -0.276 N 
ATOM      8  H   UNL     1      83.873   4.643   8.476  0.00  0.00    +0.189 HD
ATOM      9  C   UNL     1      84.813   2.855   8.140  0.00  0.00    +0.177 A 
ATOM     10  N   UNL     1      85.749   1.986   8.613  0.00  0.00    -0.238 NA
ATOM     11  C   UNL     1      85.880   0.802   7.958  0.00  0.00    +0.137 A 
ATOM     32  C   UNL     1      85.123   0.498   6.797  0.00  0.00    +0.056 A 
ATOM     33  C   UNL     1      84.216   1.468   6.379  0.00  0.00    +0.085 A 
ATOM     34  N   UNL     1      84.062   2.659   7.039  0.00  0.00    -0.273 NA
BRANCH   7   6
ATOM      6  C   UNL     1      85.427   4.471   9.960  0.00  0.00    +0.252 C 
BRANCH   6   5
ATOM      1  C   UNL     1      84.159   2.818  12.957  0.00  0.00    +0.008 A 
ATOM      2  C   UNL     1      83.279   1.998  13.852  0.00  0.00    +0.083 C 
ATOM      3  N   UNL     1      85.213   3.402  13.437  0.00  0.00    -0.174 NA
ATOM      4  O   UNL     1      85.804   4.093  12.353  0.00  0.00    -0.179 OA
ATOM      5  C   UNL     1      85.029   3.861  11.249  0.00  0.00    +0.154 A 
ATOM     35  C   UNL     1      84.004   3.075  11.587  0.00  0.00    -0.005 A 
ENDBRANCH   6   5
ENDBRANCH   7   6
ENDBRANCH  12  11
ENDBRANCH  14  12
BRANCH  16  18
ATOM     18  C   UNL     1      89.146   1.378  12.682  0.00  0.00    +0.073 C 
BRANCH  18  19
ATOM     19  C   UNL     1      88.142   1.228  13.867  0.00  0.00    +0.066 C 
BRANCH  19  20
ATOM     20  C   UNL     1      88.627   1.942  15.084  0.00  0.00    -0.061 A 
ATOM     21  C   UNL     1      88.340   3.298  15.251  0.00  0.00    +0.005 A 
ATOM     22  C   UNL     1      88.801   3.962  16.386  0.00  0.00    +0.113 A 
ATOM     25  C   UNL     1      89.568   3.252  17.369  0.00  0.00    +0.112 A 
ATOM     28  C   UNL     1      89.865   1.896  17.186  0.00  0.00    +0.001 A 
ATOM     29  C   UNL     1      89.391   1.255  16.045  0.00  0.00    -0.036 A 
BRANCH  22  23
ATOM     23  O   UNL     1      88.588   5.316  16.652  0.00  0.00    -0.327 OA
ATOM     24  C   UNL     1      87.287   5.860  16.388  0.00  0.00    +0.229 C 
ENDBRANCH  22  23
BRANCH  25  26
ATOM     26  O   UNL     1      90.040   4.002  18.415  0.00  0.00    -0.329 OA
ATOM     27  C   UNL     1      91.424   4.381  18.367  0.00  0.00    +0.226 C 
ENDBRANCH  25  26
ENDBRANCH  19  20
ENDBRANCH  18  19
ENDBRANCH  16  18
TORSDOF 9
