REMARK  Name = 4ZHX
REMARK  6 active torsions:
REMARK  status: ('A' for Active; 'I' for Inactive)
REMARK    1  A    between atoms: C_4  and  N_34
REMARK    2  A    between atoms: C_5  and  O_32
REMARK    3  A    between atoms: C_6  and  C_7
REMARK    4  A    between atoms: C_23  and  O_24
REMARK    5  A    between atoms: O_32  and  C_33
REMARK    6  A    between atoms: N_34  and  C_35
REMARK                            x       y       z     vdW  Elec       q    Type
REMARK                         _______ _______ _______ _____ _____    ______ ____
ROOT
ATOM      1  O   UNL     1     128.720 -20.392  10.403  0.00  0.00    -0.333 OA
ATOM      2  C   UNL     1     127.563 -20.152  11.230  0.00  0.00    +0.164 C 
ATOM      3  N   UNL     1     126.393 -19.809  10.324  0.00  0.00    -0.291 N 
ATOM      4  C   UNL     1     125.096 -19.959  10.774  0.00  0.00    +0.040 A 
ATOM      5  C   UNL     1     124.417 -20.594  11.827  0.00  0.00    +0.024 A 
ATOM      6  C   UNL     1     123.019 -20.685  11.808  0.00  0.00    +0.002 A 
ATOM      7  C   UNL     1     122.256 -20.067  10.805  0.00  0.00    +0.001 A 
ATOM      8  C   UNL     1     122.872 -19.356   9.770  0.00  0.00    +0.010 A 
ATOM      9  C   UNL     1     124.262 -19.417   9.670  0.00  0.00    +0.001 A 
ATOM     10  C   UNL     1     125.138 -18.536   8.899  0.00  0.00    -0.015 C 
ATOM     11  C   UNL     1     124.962 -18.097   7.479  0.00  0.00    -0.043 C 
ATOM     12  C   UNL     1     123.780 -17.491   6.906  0.00  0.00    +0.115 C 
ATOM     13  N   UNL     1     124.313 -16.781   5.732  0.00  0.00    -0.288 NA
ATOM     14  H   UNL     1     123.756 -16.494   4.865  0.00  0.00    +0.125 HD
ATOM     15  C   UNL     1     125.629 -16.555   5.941  0.00  0.00    +0.191 C 
ATOM     18  C   UNL     1     126.157 -17.717   6.695  0.00  0.00    +0.069 C 
ATOM     19  C   UNL     1     127.451 -17.597   7.418  0.00  0.00    +0.054 C 
ATOM     20  C   UNL     1     128.794 -17.442   6.875  0.00  0.00    -0.021 A 
ATOM     21  C   UNL     1     129.230 -16.624   5.834  0.00  0.00    +0.006 A 
ATOM     22  C   UNL     1     130.612 -16.488   5.654  0.00  0.00    +0.000 A 
ATOM     23  C   UNL     1     131.522 -17.037   6.575  0.00  0.00    +0.002 A 
ATOM     24  C   UNL     1     131.093 -17.758   7.701  0.00  0.00    +0.023 A 
ATOM     25  C   UNL     1     129.723 -17.973   7.904  0.00  0.00    +0.035 A 
ATOM     26  N   UNL     1     128.961 -18.528   8.901  0.00  0.00    -0.298 N 
ATOM     27  C   UNL     1     127.653 -18.589   8.498  0.00  0.00    +0.109 C 
ATOM     28  C   UNL     1     126.505 -18.754   9.454  0.00  0.00    +0.128 C 
ATOM     29  C   UNL     1     127.398 -21.538  11.861  0.00  0.00    +0.067 C 
ATOM     30  C   UNL     1     127.836 -19.131  12.364  0.00  0.00    +0.185 C 
ATOM     33  C   UNL     1     129.338 -18.849  12.512  0.00  0.00    +0.091 C 
ATOM     37  C   UNL     1     129.962 -18.384  11.195  0.00  0.00    +0.073 C 
ATOM     38  C   UNL     1     129.564 -19.295  10.027  0.00  0.00    +0.211 C 
ENDROOT
BRANCH  33  34
ATOM     34  N   UNL     1     129.628 -17.946  13.608  0.00  0.00    -0.314 NA
ATOM     35  H   UNL     1     128.703 -17.484  13.883  0.00  0.00    +0.122 HD
ATOM     36  C   UNL     1     130.218 -18.466  14.828  0.00  0.00    +0.101 C 
ENDBRANCH  33  34
BRANCH  15  16
ATOM     16  O   UNL     1     126.248 -16.313   4.848  0.00  0.00    -0.377 OA
ATOM     17  H   UNL     1     127.258 -16.113   5.054  0.00  0.00    +0.211 HD
ENDBRANCH  15  16
BRANCH  30  31
ATOM     31  O   UNL     1     127.119 -17.898  12.215  0.00  0.00    -0.374 OA
ATOM     32  C   UNL     1     126.163 -17.676  13.254  0.00  0.00    +0.194 C 
ENDBRANCH  30  31
TORSDOF 3
