REMARK  Name = 4fz6_ligand
REMARK  4 active torsions:
REMARK  status: ('A' for Active; 'I' for Inactive)
REMARK    1  A    between atoms: C3_3  and  N11_11
REMARK    2  A    between atoms: C6_6  and  C15_15
REMARK    3  A    between atoms: N11_11  and  C12_12
REMARK    4  A    between atoms: C16_16  and  C25_25
REMARK                            x       y       z     vdW  Elec       q    Type
REMARK                         _______ _______ _______ _____ _____    ______ ____
ROOT
ATOM      1  C   UNL     1       3.754  -0.648  15.338  0.00  0.00    +0.197 A 
ATOM      2  N   UNL     1       4.366  -1.302  16.308  0.00  0.00    -0.330 NA
ATOM      3  C   UNL     1       5.626  -0.868  16.384  0.00  0.00    +0.026 A 
ATOM      4  C   UNL     1       5.838   0.078  15.439  0.00  0.00    +0.153 A 
ATOM      5  C   UNL     1       2.430  -0.711  14.852  0.00  0.00    +0.130 A 
ATOM     20  C   UNL     1       2.083   0.135  13.821  0.00  0.00    +0.045 A 
ATOM     21  C   UNL     1       3.043   1.031  13.276  0.00  0.00    +0.070 A 
ATOM     28  N   UNL     1       4.277   1.056  13.737  0.00  0.00    -0.167 NA
ATOM     29  N   UNL     1       4.662   0.219  14.774  0.00  0.00    -0.147 N 
ENDROOT
BRANCH  21  22
ATOM     22  C   UNL     1       2.729   1.997  12.184  0.00  0.00    +0.000 A 
ATOM     23  C   UNL     1       1.472   2.609  12.132  0.00  0.00    +0.014 A 
ATOM     24  C   UNL     1       1.196   3.528  11.129  0.00  0.00    +0.003 A 
ATOM     25  C   UNL     1       2.171   3.859  10.196  0.00  0.00    +0.003 A 
ATOM     26  C   UNL     1       3.431   3.276  10.249  0.00  0.00    +0.003 A 
ATOM     27  C   UNL     1       3.714   2.352  11.244  0.00  0.00    +0.014 A 
ENDBRANCH  21  22
BRANCH   5   6
ATOM      6  N   UNL     1       1.573  -1.627  15.491  0.00  0.00    -0.251 N 
ATOM      7  H   UNL     1       1.994  -2.167  16.261  0.00  0.00    +0.218 HD
BRANCH   6   8
ATOM      8  C   UNL     1       0.233  -1.903  15.224  0.00  0.00    +0.119 A 
ATOM      9  C   UNL     1      -0.377  -2.945  15.928  0.00  0.00    +0.026 A 
ATOM     10  C   UNL     1      -1.716  -3.243  15.687  0.00  0.00    +0.001 A 
ATOM     11  C   UNL     1      -2.413  -2.489  14.747  0.00  0.00    +0.021 A 
ATOM     12  C   UNL     1      -1.750  -1.458  14.072  0.00  0.00    +0.099 A 
ATOM     13  N   UNL     1      -2.427  -0.688  13.116  0.00  0.00    -0.294 N 
ATOM     14  C   UNL     1      -3.911  -0.549  13.074  0.00  0.00    +0.134 C 
ATOM     15  C   UNL     1      -4.178   0.490  11.968  0.00  0.00    +0.026 C 
ATOM     16  C   UNL     1      -2.936   1.404  12.008  0.00  0.00    +0.029 C 
ATOM     17  C   UNL     1      -1.779   0.483  12.464  0.00  0.00    +0.093 C 
ATOM     18  C   UNL     1      -0.945   0.022  11.261  0.00  0.00    +0.034 C 
ATOM     19  N   UNL     1      -0.469  -1.208  14.336  0.00  0.00    -0.268 NA
ENDBRANCH   6   8
ENDBRANCH   5   6
TORSDOF 3
