REMARK  Name = 2xmy_ligand
REMARK  10 active torsions:
REMARK  status: ('A' for Active; 'I' for Inactive)
REMARK    1  A    between atoms: C17_1  and  C16_2
REMARK    2  A    between atoms: N4_3  and  C13_4
REMARK    3  A    between atoms: C15_8  and  C_9
REMARK    4  A    between atoms: N1_15  and  C2_16
REMARK    5  A    between atoms: C5_21  and  S_22
REMARK    6  A    between atoms: S_22  and  N2_25
REMARK    7  A    between atoms: N2_25  and  C6_26
REMARK    8  A    between atoms: C6_26  and  C7_27
REMARK    9  A    between atoms: C7_27  and  O_28
REMARK   10  A    between atoms: O_28  and  C8_29
REMARK                            x       y       z     vdW  Elec       q    Type
REMARK                         _______ _______ _______ _____ _____    ______ ____
ROOT
ATOM      4  C   UNL     1      26.515  30.495  26.985  0.00  0.00    +0.020 A 
ATOM      5  C   UNL     1      26.731  31.844  27.243  0.00  0.00    +0.014 A 
ATOM      6  C   UNL     1      25.906  32.494  28.146  0.00  0.00    +0.075 A 
ATOM      7  N   UNL     1      24.924  31.821  28.718  0.00  0.00    -0.276 NA
ATOM      8  C   UNL     1      24.712  30.528  28.438  0.00  0.00    +0.185 A 
ATOM      9  N   UNL     1      23.713  29.977  29.109  0.00  0.00    -0.246 N 
ATOM     10  H   UNL     1      23.372  30.493  29.933  0.00  0.00    +0.217 HD
ATOM     26  N   UNL     1      25.509  29.841  27.594  0.00  0.00    -0.280 NA
ENDROOT
BRANCH   4   3
ATOM      1  C   UNL     1      29.498  31.152  26.493  0.00  0.00    +0.147 C 
ATOM      2  C   UNL     1      28.654  30.122  25.741  0.00  0.00    +0.088 A 
ATOM      3  C   UNL     1      27.315  29.852  26.045  0.00  0.00    +0.064 A 
ATOM     27  S   UNL     1      26.757  28.660  24.974  0.00  0.00    +0.001 S 
ATOM     28  C   UNL     1      28.263  28.515  24.193  0.00  0.00    +0.283 A 
ATOM     29  O   UNL     1      28.509  27.722  23.286  0.00  0.00    -0.374 OA
ATOM     30  N   UNL     1      29.141  29.367  24.743  0.00  0.00    -0.196 N 
ATOM     31  C   UNL     1      30.545  29.456  24.286  0.00  0.00    +0.230 C 
ENDBRANCH   4   3
BRANCH   9  11
ATOM     11  C   UNL     1      23.106  28.833  28.834  0.00  0.00    +0.065 A 
ATOM     12  C   UNL     1      23.298  28.095  27.674  0.00  0.00    +0.017 A 
ATOM     13  C   UNL     1      22.545  26.933  27.492  0.00  0.00    +0.016 A 
ATOM     14  C   UNL     1      21.629  26.523  28.464  0.00  0.00    +0.097 A 
ATOM     24  C   UNL     1      21.438  27.268  29.619  0.00  0.00    +0.016 A 
ATOM     25  C   UNL     1      22.178  28.425  29.784  0.00  0.00    +0.017 A 
BRANCH  14  15
ATOM     15  S   UNL     1      20.635  25.097  28.284  0.00  0.00    +0.063 S 
ATOM     22  O   UNL     1      20.062  24.747  29.637  0.00  0.00    -0.152 OA
ATOM     23  O   UNL     1      19.484  25.445  27.385  0.00  0.00    -0.152 OA
BRANCH  15  16
ATOM     16  N   UNL     1      21.476  23.829  27.668  0.00  0.00    -0.246 NA
ATOM     17  H   UNL     1      22.429  23.865  27.368  0.00  0.00    +0.167 HD
BRANCH  16  18
ATOM     18  C   UNL     1      20.620  22.629  27.621  0.00  0.00    +0.149 C 
BRANCH  18  19
ATOM     19  C   UNL     1      20.743  21.803  28.910  0.00  0.00    +0.179 C 
BRANCH  19  20
ATOM     20  O   UNL     1      19.601  21.943  29.794  0.00  0.00    -0.381 OA
ATOM     21  C   UNL     1      19.251  20.670  30.331  0.00  0.00    +0.193 C 
ENDBRANCH  19  20
ENDBRANCH  18  19
ENDBRANCH  16  18
ENDBRANCH  15  16
ENDBRANCH  14  15
ENDBRANCH   9  11
TORSDOF 7
