REMARK  Name = 5JRS
REMARK  7 active torsions:
REMARK  status: ('A' for Active; 'I' for Inactive)
REMARK    1  A    between atoms: C_2  and  C_3
REMARK    2  A    between atoms: C_2  and  C_4
REMARK    3  A    between atoms: C_2  and  C_9
REMARK    4  A    between atoms: C_2  and  O_26
REMARK    5  A    between atoms: C_8  and  N_30
REMARK    6  A    between atoms: C_15  and  C_28
REMARK    7  A    between atoms: C_18  and  C_23
REMARK                            x       y       z     vdW  Elec       q    Type
REMARK                         _______ _______ _______ _____ _____    ______ ____
ROOT
ATOM      1  C   UNL     1      11.107  10.916   1.633  0.00  0.00    +0.011 A 
ATOM      2  C   UNL     1      12.457  10.826   1.976  0.00  0.00    +0.008 A 
ATOM      3  C   UNL     1      13.323  11.852   1.553  0.00  0.00    +0.048 A 
ATOM      4  C   UNL     1      12.875  12.936   0.790  0.00  0.00    +0.032 A 
ATOM      5  C   UNL     1      11.529  13.007   0.445  0.00  0.00    -0.015 A 
ATOM     11  N   UNL     1      14.602  11.590   2.020  0.00  0.00    -0.353 N 
ATOM     12  H   UNL     1      15.415  12.166   1.831  0.00  0.00    +0.166 HD
ATOM     13  C   UNL     1      14.587  10.418   2.749  0.00  0.00    +0.060 A 
ATOM     14  C   UNL     1      15.642   9.761   3.407  0.00  0.00    +0.060 A 
ATOM     20  C   UNL     1      15.344   8.569   4.074  0.00  0.00    +0.016 A 
ATOM     21  C   UNL     1      14.065   8.033   4.071  0.00  0.00    +0.010 A 
ATOM     22  C   UNL     1      13.013   8.674   3.411  0.00  0.00    -0.005 A 
ATOM     41  C   UNL     1      13.274   9.888   2.741  0.00  0.00    +0.016 A 
ATOM     42  C   UNL     1      10.666  11.990   0.869  0.00  0.00    +0.007 A 
ENDROOT
BRANCH  22  23
ATOM     23  C   UNL     1      11.665   8.035   3.447  0.00  0.00    +0.020 A 
ATOM     24  C   UNL     1      11.054   7.517   2.320  0.00  0.00    +0.155 A 
ATOM     25  F   UNL     1      11.629   7.678   1.116  0.00  0.00    -0.203 F 
ATOM     26  C   UNL     1       9.815   6.830   2.429  0.00  0.00    +0.087 A 
ATOM     38  C   UNL     1       9.234   6.653   3.687  0.00  0.00    +0.029 A 
ATOM     39  C   UNL     1       9.859   7.182   4.804  0.00  0.00    +0.003 A 
ATOM     40  C   UNL     1      11.054   7.876   4.687  0.00  0.00    +0.011 A 
BRANCH  26  27
ATOM     27  N   UNL     1       9.170   6.293   1.256  0.00  0.00    -0.264 N 
ATOM     28  C   UNL     1       9.107   4.931   1.104  0.00  0.00    +0.207 C 
ATOM     29  N   UNL     1       8.585   4.299   0.119  0.00  0.00    -0.237 NA
ATOM     30  C   UNL     1       7.982   5.072  -0.871  0.00  0.00    +0.078 A 
ATOM     31  C   UNL     1       7.963   6.471  -0.816  0.00  0.00    +0.065 A 
ATOM     32  C   UNL     1       7.348   7.200  -1.838  0.00  0.00    +0.015 A 
ATOM     33  C   UNL     1       6.766   6.530  -2.908  0.00  0.00    +0.001 A 
ATOM     34  C   UNL     1       6.794   5.148  -2.965  0.00  0.00    +0.002 A 
ATOM     35  C   UNL     1       7.388   4.418  -1.950  0.00  0.00    +0.028 A 
ATOM     36  C   UNL     1       8.613   7.161   0.317  0.00  0.00    +0.266 C 
ATOM     37  O   UNL     1       8.699   8.366   0.422  0.00  0.00    -0.267 OA
ENDBRANCH  26  27
ENDBRANCH  22  23
BRANCH  14  15
ATOM     15  C   UNL     1      16.995  10.395   3.483  0.00  0.00    +0.243 C 
ATOM     16  N   UNL     1      18.007   9.693   3.997  0.00  0.00    -0.325 N 
ATOM     17  H   UNL     1      18.932  10.110   4.027  0.00  0.00    +0.145 HD
ATOM     18  H   UNL     1      17.962   8.746   4.353  0.00  0.00    +0.145 HD
ATOM     19  O   UNL     1      17.131  11.559   3.154  0.00  0.00    -0.270 OA
ENDBRANCH  14  15
BRANCH   5   6
ATOM      6  C   UNL     1      11.007  14.178  -0.392  0.00  0.00    +0.085 C 
ATOM      9  C   UNL     1      11.382  15.522   0.208  0.00  0.00    +0.046 C 
ATOM     10  C   UNL     1      11.493  14.081  -1.827  0.00  0.00    +0.046 C 
BRANCH   6   7
ATOM      7  O   UNL     1       9.567  14.125  -0.496  0.00  0.00    -0.385 OA
ATOM      8  H   UNL     1       9.215  14.401   0.392  0.00  0.00    +0.211 HD
ENDBRANCH   6   7
ENDBRANCH   5   6
TORSDOF 5
