REMARK  Name = 3FLW
REMARK  10 active torsions:
REMARK  status: ('A' for Active; 'I' for Inactive)
REMARK    1  A    between atoms: C_3  and  C_4
REMARK    2  A    between atoms: C_3  and  C_26
REMARK    3  A    between atoms: C_4  and  O_29
REMARK    4  A    between atoms: C_5  and  C_26
REMARK    5  A    between atoms: C_5  and  C_27
REMARK    6  A    between atoms: C_6  and  N_21
REMARK    7  A    between atoms: C_12  and  O_13
REMARK    8  A    between atoms: O_13  and  C_14
REMARK    9  A    between atoms: N_25  and  C_26
REMARK   10  A    between atoms: C_27  and  O_28
REMARK                            x       y       z     vdW  Elec       q    Type
REMARK                         _______ _______ _______ _____ _____    ______ ____
ROOT
ATOM      5  C   UNL     1      20.132  11.861  31.439  0.00  0.00    +0.193 C 
ATOM      6  C   UNL     1      21.293  12.562  31.759  0.00  0.00    +0.295 C 
ATOM      7  N   UNL     1      22.543  11.891  31.854  0.00  0.00    -0.293 N 
ATOM      8  C   UNL     1      22.594  10.495  31.620  0.00  0.00    +0.148 A 
ATOM      9  N   UNL     1      23.765   9.817  31.704  0.00  0.00    -0.196 NA
ATOM     10  C   UNL     1      23.813   8.478  31.480  0.00  0.00    +0.217 A 
ATOM     11  N   UNL     1      24.991   7.818  31.562  0.00  0.00    -0.310 N 
ATOM     12  H   UNL     1      24.984   6.750  31.494  0.00  0.00    +0.149 HD
ATOM     22  N   UNL     1      22.679   7.791  31.164  0.00  0.00    -0.222 NA
ATOM     23  C   UNL     1      21.499   8.426  31.068  0.00  0.00    +0.126 A 
ATOM     24  C   UNL     1      21.423   9.802  31.299  0.00  0.00    +0.039 A 
ATOM     25  C   UNL     1      23.767  12.634  32.191  0.00  0.00    +0.154 C 
ATOM     26  O   UNL     1      21.220  13.795  31.964  0.00  0.00    -0.264 OA
ATOM     27  C   UNL     1      20.205  10.480  31.211  0.00  0.00    +0.065 C 
ENDROOT
BRANCH   5   4
ATOM      4  O   UNL     1      18.943  12.569  31.368  0.00  0.00    -0.448 OA
BRANCH   4   3
ATOM      1  C   UNL     1      15.900  10.623  32.100  0.00  0.00    +0.080 A 
ATOM      2  C   UNL     1      17.169  11.181  32.260  0.00  0.00    +0.168 A 
ATOM      3  C   UNL     1      17.697  11.998  31.259  0.00  0.00    +0.164 A 
ATOM     28  C   UNL     1      16.952  12.265  30.110  0.00  0.00    +0.052 A 
ATOM     29  C   UNL     1      15.688  11.706  29.944  0.00  0.00    +0.042 A 
ATOM     30  F   UNL     1      17.875  10.910  33.378  0.00  0.00    -0.202 F 
ATOM     31  C   UNL     1      15.165  10.885  30.943  0.00  0.00    +0.126 A 
ATOM     32  F   UNL     1      13.946  10.348  30.783  0.00  0.00    -0.205 F 
ENDBRANCH   4   3
ENDBRANCH   5   4
BRANCH  11  13
ATOM     13  C   UNL     1      26.267   8.495  31.739  0.00  0.00    +0.077 C 
BRANCH  13  14
ATOM     14  C   UNL     1      27.014   8.608  30.412  0.00  0.00    +0.050 C 
BRANCH  14  15
ATOM     15  C   UNL     1      26.392   9.607  29.439  0.00  0.00    +0.158 C 
BRANCH  15  16
ATOM     16  O   UNL     1      26.476  10.927  29.988  0.00  0.00    -0.395 OA
ATOM     17  H   UNL     1      25.958  10.961  30.901  0.00  0.00    +0.209 HD
ENDBRANCH  15  16
ENDBRANCH  14  15
ENDBRANCH  13  14
BRANCH  13  18
ATOM     18  C   UNL     1      27.133   7.697  32.705  0.00  0.00    +0.050 C 
BRANCH  18  19
ATOM     19  C   UNL     1      27.116   8.320  34.092  0.00  0.00    +0.158 C 
BRANCH  19  20
ATOM     20  O   UNL     1      26.807   7.313  35.061  0.00  0.00    -0.395 OA
ATOM     21  H   UNL     1      25.864   6.901  34.850  0.00  0.00    +0.209 HD
ENDBRANCH  19  20
ENDBRANCH  18  19
ENDBRANCH  13  18
ENDBRANCH  11  13
TORSDOF 9
