REMARK  Name = 3q3b_ligand
REMARK  4 active torsions:
REMARK  status: ('A' for Active; 'I' for Inactive)
REMARK    1  A    between atoms: C5_4  and  C6_5
REMARK    2  A    between atoms: C19_7  and  C20_8
REMARK    3  A    between atoms: C17_9  and  O18_10
REMARK    4  A    between atoms: C8_14  and  C9_16
REMARK                            x       y       z     vdW  Elec       q    Type
REMARK                         _______ _______ _______ _____ _____    ______ ____
ROOT
ATOM      1  O   UNL     1      35.695  10.788  32.828  0.00  0.00    -0.403 OA
ATOM      2  C   UNL     1      36.462   9.838  32.890  0.00  0.00    +0.253 A 
ATOM      3  N   UNL     1      36.626   9.026  31.810  0.00  0.00    -0.206 N 
ATOM      4  H   UNL     1      36.107   9.200  30.949  0.00  0.00    +0.254 HD
ATOM      5  C   UNL     1      37.576   7.875  31.901  0.00  0.00    +0.111 A 
ATOM     12  C   UNL     1      38.261   7.678  33.081  0.00  0.00    +0.032 A 
ATOM     13  C   UNL     1      38.074   8.524  34.162  0.00  0.00    +0.018 A 
ATOM     23  N   UNL     1      37.241   9.540  34.096  0.00  0.00    -0.282 NA
ENDROOT
BRANCH  13  14
ATOM     14  C   UNL     1      38.855   8.341  35.445  0.00  0.00    -0.011 A 
ATOM     15  C   UNL     1      38.710   9.286  36.494  0.00  0.00    +0.001 A 
ATOM     16  C   UNL     1      39.449   9.141  37.679  0.00  0.00    +0.024 A 
ATOM     17  C   UNL     1      40.342   8.050  37.826  0.00  0.00    +0.098 A 
ATOM     20  C   UNL     1      40.490   7.098  36.770  0.00  0.00    -0.009 A 
ATOM     21  C   UNL     1      41.435   5.910  36.878  0.00  0.00    +0.079 C 
ATOM     22  C   UNL     1      39.746   7.257  35.594  0.00  0.00    +0.007 A 
BRANCH  17  18
ATOM     18  O   UNL     1      41.047   7.945  38.999  0.00  0.00    -0.331 OA
ATOM     19  H   UNL     1      40.812   8.673  39.579  0.00  0.00    +0.249 HD
ENDBRANCH  17  18
ENDBRANCH  13  14
BRANCH   5   6
ATOM      6  C   UNL     1      37.793   7.020  30.676  0.00  0.00    +0.033 A 
ATOM      7  C   UNL     1      37.021   7.263  29.498  0.00  0.00    +0.027 A 
ATOM      8  C   UNL     1      37.239   6.495  28.315  0.00  0.00    +0.009 A 
ATOM      9  C   UNL     1      38.237   5.485  28.303  0.00  0.00    +0.011 A 
ATOM     10  C   UNL     1      39.015   5.230  29.474  0.00  0.00    +0.009 A 
ATOM     11  C   UNL     1      38.796   5.999  30.662  0.00  0.00    +0.027 A 
ENDBRANCH   5   6
TORSDOF 3
