REMARK  Name = 6M89
REMARK  1 active torsions:
REMARK  status: ('A' for Active; 'I' for Inactive)
REMARK    1  A    between atoms: C11_9  and  C14_10
REMARK                            x       y       z     vdW  Elec       q    Type
REMARK                         _______ _______ _______ _____ _____    ______ ____
ROOT
ATOM      1  C   UNL     1       7.243  24.799  21.911  0.00  0.00    -0.130 A 
ATOM      2  C   UNL     1       7.717  24.392  23.149  0.00  0.00    +0.250 A 
ATOM      3  O   UNL     1       8.641  23.391  23.211  0.00  0.00    -0.650 OA
ATOM      4  C   UNL     1       7.272  24.984  24.327  0.00  0.00    -0.130 A 
ATOM      5  C   UNL     1       6.332  26.002  24.315  0.00  0.00    +0.185 A 
ATOM      6  O   UNL     1       5.903  26.566  25.486  0.00  0.00    -0.185 OA
ATOM      7  C   UNL     1       4.986  27.597  25.578  0.00  0.00    +0.000 A 
ATOM     16  C   UNL     1       4.380  28.143  24.319  0.00  0.00    +0.000 A 
ATOM     17  O   UNL     1       3.474  29.147  24.292  0.00  0.00    -0.400 OA
ATOM     18  C   UNL     1       4.793  27.557  23.025  0.00  0.00    +0.550 A 
ATOM     19  O   UNL     1       4.325  27.969  21.950  0.00  0.00    -0.550 OA
ATOM     20  C   UNL     1       5.798  26.472  23.029  0.00  0.00    +0.000 A 
ATOM     21  C   UNL     1       6.295  25.815  21.811  0.00  0.00    +0.250 A 
ATOM     22  O   UNL     1       5.835  26.196  20.611  0.00  0.00    -0.650 OA
ENDROOT
BRANCH   7   8
ATOM      8  C   UNL     1       4.664  28.064  26.957  0.00  0.00    +0.000 A 
ATOM      9  C   UNL     1       4.941  27.171  28.007  0.00  0.00    -0.130 A 
ATOM     10  C   UNL     1       4.664  27.518  29.320  0.00  0.00    +0.250 A 
ATOM     11  O   UNL     1       4.950  26.630  30.311  0.00  0.00    -0.650 OA
ATOM     12  C   UNL     1       4.066  28.855  29.603  0.00  0.00    +0.250 A 
ATOM     13  O   UNL     1       3.776  29.252  30.866  0.00  0.00    -0.650 OA
ATOM     14  C   UNL     1       3.794  29.707  28.543  0.00  0.00    -0.130 A 
ATOM     15  C   UNL     1       4.087  29.317  27.237  0.00  0.00    -0.130 A 
ENDBRANCH   7   8
TORSDOF 1
