REMARK  Name = 6N77
REMARK  4 active torsions:
REMARK  status: ('A' for Active; 'I' for Inactive)
REMARK    1  A    between atoms: C4_1  and  C3_14
REMARK    2  A    between atoms: C11_5  and  C12_10
REMARK    3  A    between atoms: C9_8  and  O_26
REMARK    4  A    between atoms: N2_13  and  C2_22
REMARK                            x       y       z     vdW  Elec       q    Type
REMARK                         _______ _______ _______ _____ _____    ______ ____
ROOT
ATOM      2  C   UNL     1       7.014 -23.086  23.037  0.00  0.00    +0.100 C 
ATOM      3  C   UNL     1       7.360 -24.457  23.363  0.00  0.00    +0.100 C 
ATOM      4  C   UNL     1       8.630 -24.358  23.861  0.00  0.00    +0.000 C 
ATOM      5  N   UNL     1       8.980 -23.068  23.850  0.00  0.00    -0.200 NA
ATOM      6  C   UNL     1      10.226 -22.483  24.329  0.00  0.00    -0.050 C 
ATOM     19  N   UNL     1       8.013 -22.257  23.346  0.00  0.00    -0.350 NA
ENDROOT
BRANCH   2   1
ATOM      1  C   UNL     1       5.804 -22.527  22.389  0.00  0.00    +0.000 A 
ATOM     20  C   UNL     1       5.271 -23.052  21.198  0.00  0.00    +0.185 A 
ATOM     23  C   UNL     1       4.134 -22.491  20.623  0.00  0.00    -0.130 A 
ATOM     24  C   UNL     1       3.515 -21.402  21.218  0.00  0.00    -0.130 A 
ATOM     25  C   UNL     1       4.042 -20.882  22.384  0.00  0.00    +0.200 A 
ATOM     26 CL   UNL     1       3.240 -19.539  23.159  0.00  0.00    -0.200 Cl
ATOM     27  C   UNL     1       5.168 -21.422  22.975  0.00  0.00    -0.130 A 
BRANCH  20  21
ATOM     21  O   UNL     1       5.926 -24.139  20.684  0.00  0.00    -0.365 OA
ATOM     22  C   UNL     1       5.604 -24.554  19.354  0.00  0.00    +0.030 C 
ENDBRANCH  20  21
ENDBRANCH   2   1
BRANCH   3   7
ATOM      7  N   UNL     1       6.553 -25.612  23.214  0.00  0.00    -0.400 NA
ATOM      8  C   UNL     1       6.842 -26.863  23.713  0.00  0.00    +0.600 C 
ATOM      9  O   UNL     1       7.876 -27.113  24.339  0.00  0.00    -0.550 OA
BRANCH   8  10
ATOM     10  C   UNL     1       5.829 -27.941  23.409  0.00  0.00    +0.000 A 
ATOM     11  C   UNL     1       5.858 -29.315  23.717  0.00  0.00    +0.000 A 
ATOM     12  N   UNL     1       4.810 -29.976  23.237  0.00  0.00    -0.350 NA
ATOM     13  N   UNL     1       4.061 -29.014  22.593  0.00  0.00    -0.150 N 
ATOM     14  C   UNL     1       2.877 -29.206  21.923  0.00  0.00    +0.000 C 
ATOM     15  C   UNL     1       2.298 -28.124  21.350  0.00  0.00    -0.100 C 
ATOM     16  C   UNL     1       2.947 -26.873  21.456  0.00  0.00    +0.000 C 
ATOM     17  N   UNL     1       4.091 -26.672  22.099  0.00  0.00    -0.150 NA
ATOM     18  C   UNL     1       4.638 -27.772  22.675  0.00  0.00    +0.100 A 
ENDBRANCH   8  10
ENDBRANCH   3   7
TORSDOF 4
