REMARK  Name = 2np8_ligand
REMARK  5 active torsions:
REMARK  status: ('A' for Active; 'I' for Inactive)
REMARK    1  A    between atoms: C26_2  and  C28_3
REMARK    2  A    between atoms: N25_6  and  C21_7
REMARK    3  A    between atoms: C19_12  and  N18_13
REMARK    4  A    between atoms: N11_20  and  C1_21
REMARK    5  A    between atoms: C5_23  and  C7_24
REMARK                            x       y       z     vdW  Elec       q    Type
REMARK                         _______ _______ _______ _____ _____    ______ ____
ROOT
ATOM     10  N   UNL     1      -3.420  32.855  -7.363  0.00  0.00    -0.248 N 
ATOM     11  H   UNL     1      -2.938  33.576  -7.918  0.00  0.00    +0.217 HD
ATOM     12  C   UNL     1      -4.099  31.926  -8.081  0.00  0.00    +0.195 A 
ATOM     13  N   UNL     1      -4.822  30.933  -7.506  0.00  0.00    -0.234 NA
ATOM     14  C   UNL     1      -5.495  30.026  -8.262  0.00  0.00    +0.134 A 
ATOM     15  N   UNL     1      -6.236  29.023  -7.724  0.00  0.00    -0.250 N 
ATOM     16  H   UNL     1      -6.644  28.350  -8.388  0.00  0.00    +0.216 HD
ATOM     27  C   UNL     1      -5.429  30.122  -9.651  0.00  0.00    +0.057 A 
ATOM     28  C   UNL     1      -4.680  31.147 -10.217  0.00  0.00    +0.086 A 
ATOM     29  N   UNL     1      -4.040  32.020  -9.430  0.00  0.00    -0.269 NA
ENDROOT
BRANCH  10   9
ATOM      5  C   UNL     1      -2.270  34.202  -4.185  0.00  0.00    +0.056 A 
ATOM      6  C   UNL     1      -2.903  33.345  -3.280  0.00  0.00    -0.012 A 
ATOM      7  C   UNL     1      -3.711  32.304  -3.729  0.00  0.00    -0.029 A 
ATOM      8  C   UNL     1      -3.902  32.120  -5.100  0.00  0.00    -0.012 A 
ATOM      9  C   UNL     1      -3.285  32.970  -6.017  0.00  0.00    +0.051 A 
ATOM     30  C   UNL     1      -2.474  34.002  -5.547  0.00  0.00    +0.022 A 
BRANCH   5   3
ATOM      1  O   UNL     1      -0.904  34.551  -1.714  0.00  0.00    -0.385 OA
ATOM      2  C   UNL     1      -0.828  35.364  -2.632  0.00  0.00    +0.206 C 
ATOM      3  N   UNL     1      -1.482  35.248  -3.799  0.00  0.00    -0.236 N 
ATOM      4  H   UNL     1      -1.382  36.001  -4.449  0.00  0.00    +0.225 HD
BRANCH   2  31
ATOM     31  C   UNL     1       0.068  36.568  -2.484  0.00  0.00    +0.109 C 
ATOM     32  C   UNL     1      -0.258  37.321  -1.199  0.00  0.00    +0.028 C 
ATOM     33  C   UNL     1      -0.735  37.868  -2.540  0.00  0.00    +0.028 C 
ENDBRANCH   2  31
ENDBRANCH   5   3
ENDBRANCH  10   9
BRANCH  15  17
ATOM     17  C   UNL     1      -6.500  28.806  -6.407  0.00  0.00    +0.093 A 
ATOM     18  C   UNL     1      -6.065  29.649  -5.382  0.00  0.00    +0.070 A 
ATOM     19  C   UNL     1      -6.359  29.371  -4.050  0.00  0.00    +0.027 A 
ATOM     20  C   UNL     1      -7.101  28.238  -3.728  0.00  0.00    +0.035 A 
ATOM     21  C   UNL     1      -7.548  27.385  -4.744  0.00  0.00    +0.038 A 
ATOM     26  C   UNL     1      -7.242  27.675  -6.075  0.00  0.00    +0.066 A 
BRANCH  21  22
ATOM     22  C   UNL     1      -8.345  26.146  -4.414  0.00  0.00    +0.374 C 
ATOM     23  F   UNL     1      -9.025  26.311  -3.282  0.00  0.00    -0.221 F 
ATOM     24  F   UNL     1      -7.489  25.144  -4.283  0.00  0.00    -0.221 F 
ATOM     25  F   UNL     1      -9.193  25.860  -5.398  0.00  0.00    -0.221 F 
ENDBRANCH  21  22
ENDBRANCH  15  17
TORSDOF 5
