REMARK  Name = 3GOK
REMARK  2 active torsions:
REMARK  status: ('A' for Active; 'I' for Inactive)
REMARK    1  A    between atoms: C_10  and  C_11
REMARK    2  A    between atoms: C_16  and  C_17
REMARK                            x       y       z     vdW  Elec       q    Type
REMARK                         _______ _______ _______ _____ _____    ______ ____
ROOT
ATOM      3  C   UNL     1       4.144  58.573  11.189  0.00  0.00    +0.073 A 
ATOM      4  N   UNL     1       3.194  58.732  12.118  0.00  0.00    -0.255 NA
ATOM      5  C   UNL     1       3.003  57.815  13.077  0.00  0.00    +0.112 A 
ATOM      6  C   UNL     1       3.809  56.684  13.168  0.00  0.00    +0.029 A 
ATOM      7  C   UNL     1       4.802  56.525  12.226  0.00  0.00    +0.004 A 
ATOM     19  C   UNL     1       4.988  57.486  11.242  0.00  0.00    +0.038 A 
ENDROOT
BRANCH   7   8
ATOM      8  C   UNL     1       5.697  55.360  12.305  0.00  0.00    +0.072 A 
ATOM      9  N   UNL     1       6.897  55.313  11.696  0.00  0.00    -0.251 NA
ATOM     10  C   UNL     1       7.490  54.151  11.980  0.00  0.00    +0.056 A 
ATOM     11  C   UNL     1       8.843  53.671  11.522  0.00  0.00    +0.075 C 
ATOM     12  C   UNL     1       8.866  52.153  11.487  0.00  0.00    +0.111 C 
ATOM     13  N   UNL     1       8.239  51.710  12.730  0.00  0.00    -0.311 N 
ATOM     14  H   UNL     1       8.760  50.947  13.270  0.00  0.00    +0.149 HD
ATOM     15  C   UNL     1       7.096  52.138  13.278  0.00  0.00    +0.246 C 
ATOM     16  O   UNL     1       6.464  51.527  14.139  0.00  0.00    -0.270 OA
ATOM     17  C   UNL     1       6.633  53.464  12.801  0.00  0.00    +0.060 A 
ATOM     18  C   UNL     1       5.503  54.211  13.037  0.00  0.00    +0.043 A 
ENDBRANCH   7   8
BRANCH   3   2
ATOM      1  C   UNL     1       5.576  59.841   9.678  0.00  0.00    +0.021 A 
ATOM      2  C   UNL     1       4.301  59.631  10.188  0.00  0.00    +0.019 A 
ATOM     20  C   UNL     1       3.219  60.433   9.803  0.00  0.00    +0.121 A 
ATOM     21  N   UNL     1       3.361  61.428   8.898  0.00  0.00    -0.254 NA
ATOM     22  C   UNL     1       4.599  61.691   8.364  0.00  0.00    +0.071 A 
ATOM     23  C   UNL     1       4.809  62.713   7.443  0.00  0.00    +0.028 A 
ATOM     24  C   UNL     1       6.079  62.929   6.926  0.00  0.00    +0.002 A 
ATOM     25  C   UNL     1       7.156  62.141   7.308  0.00  0.00    +0.001 A 
ATOM     26  C   UNL     1       7.024  61.103   8.215  0.00  0.00    +0.010 A 
ATOM     27  C   UNL     1       5.773  60.859   8.755  0.00  0.00    +0.001 A 
ENDBRANCH   3   2
TORSDOF 2
