REMARK  Name = 4hnf_ligand
REMARK  4 active torsions:
REMARK  status: ('A' for Active; 'I' for Inactive)
REMARK    1  A    between atoms: C2_2  and  O2_19
REMARK    2  A    between atoms: C11_8  and  C12_9
REMARK    3  A    between atoms: C12_9  and  O2_19
REMARK    4  A    between atoms: C16_13  and  N5_16
REMARK                            x       y       z     vdW  Elec       q    Type
REMARK                         _______ _______ _______ _____ _____    ______ ____
ROOT
ATOM     10  C   UNL     1      24.380  -3.897  24.212  0.00  0.00    +0.073 A 
ATOM     11  N   UNL     1      24.371  -3.062  25.249  0.00  0.00    -0.211 NA
ATOM     12  N   UNL     1      25.049  -1.967  24.962  0.00  0.00    -0.192 N 
ATOM     19  C   UNL     1      25.578  -1.943  23.721  0.00  0.00    +0.158 A 
ATOM     20  N   UNL     1      26.370  -1.019  23.015  0.00  0.00    -0.269 NA
ATOM     21  C   UNL     1      26.753  -1.349  21.722  0.00  0.00    +0.159 A 
ATOM     22  N   UNL     1      26.342  -2.550  21.178  0.00  0.00    -0.266 NA
ATOM     23  C   UNL     1      25.554  -3.464  21.866  0.00  0.00    +0.127 A 
ATOM     24  N   UNL     1      25.177  -4.550  21.168  0.00  0.00    -0.312 N 
ATOM     25  H   UNL     1      25.508  -4.683  20.212  0.00  0.00    +0.185 HD
ATOM     26  H   UNL     1      24.560  -5.241  21.594  0.00  0.00    +0.185 HD
ATOM     27  C   UNL     1      25.132  -3.221  23.190  0.00  0.00    +0.087 A 
ENDROOT
BRANCH  12  13
ATOM     13  C   UNL     1      25.211  -0.861  25.919  0.00  0.00    +0.146 C 
ATOM     14  C   UNL     1      23.910  -0.467  26.636  0.00  0.00    +0.065 C 
ATOM     15  C   UNL     1      24.139   0.590  27.768  0.00  0.00    +0.163 C 
ATOM     16  O   UNL     1      25.210   0.170  28.606  0.00  0.00    -0.380 OA
ATOM     17  C   UNL     1      26.489  -0.057  27.957  0.00  0.00    +0.163 C 
ATOM     18  C   UNL     1      26.293  -1.191  26.951  0.00  0.00    +0.065 C 
ENDBRANCH  12  13
BRANCH  10   9
ATOM      9  C   UNL     1      23.850  -5.282  24.165  0.00  0.00    +0.269 C 
BRANCH   9   8
ATOM      8  O   UNL     1      25.009  -6.173  23.884  0.00  0.00    -0.305 OA
BRANCH   8   7
ATOM      1  C   UNL     1      23.665  -8.035  24.718  0.00  0.00    +0.036 A 
ATOM      2  C   UNL     1      23.549  -9.431  24.888  0.00  0.00    +0.032 A 
ATOM      3 CL   UNL     1      22.142  -9.918  25.670  0.00  0.00    -0.074 Cl
ATOM      4  C   UNL     1      24.548 -10.371  24.433  0.00  0.00    -0.006 A 
ATOM      5  C   UNL     1      25.738  -9.912  23.764  0.00  0.00    -0.011 A 
ATOM      6  C   UNL     1      25.874  -8.498  23.585  0.00  0.00    +0.022 A 
ATOM      7  C   UNL     1      24.851  -7.552  24.056  0.00  0.00    +0.094 A 
ENDBRANCH   8   7
ENDBRANCH   9   8
ENDBRANCH  10   9
TORSDOF 4
