REMARK  Name = 2o2u_ligand
REMARK  3 active torsions:
REMARK  status: ('A' for Active; 'I' for Inactive)
REMARK    1  A    between atoms: C14_7  and  C13_8
REMARK    2  A    between atoms: N10_10  and  C5_11
REMARK    3  A    between atoms: C2_12  and  C6_13
REMARK                            x       y       z     vdW  Elec       q    Type
REMARK                         _______ _______ _______ _____ _____    ______ ____
ROOT
ATOM      4  C   UNL     1      20.290  11.467  33.184  0.00  0.00    +0.246 C 
ATOM      5  N   UNL     1      20.378  10.082  33.027  0.00  0.00    -0.202 N 
ATOM      6  H   UNL     1      19.692   9.549  33.521  0.00  0.00    +0.244 HD
ATOM     18  O   UNL     1      21.049  12.226  32.627  0.00  0.00    -0.369 OA
ENDROOT
BRANCH   5   7
ATOM      7  C   UNL     1      21.310   9.322  32.260  0.00  0.00    +0.170 A 
ATOM      8  S   UNL     1      22.608   9.914  31.498  0.00  0.00    -0.004 S 
ATOM      9  C   UNL     1      23.157   8.554  30.867  0.00  0.00    -0.004 A 
ATOM     10  C   UNL     1      22.330   7.506  31.256  0.00  0.00    -0.056 A 
ATOM     11  C   UNL     1      22.586   6.070  30.826  0.00  0.00    +0.030 C 
ATOM     12  C   UNL     1      24.003   5.895  30.220  0.00  0.00    +0.009 C 
ATOM     13  C   UNL     1      24.378   7.057  29.276  0.00  0.00    +0.011 C 
ATOM     14  C   UNL     1      24.382   8.415  30.005  0.00  0.00    +0.051 C 
ATOM     15  C   UNL     1      21.272   7.945  32.053  0.00  0.00    +0.089 A 
BRANCH  15  16
ATOM     16  C   UNL     1      20.262   7.091  32.584  0.00  0.00    +0.035 C 
ATOM     17  N   UNL     1      19.403   6.442  33.020  0.00  0.00    -0.386 NA
ENDBRANCH  15  16
ENDBRANCH   5   7
BRANCH   4   3
ATOM      1  F   UNL     1      19.545  10.426  35.794  0.00  0.00    -0.177 F 
ATOM      2  C   UNL     1      18.907  11.491  35.297  0.00  0.00    +0.154 A 
ATOM      3  C   UNL     1      19.223  12.028  34.045  0.00  0.00    +0.092 A 
ATOM     19  C   UNL     1      18.517  13.142  33.579  0.00  0.00    +0.023 A 
ATOM     20  C   UNL     1      17.501  13.703  34.346  0.00  0.00    -0.001 A 
ATOM     21  C   UNL     1      17.192  13.153  35.579  0.00  0.00    +0.005 A 
ATOM     22  C   UNL     1      17.899  12.062  36.052  0.00  0.00    +0.039 A 
ENDBRANCH   4   3
TORSDOF 3
