REMARK  Name = 3npc_ligand
REMARK  12 active torsions:
REMARK  status: ('A' for Active; 'I' for Inactive)
REMARK    1  A    between atoms: N2_3  and  C3_4
REMARK    2  A    between atoms: C6_7  and  O41_31
REMARK    3  A    between atoms: N9_14  and  C10_15
REMARK    4  A    between atoms: C13_17  and  C16_24
REMARK    5  A    between atoms: N11_19  and  C15_20
REMARK    6  A    between atoms: C17_21  and  C16_24
REMARK    7  A    between atoms: C18_22  and  C16_24
REMARK    8  A    between atoms: C19_23  and  C16_24
REMARK    9  A    between atoms: C22_27  and  C25_30
REMARK   10  A    between atoms: O41_31  and  C42_32
REMARK   11  A    between atoms: C42_32  and  C43_33
REMARK   12  A    between atoms: C43_33  and  N44_34
REMARK                            x       y       z     vdW  Elec       q    Type
REMARK                         _______ _______ _______ _____ _____    ______ ____
ROOT
ATOM      1  C   UNL     1      55.109  47.746  10.150  0.00  0.00    +0.323 C 
ATOM      2  N   UNL     1      55.648  46.777   9.386  0.00  0.00    -0.179 N 
ATOM      3  H   UNL     1      56.593  46.518   9.587  0.00  0.00    +0.234 HD
ATOM     20  N   UNL     1      55.860  48.236  11.164  0.00  0.00    -0.217 N 
ATOM     21  H   UNL     1      56.797  47.901  11.261  0.00  0.00    +0.226 HD
ATOM     42  O   UNL     1      53.993  48.180   9.941  0.00  0.00    -0.379 OA
ENDROOT
BRANCH  20  22
ATOM     22  C   UNL     1      55.396  49.190  12.089  0.00  0.00    +0.068 A 
ATOM     23  C   UNL     1      54.204  48.931  12.750  0.00  0.00    -0.014 A 
ATOM     24  C   UNL     1      53.676  49.800  13.698  0.00  0.00    -0.007 A 
ATOM     25  C   UNL     1      54.343  50.959  14.015  0.00  0.00    +0.084 A 
ATOM     36  C   UNL     1      55.579  51.255  13.375  0.00  0.00    +0.005 A 
ATOM     37  C   UNL     1      56.296  52.430  13.680  0.00  0.00    +0.001 A 
ATOM     38  C   UNL     1      57.478  52.671  13.047  0.00  0.00    -0.008 A 
ATOM     39  C   UNL     1      57.995  51.793  12.092  0.00  0.00    -0.009 A 
ATOM     40  C   UNL     1      57.338  50.656  11.770  0.00  0.00    +0.002 A 
ATOM     41  C   UNL     1      56.118  50.355  12.404  0.00  0.00    +0.004 A 
BRANCH  25  26
ATOM     26  O   UNL     1      53.868  51.836  14.947  0.00  0.00    -0.322 OA
BRANCH  26  27
ATOM     27  C   UNL     1      52.507  51.603  15.347  0.00  0.00    +0.240 C 
BRANCH  27  28
ATOM     28  C   UNL     1      52.047  52.836  16.136  0.00  0.00    +0.165 C 
BRANCH  28  29
ATOM     29  N   UNL     1      51.204  53.735  15.330  0.00  0.00    +0.240 N 
ATOM     30  H   UNL     1      50.409  53.239  14.959  0.00  0.00    +0.204 HD
ATOM     31  C   UNL     1      50.774  54.845  16.198  0.00  0.00    +0.160 C 
ATOM     32  C   UNL     1      49.984  55.871  15.371  0.00  0.00    +0.210 C 
ATOM     33  O   UNL     1      50.784  56.355  14.275  0.00  0.00    -0.369 OA
ATOM     34  C   UNL     1      51.138  55.266  13.422  0.00  0.00    +0.210 C 
ATOM     35  C   UNL     1      52.014  54.310  14.239  0.00  0.00    +0.160 C 
ENDBRANCH  28  29
ENDBRANCH  27  28
ENDBRANCH  26  27
ENDBRANCH  25  26
ENDBRANCH  20  22
BRANCH   2   4
ATOM      4  C   UNL     1      55.016  46.095   8.337  0.00  0.00    +0.219 A 
ATOM      5  N   UNL     1      55.082  44.743   8.150  0.00  0.00    -0.107 N 
ATOM     13  N   UNL     1      54.343  44.417   7.011  0.00  0.00    -0.167 NA
ATOM     14  C   UNL     1      53.839  45.507   6.520  0.00  0.00    -0.004 A 
ATOM     19  C   UNL     1      54.240  46.587   7.327  0.00  0.00    +0.003 A 
BRANCH   5   6
ATOM      6  C   UNL     1      55.750  43.776   8.909  0.00  0.00    +0.123 A 
ATOM      7  C   UNL     1      55.695  43.786  10.295  0.00  0.00    +0.033 A 
ATOM      8  C   UNL     1      56.345  42.789  11.004  0.00  0.00    -0.006 A 
ATOM      9  C   UNL     1      57.034  41.790  10.327  0.00  0.00    -0.049 A 
ATOM     10  C   UNL     1      57.756  40.712  11.104  0.00  0.00    +0.083 C 
ATOM     11  C   UNL     1      57.079  41.779   8.938  0.00  0.00    -0.006 A 
ATOM     12  C   UNL     1      56.431  42.767   8.230  0.00  0.00    +0.033 A 
ENDBRANCH   5   6
BRANCH  14  15
ATOM     15  C   UNL     1      52.967  45.550   5.289  0.00  0.00    -0.046 C 
ATOM     16  C   UNL     1      51.803  46.528   5.491  0.00  0.00    -0.047 C 
ATOM     17  C   UNL     1      52.384  44.158   5.034  0.00  0.00    -0.047 C 
ATOM     18  C   UNL     1      53.832  45.991   4.108  0.00  0.00    -0.047 C 
ENDBRANCH  14  15
ENDBRANCH   2   4
TORSDOF 8
