REMARK  Name = 5NKD
REMARK  14 active torsions:
REMARK  status: ('A' for Active; 'I' for Inactive)
REMARK    1  A    between atoms: C_2  and  C_4
REMARK    2  A    between atoms: C_4  and  C_5
REMARK    3  A    between atoms: C_10  and  C_12
REMARK    4  A    between atoms: C_17  and  N_18
REMARK    5  A    between atoms: C_23  and  C_24
REMARK    6  A    between atoms: N_26  and  C_27
REMARK    7  A    between atoms: C_33  and  C_34
REMARK    8  A    between atoms: C_36  and  C_38
REMARK    9  A    between atoms: C_38  and  C_39
REMARK   10  A    between atoms: C_44  and  C_46
REMARK   11  A    between atoms: C_51  and  N_52
REMARK   12  A    between atoms: C_57  and  C_58
REMARK   13  A    between atoms: N_60  and  C_61
REMARK   14  A    between atoms: C_67  and  C_68
REMARK                            x       y       z     vdW  Elec       q    Type
REMARK                         _______ _______ _______ _____ _____    ______ ____
ROOT
ATOM     14  N   UNL     1     -86.753 -15.462   5.128  0.00  0.00    -0.294 N 
ATOM     15  H   UNL     1     -86.963 -15.074   4.153  0.00  0.00    +0.154 HD
ATOM     16  C   UNL     1     -87.799 -15.953   5.835  0.00  0.00    +0.163 A 
ATOM     17  N   UNL     1     -89.059 -15.888   5.357  0.00  0.00    -0.232 NA
ATOM     18  C   UNL     1     -90.004 -16.443   6.164  0.00  0.00    +0.133 A 
ATOM     19  C   UNL     1     -89.523 -16.953   7.321  0.00  0.00    +0.095 A 
ATOM     32  S   UNL     1     -87.819 -16.728   7.334  0.00  0.00    -0.048 S 
ENDROOT
BRANCH  14  13
ATOM      9  C   UNL     1     -83.120 -15.034   4.860  0.00  0.00    +0.039 A 
ATOM     10  C   UNL     1     -82.693 -15.226   6.167  0.00  0.00    +0.013 A 
ATOM     11  C   UNL     1     -83.639 -15.520   7.139  0.00  0.00    +0.003 A 
ATOM     12  C   UNL     1     -85.009 -15.598   6.856  0.00  0.00    +0.023 A 
ATOM     13  C   UNL     1     -85.461 -15.418   5.547  0.00  0.00    +0.033 A 
ATOM     33  C   UNL     1     -84.500 -15.117   4.580  0.00  0.00    +0.036 A 
BRANCH   9   8
ATOM      4  C   UNL     1     -80.209 -16.265   1.299  0.00  0.00    +0.019 C 
ATOM      5  C   UNL     1     -81.071 -17.362   1.914  0.00  0.00    +0.024 C 
ATOM      6  C   UNL     1     -81.152 -16.975   3.367  0.00  0.00    +0.108 C 
ATOM      7  N   UNL     1     -81.380 -15.529   3.243  0.00  0.00    -0.297 N 
ATOM      8  C   UNL     1     -82.209 -14.664   3.848  0.00  0.00    +0.247 C 
ATOM     34  O   UNL     1     -82.143 -13.466   3.538  0.00  0.00    -0.270 OA
ATOM     35  C   UNL     1     -80.449 -15.037   2.186  0.00  0.00    +0.112 C 
BRANCH   4   3
ATOM      3  C   UNL     1     -78.736 -16.671   1.319  0.00  0.00    +0.130 C 
BRANCH   3   2
ATOM      1  O   UNL     1     -79.283 -17.778  -0.740  0.00  0.00    -0.246 OA
ATOM      2  C   UNL     1     -78.476 -17.723   0.222  0.00  0.00    +0.356 C 
ATOM     36  O   UNL     1     -77.468 -18.453   0.375  0.00  0.00    -0.246 OA
ENDBRANCH   3   2
ENDBRANCH   4   3
ENDBRANCH   9   8
ENDBRANCH  14  13
BRANCH  19  20
ATOM     20  C   UNL     1     -90.175 -17.600   8.334  0.00  0.00    +0.256 C 
ATOM     21  N   UNL     1     -91.469 -17.994   8.185  0.00  0.00    -0.280 N 
ATOM     22  H   UNL     1     -91.985 -17.788   7.271  0.00  0.00    +0.155 HD
ATOM     31  O   UNL     1     -89.561 -17.852   9.366  0.00  0.00    -0.269 OA
BRANCH  21  23
ATOM     23  C   UNL     1     -92.121 -18.658   9.206  0.00  0.00    +0.055 A 
ATOM     24  C   UNL     1     -92.317 -20.040   9.132  0.00  0.00    -0.028 A 
ATOM     25  C   UNL     1     -91.840 -20.783   8.046  0.00  0.00    +0.046 C 
ATOM     26  C   UNL     1     -93.006 -20.697  10.145  0.00  0.00    +0.005 A 
ATOM     27  C   UNL     1     -93.494 -19.981  11.238  0.00  0.00    +0.002 A 
ATOM     28  C   UNL     1     -93.313 -18.599  11.315  0.00  0.00    +0.022 A 
ATOM     29  C   UNL     1     -92.625 -17.946  10.288  0.00  0.00    +0.062 A 
ATOM     30 CL   UNL     1     -92.397 -16.222  10.363  0.00  0.00    -0.082 Cl
ENDBRANCH  21  23
ENDBRANCH  19  20
TORSDOF 6
