REMARK  Name = 5FBQ
REMARK  13 active torsions:
REMARK  status: ('A' for Active; 'I' for Inactive)
REMARK    1  A    between atoms: C_1  and  C_2
REMARK    2  A    between atoms: C_5  and  O_24
REMARK    3  A    between atoms: C_6  and  S_20
REMARK    4  A    between atoms: C_9  and  C_10
REMARK    5  A    between atoms: C_10  and  O_37
REMARK    6  A    between atoms: C_14  and  O_24
REMARK    7  A    between atoms: C_15  and  C_16
REMARK    8  A    between atoms: S_20  and  N_23
REMARK    9  A    between atoms: C_28  and  N_30
REMARK   10  A    between atoms: N_30  and  C_31
REMARK   11  A    between atoms: C_31  and  C_32
REMARK   12  A    between atoms: C_32  and  N_33
REMARK   13  A    between atoms: C_34  and  C_35
REMARK                            x       y       z     vdW  Elec       q    Type
REMARK                         _______ _______ _______ _____ _____    ______ ____
ROOT
ATOM      1  C   UNL     1       2.400 -11.705  36.181  0.00  0.00    +0.096 A 
ATOM      2  N   UNL     1       1.901 -11.830  37.410  0.00  0.00    -0.209 N 
ATOM      3  N   UNL     1       2.600 -11.818  38.624  0.00  0.00    -0.153 NA
ATOM      4  C   UNL     1       1.925 -11.955  39.790  0.00  0.00    +0.152 A 
ATOM      5 CL   UNL     1       2.821 -11.941  41.345  0.00  0.00    -0.060 Cl
ATOM      6  C   UNL     1       0.539 -12.109  39.800  0.00  0.00    +0.068 A 
ATOM      7  C   UNL     1      -0.176 -12.120  38.608  0.00  0.00    +0.075 A 
ATOM     17  C   UNL     1       0.572 -11.971  37.332  0.00  0.00    +0.176 A 
ATOM     18  N   UNL     1       0.175 -11.944  36.030  0.00  0.00    -0.229 NA
ATOM     19  C   UNL     1       1.261 -11.782  35.240  0.00  0.00    +0.067 A 
ATOM     20  C   UNL     1       1.299 -11.697  33.737  0.00  0.00    +0.068 C 
ENDROOT
BRANCH   1  21
ATOM     21  C   UNL     1       3.874 -11.536  36.006  0.00  0.00    +0.004 A 
ATOM     22  C   UNL     1       4.591 -10.628  36.779  0.00  0.00    +0.042 A 
ATOM     23  C   UNL     1       5.963 -10.472  36.604  0.00  0.00    +0.147 A 
ATOM     36  C   UNL     1       6.620 -11.226  35.641  0.00  0.00    +0.146 A 
ATOM     39  C   UNL     1       5.905 -12.127  34.860  0.00  0.00    +0.048 A 
ATOM     40  C   UNL     1       4.535 -12.282  35.039  0.00  0.00    +0.014 A 
BRANCH  23  24
ATOM     24  S   UNL     1       6.741  -9.421  37.526  0.00  0.00    +0.064 S 
ATOM     34  O   UNL     1       7.663  -8.651  36.740  0.00  0.00    -0.153 OA
ATOM     35  O   UNL     1       5.782  -8.527  38.109  0.00  0.00    -0.153 OA
BRANCH  24  25
ATOM     25  N   UNL     1       7.542 -10.152  38.721  0.00  0.00    -0.176 NA
ATOM     26  C   UNL     1       6.745 -11.237  39.309  0.00  0.00    +0.110 C 
ATOM     27  C   UNL     1       7.461 -11.747  40.556  0.00  0.00    +0.023 C 
ATOM     28  C   UNL     1       8.880 -12.222  40.243  0.00  0.00    +0.017 C 
ATOM     29  C   UNL     1       9.630 -11.167  39.435  0.00  0.00    +0.023 C 
ATOM     33  C   UNL     1       8.814 -10.703  38.235  0.00  0.00    +0.110 C 
BRANCH  28  30
ATOM     30  C   UNL     1       8.834 -13.533  39.467  0.00  0.00    +0.159 C 
BRANCH  30  31
ATOM     31  O   UNL     1       8.505 -14.598  40.366  0.00  0.00    -0.395 OA
ATOM     32  H   UNL     1       9.234 -14.659  41.119  0.00  0.00    +0.209 HD
ENDBRANCH  30  31
ENDBRANCH  28  30
ENDBRANCH  24  25
ENDBRANCH  23  24
BRANCH  36  37
ATOM     37  O   UNL     1       7.968 -11.097  35.436  0.00  0.00    -0.493 OA
ATOM     38  C   UNL     1       8.456 -10.249  34.398  0.00  0.00    +0.277 C 
ENDBRANCH  36  37
ENDBRANCH   1  21
BRANCH   7   8
ATOM      8  N   UNL     1      -1.518 -12.270  38.612  0.00  0.00    -0.339 N 
ATOM      9  H   UNL     1      -2.008 -12.724  37.776  0.00  0.00    +0.146 HD
BRANCH   8  10
ATOM     10  C   UNL     1      -2.295 -11.815  39.750  0.00  0.00    +0.120 C 
BRANCH  10  11
ATOM     11  C   UNL     1      -3.200 -10.635  39.415  0.00  0.00    +0.123 C 
BRANCH  11  12
ATOM     12  N   UNL     1      -4.053 -10.287  40.536  0.00  0.00    -0.314 N 
ATOM     13  H   UNL     1      -3.644 -10.306  41.524  0.00  0.00    +0.149 HD
ATOM     14  C   UNL     1      -5.328  -9.945  40.373  0.00  0.00    +0.210 C 
ATOM     15  O   UNL     1      -6.148 -10.051  41.270  0.00  0.00    -0.276 OA
ATOM     16  C   UNL     1      -5.689  -9.408  39.020  0.00  0.00    +0.109 C 
ENDBRANCH  11  12
ENDBRANCH  10  11
ENDBRANCH   8  10
ENDBRANCH   7   8
TORSDOF 10
