REMARK  Name = DJH
REMARK  5 active torsions:
REMARK  status: ('A' for Active; 'I' for Inactive)
REMARK    1  A    between atoms: C10_4  and  C1_12
REMARK    2  A    between atoms: C24_10  and  C23_25
REMARK    3  A    between atoms: C28_11  and  C27_28
REMARK    4  A    between atoms: N20_23  and  C23_25
REMARK    5  A    between atoms: N26_27  and  C27_28
REMARK                            x       y       z     vdW  Elec       q    Type
REMARK                         _______ _______ _______ _____ _____    ______ ____
ROOT
ATOM      5  C   UNL     1     -12.184  30.419 -14.214  0.00  0.00    +0.249 C 
ATOM      6  N   UNL     1     -13.569  30.307 -14.011  0.00  0.00    -0.276 N 
ATOM      7  C   UNL     1     -14.494  31.450 -13.797  0.00  0.00    +0.095 C 
ATOM      8  C   UNL     1     -15.474  31.508 -14.990  0.00  0.00    +0.034 C 
ATOM      9  C   UNL     1     -16.198  30.167 -15.164  0.00  0.00    +0.092 C 
ATOM     10  C   UNL     1     -17.259  30.012 -14.052  0.00  0.00    +0.233 C 
ATOM     11  O   UNL     1     -17.142  30.002 -12.837  0.00  0.00    -0.274 OA
ATOM     12  N   UNL     1     -18.517  29.862 -14.665  0.00  0.00    -0.250 N 
ATOM     22  C   UNL     1     -18.398  29.951 -16.061  0.00  0.00    +0.051 A 
ATOM     23  C   UNL     1     -19.414  29.876 -16.985  0.00  0.00    +0.015 A 
ATOM     24  C   UNL     1     -19.059  30.015 -18.341  0.00  0.00    +0.001 A 
ATOM     25  C   UNL     1     -17.739  30.229 -18.716  0.00  0.00    -0.004 A 
ATOM     26  C   UNL     1     -16.702  30.313 -17.768  0.00  0.00    -0.024 A 
ATOM     27  C   UNL     1     -15.326  30.589 -18.280  0.00  0.00    +0.031 C 
ATOM     28  C   UNL     1     -15.234  28.955 -15.126  0.00  0.00    +0.034 C 
ATOM     29  C   UNL     1     -17.038  30.161 -16.412  0.00  0.00    -0.005 A 
ATOM     30  C   UNL     1     -14.248  29.015 -13.908  0.00  0.00    +0.095 C 
ATOM     31  O   UNL     1     -11.498  29.395 -14.117  0.00  0.00    -0.270 OA
ENDROOT
BRANCH   5   4
ATOM      1  C   UNL     1     -10.144  34.121 -14.600  0.00  0.00    +0.104 A 
ATOM      2  C   UNL     1      -9.649  33.138 -13.736  0.00  0.00    +0.021 A 
ATOM      3  C   UNL     1     -10.340  31.966 -13.666  0.00  0.00    +0.006 A 
ATOM      4  C   UNL     1     -11.502  31.739 -14.423  0.00  0.00    +0.054 A 
ATOM     32  C   UNL     1     -11.996  32.705 -15.325  0.00  0.00    +0.008 A 
ATOM     33  N   UNL     1      -9.703  35.416 -14.864  0.00  0.00    -0.148 NA
ATOM     34  N   UNL     1     -10.518  36.025 -15.774  0.00  0.00    -0.146 NA
ATOM     35  C   UNL     1     -11.486  35.143 -16.104  0.00  0.00    +0.124 A 
ATOM     36  C   UNL     1     -11.307  33.916 -15.397  0.00  0.00    +0.041 A 
ENDBRANCH   5   4
BRANCH  12  13
ATOM     13  C   UNL     1     -19.754  29.671 -13.959  0.00  0.00    +0.185 C 
BRANCH  13  14
ATOM     14  C   UNL     1     -20.478  30.993 -13.748  0.00  0.00    +0.262 C 
ATOM     15  N   UNL     1     -21.832  30.887 -13.486  0.00  0.00    -0.195 NA
ATOM     21  O   UNL     1     -19.927  32.087 -13.779  0.00  0.00    -0.272 OA
BRANCH  15  16
ATOM     16  C   UNL     1     -22.568  32.106 -13.293  0.00  0.00    +0.218 C 
BRANCH  16  17
ATOM     17  C   UNL     1     -22.968  32.306 -11.797  0.00  0.00    +0.417 C 
ATOM     18  F   UNL     1     -21.924  32.447 -10.991  0.00  0.00    -0.168 F 
ATOM     19  F   UNL     1     -23.646  31.282 -11.264  0.00  0.00    -0.168 F 
ATOM     20  F   UNL     1     -23.711  33.406 -11.627  0.00  0.00    -0.168 F 
ENDBRANCH  16  17
ENDBRANCH  15  16
ENDBRANCH  13  14
ENDBRANCH  12  13
TORSDOF 5
