REMARK  Name = 3f5p_ligand
REMARK  17 active torsions:
REMARK  status: ('A' for Active; 'I' for Inactive)
REMARK    1  A    between atoms: C1_1  and  O11_11
REMARK    2  A    between atoms: C2_2  and  O12_12
REMARK    3  A    between atoms: C9_9  and  C32_32
REMARK    4  A    between atoms: C10_10  and  N17_17
REMARK    5  A    between atoms: O11_11  and  C16_16
REMARK    6  A    between atoms: O12_12  and  C13_13
REMARK    7  A    between atoms: C13_13  and  C14_14
REMARK    8  A    between atoms: C14_14  and  C15_15
REMARK    9  A    between atoms: C15_15  and  N34_34
REMARK   10  A    between atoms: N17_17  and  C18_18
REMARK   11  A    between atoms: C21_21  and  S25_25
REMARK   12  A    between atoms: S25_25  and  C26_26
REMARK   13  A    between atoms: N30_30  and  C31_31
REMARK   14  A    between atoms: N34_34  and  C35_35
REMARK   15  A    between atoms: N34_34  and  C36_36
REMARK   16  A    between atoms: C35_35  and  C37_37
REMARK   17  A    between atoms: C37_37  and  O38_38
REMARK                            x       y       z     vdW  Elec       q    Type
REMARK                         _______ _______ _______ _____ _____    ______ ____
ROOT
ATOM      1  C   UNL     1      84.218  51.790 148.112  0.00  0.00    +0.131 A 
ATOM      4  C   UNL     1      82.967  51.150 148.166  0.00  0.00    +0.035 A 
ATOM      5  C   UNL     1      82.092  51.212 147.064  0.00  0.00    +0.029 A 
ATOM      6  C   UNL     1      80.817  50.567 147.088  0.00  0.00    +0.118 A 
ATOM     23  C   UNL     1      80.032  50.684 145.921  0.00  0.00    +0.134 A 
ATOM     26  C   UNL     1      80.490  51.419 144.816  0.00  0.00    +0.100 A 
ATOM     27  N   UNL     1      81.668  52.026 144.801  0.00  0.00    -0.322 NA
ATOM     28  C   UNL     1      82.497  51.950 145.891  0.00  0.00    +0.021 A 
ATOM     29  C   UNL     1      83.738  52.600 145.850  0.00  0.00    +0.031 A 
ATOM     30  C   UNL     1      84.592  52.529 146.969  0.00  0.00    +0.131 A 
ENDROOT
BRANCH   1   2
ATOM      2  O   UNL     1      85.018  51.690 149.250  0.00  0.00    -0.321 OA
ATOM      3  C   UNL     1      85.696  52.891 149.606  0.00  0.00    +0.231 C 
ENDBRANCH   1   2
BRANCH   6   7
ATOM      7  N   UNL     1      80.442  49.853 148.228  0.00  0.00    -0.258 N 
ATOM      8  H   UNL     1      80.710  50.234 149.147  0.00  0.00    +0.220 HD
BRANCH   7   9
ATOM      9  C   UNL     1      79.732  48.665 148.199  0.00  0.00    +0.062 A 
ATOM     10  C   UNL     1      79.924  47.696 147.196  0.00  0.00    +0.025 A 
ATOM     11  C   UNL     1      79.165  46.515 147.219  0.00  0.00    +0.046 A 
ATOM     12 CL   UNL     1      79.391  45.306 145.993  0.00  0.00    -0.078 Cl
ATOM     13  C   UNL     1      78.213  46.271 148.218  0.00  0.00    +0.040 A 
ATOM     21  C   UNL     1      78.016  47.227 149.216  0.00  0.00    -0.000 A 
ATOM     22  C   UNL     1      78.772  48.413 149.199  0.00  0.00    +0.011 A 
BRANCH  13  14
ATOM     14  S   UNL     1      77.243  44.758 148.240  0.00  0.00    +0.003 S 
BRANCH  14  15
ATOM     15  C   UNL     1      75.952  45.059 149.442  0.00  0.00    +0.191 A 
ATOM     16  N   UNL     1      74.774  45.532 149.018  0.00  0.00    -0.243 N 
ATOM     17  C   UNL     1      74.350  45.783 147.640  0.00  0.00    +0.222 C 
ATOM     18  C   UNL     1      74.081  45.669 150.180  0.00  0.00    +0.109 A 
ATOM     19  C   UNL     1      74.920  45.284 151.250  0.00  0.00    +0.006 A 
ATOM     20  N   UNL     1      76.129  44.891 150.764  0.00  0.00    -0.327 NA
ENDBRANCH  14  15
ENDBRANCH  13  14
ENDBRANCH   7   9
ENDBRANCH   6   7
BRANCH  23  24
ATOM     24  C   UNL     1      78.708  50.159 145.803  0.00  0.00    +0.084 C 
ATOM     25  N   UNL     1      77.592  49.852 145.756  0.00  0.00    -0.347 NA
ENDBRANCH  23  24
BRANCH  30  31
ATOM     31  O   UNL     1      85.861  53.104 146.964  0.00  0.00    -0.313 OA
BRANCH  31  32
ATOM     32  C   UNL     1      86.600  53.422 145.780  0.00  0.00    +0.199 C 
BRANCH  32  33
ATOM     33  C   UNL     1      87.077  54.847 146.110  0.00  0.00    +0.084 C 
BRANCH  33  34
ATOM     34  C   UNL     1      87.443  55.310 147.531  0.00  0.00    +0.133 C 
BRANCH  34  35
ATOM     35  N   UNL     1      88.615  56.200 147.357  0.00  0.00    +0.235 N 
ATOM     36  H   UNL     1      88.544  56.388 146.369  0.00  0.00    +0.203 HD
ATOM     37  C   UNL     1      89.938  55.550 147.410  0.00  0.00    +0.190 C 
BRANCH  35  38
ATOM     38  C   UNL     1      88.550  57.580 147.884  0.00  0.00    +0.159 C 
BRANCH  38  39
ATOM     39  C   UNL     1      89.933  58.267 147.884  0.00  0.00    +0.206 C 
BRANCH  39  40
ATOM     40  O   UNL     1      90.825  57.685 148.856  0.00  0.00    -0.390 OA
ATOM     41  H   UNL     1      91.662  58.133 148.826  0.00  0.00    +0.210 HD
ENDBRANCH  39  40
ENDBRANCH  38  39
ENDBRANCH  35  38
ENDBRANCH  34  35
ENDBRANCH  33  34
ENDBRANCH  32  33
ENDBRANCH  31  32
ENDBRANCH  30  31
TORSDOF 14
