REMARK  Name = 4a7c_ligand
REMARK  6 active torsions:
REMARK  status: ('A' for Active; 'I' for Inactive)
REMARK    1  A    between atoms: CBB_2  and  OAT_5
REMARK    2  A    between atoms: OAT_5  and  CAU_6
REMARK    3  A    between atoms: CAW_11  and  NBA_12
REMARK    4  A    between atoms: CAV_20  and  NAS_21
REMARK    5  A    between atoms: NAS_21  and  CAN_22
REMARK    6  A    between atoms: CAN_22  and  CAZ_23
REMARK                            x       y       z     vdW  Elec       q    Type
REMARK                         _______ _______ _______ _____ _____    ______ ____
ROOT
ATOM      9  N   UNL     1     -40.872  -2.888  -1.437  0.00  0.00    -0.109 N 
ATOM     10  C   UNL     1     -40.140  -2.849  -0.324  0.00  0.00    +0.185 A 
ATOM     11  N   UNL     1     -40.349  -2.447   0.957  0.00  0.00    -0.262 NA
ATOM     12  C   UNL     1     -39.354  -2.540   1.883  0.00  0.00    +0.102 A 
ATOM     24  C   UNL     1     -38.123  -3.050   1.512  0.00  0.00    +0.034 A 
ATOM     25  C   UNL     1     -37.896  -3.463   0.213  0.00  0.00    +0.032 A 
ATOM     26  C   UNL     1     -38.910  -3.366  -0.715  0.00  0.00    +0.094 A 
ATOM     27  N   UNL     1     -38.942  -3.692  -2.031  0.00  0.00    -0.198 NA
ATOM     28  N   UNL     1     -40.218  -3.401  -2.550  0.00  0.00    -0.064 NA
ENDROOT
BRANCH   9   8
ATOM      4  C   UNL     1     -44.144  -1.564  -0.506  0.00  0.00    +0.096 A 
ATOM      5  C   UNL     1     -44.840  -1.637  -1.697  0.00  0.00    +0.008 A 
ATOM      6  C   UNL     1     -44.185  -2.148  -2.804  0.00  0.00    -0.018 A 
ATOM      7  C   UNL     1     -42.861  -2.562  -2.709  0.00  0.00    +0.011 A 
ATOM      8  C   UNL     1     -42.140  -2.495  -1.521  0.00  0.00    +0.109 A 
ATOM     29  C   UNL     1     -42.830  -1.978  -0.439  0.00  0.00    +0.052 A 
BRANCH   4   3
ATOM      3  O   UNL     1     -44.699  -1.048   0.629  0.00  0.00    -0.228 OA
BRANCH   3   2
ATOM      1  F   UNL     1     -45.769  -2.133   2.185  0.00  0.00    -0.140 F 
ATOM      2  C   UNL     1     -45.977  -1.395   1.107  0.00  0.00    +0.546 C 
ATOM     30  F   UNL     1     -46.650  -2.017   0.156  0.00  0.00    -0.140 F 
ATOM     31  F   UNL     1     -46.631  -0.302   1.453  0.00  0.00    -0.140 F 
ENDBRANCH   3   2
ENDBRANCH   4   3
ENDBRANCH   9   8
BRANCH  12  13
ATOM     13  N   UNL     1     -39.488  -2.143   3.176  0.00  0.00    -0.309 N 
ATOM     14  H   UNL     1     -38.665  -2.185   3.777  0.00  0.00    +0.181 HD
BRANCH  13  15
ATOM     15  C   UNL     1     -40.728  -1.664   3.753  0.00  0.00    +0.134 C 
BRANCH  15  16
ATOM     16  C   UNL     1     -41.608  -2.853   4.115  0.00  0.00    +0.021 C 
ATOM     17  C   UNL     1     -40.737  -4.056   4.492  0.00  0.00    +0.056 C 
ATOM     18  C   UNL     1     -41.599  -5.241   4.927  0.00  0.00    +0.129 C 
ATOM     19  N   UNL     1     -42.996  -4.847   4.988  0.00  0.00    +0.227 N 
ATOM     20  H   UNL     1     -43.251  -4.649   4.020  0.00  0.00    +0.201 HD
ATOM     21  H   UNL     1     -43.458  -5.609   5.485  0.00  0.00    +0.201 HD
ATOM     22  C   UNL     1     -43.373  -3.644   5.723  0.00  0.00    +0.129 C 
ATOM     23  C   UNL     1     -42.528  -2.454   5.274  0.00  0.00    +0.056 C 
ENDBRANCH  15  16
ENDBRANCH  13  15
ENDBRANCH  12  13
TORSDOF 6
