REMARK  Name = 069
REMARK  2 active torsions:
REMARK  status: ('A' for Active; 'I' for Inactive)
REMARK    1  A    between atoms: C1_4  and  C_5
REMARK    2  A    between atoms: C1_15  and  C_16
REMARK                            x       y       z     vdW  Elec       q    Type
REMARK                         _______ _______ _______ _____ _____    ______ ____
ROOT
ATOM      1  C   UNL     1      25.103  24.155  33.770  0.00  0.00    +0.196 A 
ATOM      2  C   UNL     1      26.284  24.546  34.424  0.00  0.00    +0.042 A 
ATOM      3  C   UNL     1      26.924  25.705  34.011  0.00  0.00    +0.003 A 
ATOM      4  C   UNL     1      26.353  26.423  32.950  0.00  0.00    +0.002 A 
ATOM      5  C   UNL     1      25.180  26.038  32.315  0.00  0.00    +0.026 A 
ATOM     10  O   UNL     1      24.445  23.040  34.142  0.00  0.00    -0.287 OA
ATOM     11  C   UNL     1      24.539  24.885  32.718  0.00  0.00    +0.044 A 
ENDROOT
BRANCH   5   6
ATOM      6  C   UNL     1      24.577  26.788  31.162  0.00  0.00    +0.110 C 
ATOM      7  O   UNL     1      23.352  26.926  31.072  0.00  0.00    -0.536 OA
ATOM      8  N   UNL     1      25.518  27.214  30.315  0.00  0.00    -0.198 NA
ATOM      9  O   UNL     1      25.326  27.868  29.145  0.00  0.00    -0.402 OA
ENDBRANCH   5   6
TORSDOF 1
