REMARK  Name = 3s2p_ligand
REMARK  8 active torsions:
REMARK  status: ('A' for Active; 'I' for Inactive)
REMARK    1  A    between atoms: N1_2  and  C5_9
REMARK    2  A    between atoms: O1_3  and  C2_4
REMARK    3  A    between atoms: O2_5  and  C10_14
REMARK    4  A    between atoms: O3_7  and  C9_13
REMARK    5  A    between atoms: C7_11  and  C15_17
REMARK    6  A    between atoms: C11_15  and  C12_16
REMARK    7  A    between atoms: C11_15  and  C18_20
REMARK    8  A    between atoms: C11_15  and  C19_22
REMARK                            x       y       z     vdW  Elec       q    Type
REMARK                         _______ _______ _______ _____ _____    ______ ____
ROOT
ATOM     10  C   UNL     1      26.239  28.497  26.868  0.00  0.00    +0.034 A 
ATOM     11  C   UNL     1      25.064  27.836  27.311  0.00  0.00    +0.013 A 
ATOM     12  C   UNL     1      24.312  28.259  28.462  0.00  0.00    +0.020 A 
ATOM     25  C   UNL     1      24.813  29.399  29.159  0.00  0.00    +0.091 A 
ATOM     26  C   UNL     1      25.995  30.072  28.728  0.00  0.00    +0.014 A 
ATOM     29  C   UNL     1      26.715  29.628  27.581  0.00  0.00    +0.005 A 
ENDROOT
BRANCH  12  13
ATOM     13  C   UNL     1      23.050  27.536  28.920  0.00  0.00    +0.038 A 
ATOM     14  C   UNL     1      22.552  26.408  28.240  0.00  0.00    +0.037 A 
ATOM     15  C   UNL     1      21.374  25.763  28.723  0.00  0.00    +0.029 A 
ATOM     16  N   UNL     1      20.708  26.196  29.821  0.00  0.00    -0.261 NA
ATOM     17  C   UNL     1      21.204  27.270  30.445  0.00  0.00    +0.173 A 
ATOM     18  N   UNL     1      20.530  27.653  31.516  0.00  0.00    -0.306 N 
ATOM     19  H   UNL     1      19.691  27.132  31.810  0.00  0.00    +0.182 HD
ATOM     20  H   UNL     1      20.844  28.472  32.056  0.00  0.00    +0.182 HD
ATOM     24  N   UNL     1      22.312  27.937  30.052  0.00  0.00    -0.266 NA
BRANCH  15  21
ATOM     21  C   UNL     1      20.781  24.532  28.060  0.00  0.00    +0.055 C 
ATOM     22  C   UNL     1      19.355  24.832  27.565  0.00  0.00    +0.029 C 
ATOM     23  C   UNL     1      21.672  24.038  26.903  0.00  0.00    +0.029 C 
ENDBRANCH  15  21
ENDBRANCH  12  13
BRANCH  10   9
ATOM      1  C   UNL     1      28.155  27.294  25.768  0.00  0.00    +0.160 C 
ATOM      2  C   UNL     1      28.437  27.056  24.272  0.00  0.00    +0.166 C 
ATOM      3  C   UNL     1      27.613  28.120  23.521  0.00  0.00    +0.166 C 
ATOM      4  C   UNL     1      26.376  28.309  24.387  0.00  0.00    +0.160 C 
ATOM      9  N   UNL     1      26.895  28.053  25.738  0.00  0.00    -0.309 N 
BRANCH   3   5
ATOM      5  O   UNL     1      27.295  27.640  22.225  0.00  0.00    -0.387 OA
ATOM      6  H   UNL     1      28.094  27.537  21.722  0.00  0.00    +0.210 HD
ENDBRANCH   3   5
BRANCH   2   7
ATOM      7  O   UNL     1      29.817  27.200  23.961  0.00  0.00    -0.387 OA
ATOM      8  H   UNL     1      29.949  27.046  23.033  0.00  0.00    +0.210 HD
ENDBRANCH   2   7
ENDBRANCH  10   9
BRANCH  25  27
ATOM     27  O   UNL     1      24.186  29.911  30.276  0.00  0.00    -0.336 OA
ATOM     28  H   UNL     1      23.416  29.390  30.472  0.00  0.00    +0.247 HD
ENDBRANCH  25  27
TORSDOF 6
