REMARK  Name = 4RLO
REMARK  4 active torsions:
REMARK  status: ('A' for Active; 'I' for Inactive)
REMARK    1  A    between atoms: S_2  and  C_12
REMARK    2  A    between atoms: C_6  and  O_9
REMARK    3  A    between atoms: N_15  and  RU_37
REMARK    4  A    between atoms: S_16  and  RU_37
REMARK                            x       y       z     vdW  Elec       q    Type
REMARK                         _______ _______ _______ _____ _____    ______ ____
ROOT
ATOM      3 RU   UNL     1      82.161   1.423   6.475  0.00  0.00    +0.000 Ru
ATOM      4  N   UNL     1      82.876  -0.238   5.560  0.00  0.00    +0.000 N 
ATOM      5  C   UNL     1      82.120  -0.487   4.426  0.00  0.00    +0.000 A 
ATOM      6  C   UNL     1      82.291  -1.554   3.570  0.00  0.00    +0.000 A 
ATOM      7  C   UNL     1      83.297  -2.484   3.852  0.00  0.00    +0.000 C 
ATOM      8  C   UNL     1      84.070  -2.246   5.018  0.00  0.00    +0.000 C 
ATOM      9  F   UNL     1      85.044  -3.135   5.292  0.00  0.00    +0.000 F 
ATOM     10  C   UNL     1      81.462  -1.709   2.423  0.00  0.00    +0.000 A 
ATOM     11  C   UNL     1      81.390  -2.649   1.406  0.00  0.00    +0.000 A 
ATOM     12  N   UNL     1      80.408  -2.350   0.536  0.00  0.00    +0.000 N 
ATOM     13  H   UNL     1      80.155  -2.925  -0.330  0.00  0.00    +0.000 HD
ATOM     14  C   UNL     1      79.802  -1.235   0.916  0.00  0.00    +0.000 A 
ATOM     15  O   UNL     1      78.881  -0.815   0.235  0.00  0.00    +0.000 OA
ATOM     16  O   UNL     1      82.091  -3.624   1.276  0.00  0.00    +0.000 OA
ATOM     17  C   UNL     1      80.433  -0.797   2.104  0.00  0.00    +0.000 A 
ATOM     18  C   UNL     1      80.305   0.271   3.000  0.00  0.00    +0.000 A 
ATOM     19  C   UNL     1      79.447   1.354   3.062  0.00  0.00    +0.000 A 
ATOM     20  C   UNL     1      78.410   1.721   2.191  0.00  0.00    +0.000 A 
ATOM     21  C   UNL     1      77.675   2.895   2.482  0.00  0.00    +0.000 A 
ATOM     22  C   UNL     1      77.996   3.639   3.605  0.00  0.00    +0.000 A 
ATOM     23  C   UNL     1      79.049   3.219   4.448  0.00  0.00    +0.000 A 
ATOM     26  C   UNL     1      79.798   2.069   4.192  0.00  0.00    +0.000 A 
ATOM     27  C   UNL     1      81.087   0.418   4.096  0.00  0.00    +0.000 A 
ATOM     28  C   UNL     1      83.835  -1.118   5.858  0.00  0.00    +0.000 C 
ATOM     29  N   UNL     1      80.848   1.519   4.882  0.00  0.00    +0.000 N 
ENDROOT
BRANCH   3   2
ATOM      1  C   UNL     1      82.510   3.805   8.800  0.00  0.00    +0.000 C 
ATOM      2  S   UNL     1      81.121   3.351   7.670  0.00  0.00    +0.000 S 
ATOM     34  C   UNL     1      79.674   2.633   8.498  0.00  0.00    +0.000 C 
ATOM     35  C   UNL     1      79.763   1.143   8.771  0.00  0.00    +0.000 C 
ATOM     36  S   UNL     1      80.384  -0.047   7.489  0.00  0.00    +0.000 S 
ATOM     37  C   UNL     1      81.614  -0.814   8.682  0.00  0.00    +0.000 C 
ATOM     38  C   UNL     1      82.673   0.019   9.442  0.00  0.00    +0.000 C 
ATOM     39  S   UNL     1      83.753   1.172   8.494  0.00  0.00    +0.000 S 
ATOM     40  C   UNL     1      83.494   2.768   9.378  0.00  0.00    +0.000 C 
ENDBRANCH   3   2
BRANCH  21  24
ATOM     24  O   UNL     1      76.650   3.306   1.669  0.00  0.00    +0.000 OA
ATOM     25  H   UNL     1      75.757   3.339   2.220  0.00  0.00    +0.000 HD
ENDBRANCH  21  24
BRANCH   3  30
ATOM     30  N   UNL     1      83.432   2.573   5.636  0.00  0.00    +1.000 NA
ATOM     31  C   UNL     1      84.719   2.578   5.703  0.00  0.00    +0.000 C 
BRANCH  31  32
ATOM     32  S   UNL     1      86.482   2.516   5.852  0.00  0.00    +0.000 S 
ATOM     33  H   UNL     1      86.830   2.713   7.131  0.00  0.00    +0.000 HD
ENDBRANCH  31  32
ENDBRANCH   3  30
TORSDOF 4
