REMARK  Name = F97
REMARK  3 active torsions:
REMARK  status: ('A' for Active; 'I' for Inactive)
REMARK    1  A    between atoms: C2_12  and  N4_14
REMARK    2  A    between atoms: N13_18  and  C14_19
REMARK    3  A    between atoms: C16_20  and  C27_28
REMARK                            x       y       z     vdW  Elec       q    Type
REMARK                         _______ _______ _______ _____ _____    ______ ____
ROOT
ATOM     11  C   UNL     1     -33.972 -14.895 -19.216  0.00  0.00    +0.270 A 
ATOM     12  N   UNL     1     -34.214 -14.286 -18.062  0.00  0.00    -0.173 NA
ATOM     13  C   UNL     1     -34.935 -14.886 -17.124  0.00  0.00    +0.223 A 
ATOM     14  N   UNL     1     -35.178 -14.229 -15.937  0.00  0.00    -0.273 N 
ATOM     15  C   UNL     1     -35.094 -15.113 -14.764  0.00  0.00    +0.100 C 
ATOM     16  C   UNL     1     -34.906 -14.147 -13.564  0.00  0.00    +0.090 C 
ATOM     17  C   UNL     1     -34.560 -12.783 -14.221  0.00  0.00    +0.283 C 
ATOM     18  F   UNL     1     -33.458 -12.205 -13.586  0.00  0.00    -0.202 F 
ATOM     19  F   UNL     1     -35.676 -11.947 -14.181  0.00  0.00    -0.202 F 
ATOM     20  C   UNL     1     -34.235 -13.137 -15.683  0.00  0.00    +0.160 C 
ATOM     21  N   UNL     1     -35.452 -16.093 -17.293  0.00  0.00    -0.218 NA
ATOM     22  C   UNL     1     -35.257 -16.767 -18.417  0.00  0.00    +0.068 A 
ATOM     28  C   UNL     1     -34.512 -16.173 -19.416  0.00  0.00    +0.080 A 
ENDROOT
BRANCH  11  10
ATOM      1  C   UNL     1     -31.137 -11.466 -19.230  0.00  0.00    +0.070 A 
ATOM      2  N   UNL     1     -30.649 -10.502 -18.390  0.00  0.00    -0.256 N 
ATOM      6  N   UNL     1     -29.696  -9.737 -19.066  0.00  0.00    -0.168 NA
ATOM      7  C   UNL     1     -29.562 -10.163 -20.286  0.00  0.00    +0.121 A 
ATOM      8  C   UNL     1     -32.074 -12.494 -19.127  0.00  0.00    +0.166 C 
ATOM      9  C   UNL     1     -32.307 -13.297 -20.235  0.00  0.00    +0.345 C 
ATOM     10  N   UNL     1     -33.226 -14.346 -20.254  0.00  0.00    +0.011 NA
ATOM     29  N   UNL     1     -31.659 -13.090 -21.376  0.00  0.00    -0.060 NA
ATOM     30  C   UNL     1     -30.768 -12.138 -21.529  0.00  0.00    +0.292 C 
ATOM     31  C   UNL     1     -30.471 -11.288 -20.464  0.00  0.00    +0.065 A 
BRANCH   2   3
ATOM      3  C   UNL     1     -31.040 -10.300 -16.993  0.00  0.00    +0.105 C 
ATOM      4  C   UNL     1     -30.030 -11.022 -16.100  0.00  0.00    +0.026 C 
ATOM      5  C   UNL     1     -31.000  -8.804 -16.672  0.00  0.00    +0.026 C 
ENDBRANCH   2   3
ENDBRANCH  11  10
BRANCH  22  23
ATOM     23  C   UNL     1     -35.832 -18.155 -18.606  0.00  0.00    +0.059 C 
ATOM     24  C   UNL     1     -36.009 -18.850 -17.236  0.00  0.00    +0.095 C 
ATOM     25  N   UNL     1     -37.441 -19.156 -17.091  0.00  0.00    -0.218 NA
ATOM     26  C   UNL     1     -37.993 -19.246 -18.457  0.00  0.00    +0.089 C 
ATOM     27  C   UNL     1     -37.260 -18.113 -19.217  0.00  0.00    +0.026 C 
ENDBRANCH  22  23
TORSDOF 3
