REMARK  Name = 5ZJW
REMARK  7 active torsions:
REMARK  status: ('A' for Active; 'I' for Inactive)
REMARK    1  A    between atoms: CAE_3  and  CAF_4
REMARK    2  A    between atoms: CAF_4  and  CAG_5
REMARK    3  A    between atoms: CAF_4  and  CAH_6
REMARK    4  A    between atoms: CAT_16  and  CAW_19
REMARK    5  A    between atoms: CAZ_20  and  CBA_21
REMARK    6  A    between atoms: CAZ_20  and  CBC_22
REMARK    7  A    between atoms: CAZ_20  and  NAY_31
REMARK                            x       y       z     vdW  Elec       q    Type
REMARK                         _______ _______ _______ _____ _____    ______ ____
ROOT
ATOM     12  C   UNL     1      -7.198  -9.299  19.848  0.00  0.00    -0.050 A 
ATOM     13  C   UNL     1      -7.808  -9.563  21.039  0.00  0.00    +0.100 A 
ATOM     14  O   UNL     1      -8.210 -10.748  21.616  0.00  0.00    -0.400 OA
ATOM     15  N   UNL     1      -7.965  -8.414  21.615  0.00  0.00    -0.300 NA
ATOM     16  C   UNL     1      -7.434  -7.296  20.807  0.00  0.00    +0.200 A 
ATOM     17  C   UNL     1      -7.379  -5.972  20.975  0.00  0.00    -0.130 A 
ATOM     18  C   UNL     1      -6.959  -5.145  19.902  0.00  0.00    -0.130 A 
ATOM     19  C   UNL     1      -6.401  -5.784  18.719  0.00  0.00    +0.000 A 
ATOM     32  C   UNL     1      -6.368  -7.213  18.614  0.00  0.00    -0.130 A 
ATOM     33  C   UNL     1      -6.911  -7.961  19.583  0.00  0.00    +0.050 A 
ENDROOT
BRANCH  19  20
ATOM     20  C   UNL     1      -5.893  -4.910  17.608  0.00  0.00    +0.600 C 
ATOM     21  O   UNL     1      -6.078  -3.714  17.674  0.00  0.00    -0.550 OA
ATOM     22  N   UNL     1      -5.194  -5.498  16.533  0.00  0.00    -0.400 NA
BRANCH  22  23
ATOM     23  CA  UNL     1      -4.687  -4.737  15.435  0.00  0.00    +0.050 C 
BRANCH  23  24
ATOM     24  C   UNL     1      -3.278  -4.262  15.673  0.00  0.00    +0.000 A 
ATOM     25  C   UNL     1      -2.266  -5.189  16.275  0.00  0.00    -0.130 A 
ATOM     26  C   UNL     1      -1.005  -4.783  16.500  0.00  0.00    -0.130 A 
ATOM     27  C   UNL     1      -0.605  -3.381  16.142  0.00  0.00    -0.130 A 
ATOM     28  C   UNL     1      -1.506  -2.551  15.580  0.00  0.00    -0.130 A 
ATOM     29  C   UNL     1      -2.918  -3.014  15.333  0.00  0.00    -0.130 A 
ENDBRANCH  23  24
BRANCH  23  30
ATOM     30  C   UNL     1      -4.686  -5.619  14.212  0.00  0.00    +0.150 C 
ATOM     31  O   UNL     1      -6.034  -5.927  13.969  0.00  0.00    -0.650 OA
ENDBRANCH  23  30
ENDBRANCH  22  23
ENDBRANCH  19  20
BRANCH  12   5
ATOM      5  C   UNL     1      -6.811 -10.387  18.836  0.00  0.00    +0.000 C 
BRANCH   5   6
ATOM      6  C   UNL     1      -6.047 -10.043  17.580  0.00  0.00    +0.000 A 
ATOM      7  C   UNL     1      -6.801  -9.881  16.285  0.00  0.00    -0.130 A 
ATOM      8  C   UNL     1      -6.129  -9.576  15.161  0.00  0.00    -0.130 A 
ATOM      9  C   UNL     1      -4.630  -9.387  15.203  0.00  0.00    -0.130 A 
ATOM     10  C   UNL     1      -3.961  -9.531  16.360  0.00  0.00    -0.130 A 
ATOM     11  C   UNL     1      -4.708  -9.877  17.620  0.00  0.00    -0.130 A 
ENDBRANCH   5   6
BRANCH   5   3
ATOM      1  C   UNL     1      -8.099 -13.794  19.574  0.00  0.00    +0.000 A 
ATOM      2  N   UNL     1      -7.991 -12.467  19.893  0.00  0.00    -0.200 NA
ATOM      3  C   UNL     1      -7.224 -11.844  18.920  0.00  0.00    +0.200 A 
ATOM      4  N   UNL     1      -6.851 -12.792  18.010  0.00  0.00    -0.500 NA
ATOM     34  C   UNL     1      -7.392 -14.003  18.412  0.00  0.00    +0.000 A 
ENDBRANCH   5   3
ENDBRANCH  12   5
TORSDOF 7
