REMARK  Name = 2WQO
REMARK  10 active torsions:
REMARK  status: ('A' for Active; 'I' for Inactive)
REMARK    1  A    between atoms: C_1  and  O_2
REMARK    2  A    between atoms: O_2  and  C_3
REMARK    3  A    between atoms: C_5  and  C_6
REMARK    4  A    between atoms: C_11  and  C_12
REMARK    5  A    between atoms: C_15  and  C_16
REMARK    6  A    between atoms: C_16  and  O_18
REMARK    7  A    between atoms: C_23  and  O_24
REMARK    8  A    between atoms: O_24  and  C_25
REMARK    9  A    between atoms: C_26  and  O_27
REMARK   10  A    between atoms: O_27  and  C_28
REMARK                            x       y       z     vdW  Elec       q    Type
REMARK                         _______ _______ _______ _____ _____    ______ ____
ROOT
ATOM     12  C   UNL     1      25.794  -8.494  20.014  0.00  0.00    +0.001 A 
ATOM     13  C   UNL     1      25.280  -8.684  18.742  0.00  0.00    +0.022 A 
ATOM     14  C   UNL     1      24.691  -7.629  18.103  0.00  0.00    +0.022 A 
ATOM     25  C   UNL     1      24.597  -6.360  18.719  0.00  0.00    +0.124 A 
ATOM     26  N   UNL     1      23.965  -5.283  18.028  0.00  0.00    -0.343 N 
ATOM     27  H   UNL     1      23.568  -5.437  17.046  0.00  0.00    +0.144 HD
ATOM     28  H   UNL     1      23.888  -4.322  18.492  0.00  0.00    +0.144 HD
ATOM     29  N   UNL     1      25.116  -6.200  19.975  0.00  0.00    -0.239 NA
ATOM     30  C   UNL     1      25.698  -7.242  20.636  0.00  0.00    +0.121 A 
ENDROOT
BRANCH  12  11
ATOM      3  C   UNL     1      27.710 -10.383  22.540  0.00  0.00    +0.166 A 
ATOM      4  C   UNL     1      27.612 -11.702  22.013  0.00  0.00    +0.203 A 
ATOM      7  C   UNL     1      26.929 -11.928  20.827  0.00  0.00    +0.166 A 
ATOM     10  C   UNL     1      26.306 -10.832  20.154  0.00  0.00    +0.058 A 
ATOM     11  C   UNL     1      26.410  -9.555  20.666  0.00  0.00    -0.009 A 
ATOM     31  C   UNL     1      27.104  -9.325  21.874  0.00  0.00    +0.058 A 
BRANCH   3   2
ATOM      1  C   UNL     1      27.709 -10.193  24.934  0.00  0.00    +0.277 C 
ATOM      2  O   UNL     1      28.391 -10.158  23.705  0.00  0.00    -0.491 OA
ENDBRANCH   3   2
BRANCH   4   5
ATOM      5  O   UNL     1      28.211 -12.754  22.673  0.00  0.00    -0.488 OA
ATOM      6  C   UNL     1      29.625 -12.858  22.678  0.00  0.00    +0.277 C 
ENDBRANCH   4   5
BRANCH   7   8
ATOM      8  O   UNL     1      26.854 -13.230  20.308  0.00  0.00    -0.491 OA
ATOM      9  C   UNL     1      26.279 -13.429  19.020  0.00  0.00    +0.277 C 
ENDBRANCH   7   8
ENDBRANCH  12  11
BRANCH  14  15
ATOM     15  C   UNL     1      24.162  -7.825  16.830  0.00  0.00    -0.015 A 
ATOM     16  C   UNL     1      22.803  -7.558  16.579  0.00  0.00    +0.009 A 
ATOM     17  C   UNL     1      22.287  -7.725  15.285  0.00  0.00    +0.015 A 
ATOM     18  C   UNL     1      23.135  -8.155  14.256  0.00  0.00    +0.059 A 
ATOM     23  C   UNL     1      24.477  -8.399  14.493  0.00  0.00    +0.015 A 
ATOM     24  C   UNL     1      24.998  -8.235  15.779  0.00  0.00    +0.009 A 
BRANCH  18  19
ATOM     19  C   UNL     1      22.576  -8.319  12.841  0.00  0.00    +0.337 C 
ATOM     22  O   UNL     1      21.488  -7.891  12.580  0.00  0.00    -0.245 OA
BRANCH  19  20
ATOM     20  O   UNL     1      23.365  -8.879  11.835  0.00  0.00    -0.477 OA
ATOM     21  H   UNL     1      24.226  -8.294  11.699  0.00  0.00    +0.295 HD
ENDBRANCH  19  20
ENDBRANCH  18  19
ENDBRANCH  14  15
TORSDOF 7
