REMARK  Name = 2BZI
REMARK  2 active torsions:
REMARK  status: ('A' for Active; 'I' for Inactive)
REMARK    1  A    between atoms: C_2  and  RU_3
REMARK    2  A    between atoms: C_17  and  O_20
REMARK                            x       y       z     vdW  Elec       q    Type
REMARK                         _______ _______ _______ _____ _____    ______ ____
ROOT
ATOM      3 RU   UNL     1     -40.668  -2.320   3.892  0.00  0.00    +0.000 Ru
ATOM      4  N   UNL     1     -40.368  -2.383   1.861  0.00  0.00    +0.000 N 
ATOM      5  C   UNL     1     -41.502  -2.168   1.146  0.00  0.00    +0.000 A 
ATOM      6  C   UNL     1     -42.659  -1.899   1.811  0.00  0.00    +0.000 A 
ATOM      7  C   UNL     1     -43.824  -1.676   1.077  0.00  0.00    +0.000 A 
ATOM      8  C   UNL     1     -43.717  -1.755  -0.339  0.00  0.00    +0.000 A 
ATOM      9  C   UNL     1     -44.670  -1.599  -1.350  0.00  0.00    +0.000 A 
ATOM     10  O   UNL     1     -45.854  -1.333  -1.222  0.00  0.00    +0.000 OA
ATOM     11  N   UNL     1     -44.074  -1.762  -2.583  0.00  0.00    +0.000 N 
ATOM     12  H   UNL     1     -44.560  -1.686  -3.533  0.00  0.00    +0.000 HD
ATOM     13  C   UNL     1     -42.749  -2.039  -2.374  0.00  0.00    +0.000 A 
ATOM     14  O   UNL     1     -41.974  -2.240  -3.294  0.00  0.00    +0.000 OA
ATOM     15  C   UNL     1     -42.492  -2.040  -0.996  0.00  0.00    +0.000 A 
ATOM     16  C   UNL     1     -44.965  -1.398   1.840  0.00  0.00    +0.000 C 
ATOM     17  C   UNL     1     -44.886  -1.373   3.248  0.00  0.00    +0.000 C 
ATOM     18  C   UNL     1     -43.663  -1.621   3.905  0.00  0.00    +0.000 C 
ATOM     19  C   UNL     1     -41.332  -2.249  -0.228  0.00  0.00    +0.000 A 
ATOM     20  C   UNL     1     -39.980  -2.537  -0.410  0.00  0.00    +0.000 A 
ATOM     21  C   UNL     1     -39.189  -2.747  -1.550  0.00  0.00    +0.000 A 
ATOM     22  C   UNL     1     -37.822  -3.049  -1.391  0.00  0.00    +0.000 A 
ATOM     25  C   UNL     1     -37.280  -3.124  -0.100  0.00  0.00    +0.000 A 
ATOM     26  C   UNL     1     -38.063  -2.917   1.035  0.00  0.00    +0.000 A 
ATOM     27  C   UNL     1     -39.409  -2.622   0.875  0.00  0.00    +0.000 A 
ATOM     28  N   UNL     1     -42.549  -1.863   3.182  0.00  0.00    +0.000 N 
ATOM     29  C   UNL     1     -39.700  -4.199   4.133  0.00  0.00    +0.000 C 
ATOM     30  C   UNL     1     -41.008  -4.298   4.608  0.00  0.00    +0.000 C 
ATOM     31  C   UNL     1     -41.157  -3.405   5.670  0.00  0.00    +0.000 C 
ATOM     32  C   UNL     1     -39.940  -2.750   5.844  0.00  0.00    +0.000 C 
ATOM     33  C   UNL     1     -39.038  -3.236   4.896  0.00  0.00    +0.000 C 
ENDROOT
BRANCH   3   2
ATOM      1  O   UNL     1     -39.583   0.594   4.083  0.00  0.00    +0.000 OA
ATOM      2  C   UNL     1     -39.997  -0.431   4.014  0.00  0.00    +0.000 C 
ENDBRANCH   3   2
BRANCH  22  23
ATOM     23  O   UNL     1     -37.021  -3.237  -2.484  0.00  0.00    +0.000 OA
ATOM     24  H   UNL     1     -37.388  -4.039  -3.054  0.00  0.00    +0.000 HD
ENDBRANCH  22  23
TORSDOF 2
