REMARK  Name = F5Y
REMARK  5 active torsions:
REMARK  status: ('A' for Active; 'I' for Inactive)
REMARK    1  A    between atoms: C28_2  and  S27_3
REMARK    2  A    between atoms: S27_3  and  C21_6
REMARK    3  A    between atoms: C24_10  and  O25_11
REMARK    4  A    between atoms: C19_13  and  C10_14
REMARK    5  A    between atoms: C6_25  and  C11_26
REMARK                            x       y       z     vdW  Elec       q    Type
REMARK                         _______ _______ _______ _____ _____    ______ ____
ROOT
ATOM      9  C   UNL     1      15.009  10.859   6.677  0.00  0.00    +0.020 C 
ATOM     10  C   UNL     1      13.982  10.954   7.598  0.00  0.00    +0.078 C 
ATOM     11  N   UNL     1      13.376  12.200   7.891  0.00  0.00    -0.292 N 
ATOM     12  C   UNL     1      12.274  12.151   8.906  0.00  0.00    +0.134 C 
ATOM     13  C   UNL     1      13.769  13.376   7.349  0.00  0.00    +0.261 C 
ATOM     14  O   UNL     1      13.170  14.434   7.665  0.00  0.00    -0.267 OA
ATOM     15  C   UNL     1      14.811  13.314   6.436  0.00  0.00    +0.056 A 
ATOM     16  C   UNL     1      15.269  14.490   5.782  0.00  0.00    +0.005 A 
ATOM     17  C   UNL     1      16.288  14.461   4.839  0.00  0.00    +0.000 A 
ATOM     18  C   UNL     1      16.917  13.259   4.450  0.00  0.00    +0.003 A 
ATOM     19  C   UNL     1      16.451  12.068   5.112  0.00  0.00    +0.000 A 
ATOM     26  C   UNL     1      15.430  12.060   6.074  0.00  0.00    +0.006 A 
ENDROOT
BRANCH   9   8
ATOM      6  C   UNL     1      16.803   7.634   7.168  0.00  0.00    +0.106 A 
ATOM      7  C   UNL     1      16.262   8.869   7.370  0.00  0.00    +0.021 A 
ATOM      8  C   UNL     1      15.570   9.584   6.378  0.00  0.00    +0.037 A 
ATOM     27  C   UNL     1      15.376   8.955   5.149  0.00  0.00    +0.139 A 
ATOM     28  C   UNL     1      15.960   7.676   4.940  0.00  0.00    +0.038 A 
ATOM     31  C   UNL     1      16.701   7.001   5.934  0.00  0.00    +0.021 A 
BRANCH   6   3
ATOM      3  S   UNL     1      17.702   6.906   8.439  0.00  0.00    +0.009 S 
ATOM      4  O   UNL     1      18.191   7.908   9.408  0.00  0.00    -0.169 OA
ATOM      5  O   UNL     1      18.874   6.230   7.750  0.00  0.00    -0.169 OA
BRANCH   3   2
ATOM      1  C   UNL     1      15.515   6.984  10.009  0.00  0.00    +0.028 C 
ATOM      2  C   UNL     1      16.476   5.933   9.383  0.00  0.00    +0.156 C 
ENDBRANCH   3   2
ENDBRANCH   6   3
BRANCH  27  29
ATOM     29  O   UNL     1      14.650   9.668   4.194  0.00  0.00    -0.471 OA
ATOM     30  C   UNL     1      14.576   9.091   2.853  0.00  0.00    +0.253 C 
ENDBRANCH  27  29
ENDBRANCH   9   8
BRANCH  18  20
ATOM     20  C   UNL     1      17.955  13.236   3.563  0.00  0.00    +0.040 A 
ATOM     21  C   UNL     1      18.668  12.146   3.163  0.00  0.00    +0.122 A 
ATOM     22  N   UNL     1      19.696  12.563   2.371  0.00  0.00    -0.168 NA
ATOM     23  N   UNL     1      19.607  13.903   2.252  0.00  0.00    -0.247 N 
ATOM     24  C   UNL     1      20.546  14.762   1.433  0.00  0.00    +0.154 C 
ATOM     25  C   UNL     1      18.559  14.329   2.979  0.00  0.00    +0.097 A 
ENDBRANCH  18  20
TORSDOF 5
