REMARK  Name = 4ezk_ligand
REMARK  7 active torsions:
REMARK  status: ('A' for Active; 'I' for Inactive)
REMARK    1  A    between atoms: N_1  and  C8_18
REMARK    2  A    between atoms: C_2  and  C1_4
REMARK    3  A    between atoms: C1_4  and  O1_6
REMARK    4  A    between atoms: C1_4  and  C2_7
REMARK    5  A    between atoms: C1_4  and  C3_9
REMARK    6  A    between atoms: C8_18  and  C9_19
REMARK    7  A    between atoms: C15_25  and  C16_26
REMARK                            x       y       z     vdW  Elec       q    Type
REMARK                         _______ _______ _______ _____ _____    ______ ____
ROOT
ATOM      4  C   UNL     1      17.413  -2.623  20.953  0.00  0.00    +0.079 A 
ATOM      5  C   UNL     1      18.318  -1.852  20.253  0.00  0.00    +0.055 A 
ATOM      6  C   UNL     1      19.530  -2.378  19.959  0.00  0.00    +0.052 A 
ATOM      7  C   UNL     1      19.849  -3.689  20.363  0.00  0.00    +0.063 A 
ATOM      8  C   UNL     1      18.885  -4.459  21.063  0.00  0.00    +0.111 A 
ATOM      9  C   UNL     1      19.295  -5.755  21.449  0.00  0.00    +0.157 A 
ATOM     10  N   UNL     1      18.372  -6.498  22.182  0.00  0.00    -0.274 N 
ATOM     11  C   UNL     1      16.940  -6.380  21.920  0.00  0.00    +0.171 C 
ATOM     12  C   UNL     1      16.184  -6.702  23.173  0.00  0.00    +0.185 C 
ATOM     13  O   UNL     1      16.499  -7.997  23.651  0.00  0.00    -0.376 OA
ATOM     14  C   UNL     1      17.883  -8.082  23.936  0.00  0.00    +0.185 C 
ATOM     15  C   UNL     1      18.715  -7.814  22.718  0.00  0.00    +0.171 C 
ATOM     16  N   UNL     1      20.500  -6.205  21.168  0.00  0.00    -0.248 NA
ATOM     17  C   UNL     1      21.348  -5.408  20.513  0.00  0.00    +0.102 A 
ATOM     28  N   UNL     1      21.096  -4.185  20.094  0.00  0.00    -0.285 NA
ATOM     29  N   UNL     1      17.670  -3.867  21.322  0.00  0.00    -0.277 NA
ENDROOT
BRANCH  17  18
ATOM     18  C   UNL     1      22.711  -5.867  20.184  0.00  0.00    +0.031 A 
ATOM     19  C   UNL     1      23.322  -6.817  20.968  0.00  0.00    +0.048 A 
ATOM     20  C   UNL     1      23.010  -7.589  22.109  0.00  0.00    +0.250 A 
ATOM     21  N   UNL     1      24.013  -8.373  22.455  0.00  0.00    -0.244 N 
ATOM     22  H   UNL     1      24.042  -9.030  23.247  0.00  0.00    +0.293 HD
ATOM     23  N   UNL     1      25.004  -8.135  21.549  0.00  0.00    -0.333 NA
ATOM     24  C   UNL     1      24.631  -7.208  20.637  0.00  0.00    -0.009 A 
ATOM     25  C   UNL     1      25.301  -6.662  19.551  0.00  0.00    +0.010 A 
ATOM     26  C   UNL     1      24.659  -5.713  18.781  0.00  0.00    +0.006 A 
ATOM     27  C   UNL     1      23.373  -5.315  19.092  0.00  0.00    +0.021 A 
ENDBRANCH  17  18
BRANCH   4   3
ATOM      3  C   UNL     1      16.096  -2.040  21.408  0.00  0.00    +0.225 C 
BRANCH   3   1
ATOM      1  N   UNL     1      15.304  -1.483  20.306  0.00  0.00    +0.250 N 
ATOM      2  H   UNL     1      14.496  -1.024  20.696  0.00  0.00    +0.205 HD
ATOM     30  C   UNL     1      14.848  -2.545  19.404  0.00  0.00    +0.133 C 
ATOM     31  C   UNL     1      13.996  -1.988  18.271  0.00  0.00    +0.057 C 
ATOM     32  C   UNL     1      14.814  -0.987  17.466  0.00  0.00    +0.030 C 
ATOM     33  C   UNL     1      15.264   0.112  18.420  0.00  0.00    +0.057 C 
ATOM     39  C   UNL     1      16.083  -0.498  19.553  0.00  0.00    +0.133 C 
BRANCH  32  34
ATOM     34  C   UNL     1      14.079  -0.454  16.216  0.00  0.00    +0.064 C 
ATOM     35  C   UNL     1      12.837   0.341  16.584  0.00  0.00    +0.041 C 
ATOM     38  C   UNL     1      14.994   0.373  15.332  0.00  0.00    +0.041 C 
BRANCH  34  36
ATOM     36  O   UNL     1      13.659  -1.590  15.439  0.00  0.00    -0.389 OA
ATOM     37  H   UNL     1      13.082  -2.134  15.962  0.00  0.00    +0.210 HD
ENDBRANCH  34  36
ENDBRANCH  32  34
ENDBRANCH   3   1
ENDBRANCH   4   3
TORSDOF 5
