REMARK  Name = 4O6L
REMARK  9 active torsions:
REMARK  status: ('A' for Active; 'I' for Inactive)
REMARK    1  A    between atoms: C_1  and  C_2
REMARK    2  A    between atoms: C_2  and  C_3
REMARK    3  A    between atoms: C_3  and  N_4
REMARK    4  A    between atoms: C_3  and  C_30
REMARK    5  A    between atoms: C_5  and  C_7
REMARK    6  A    between atoms: C_13  and  C_14
REMARK    7  A    between atoms: C_17  and  O_18
REMARK    8  A    between atoms: O_18  and  C_19
REMARK    9  A    between atoms: N_22  and  C_23
REMARK                            x       y       z     vdW  Elec       q    Type
REMARK                         _______ _______ _______ _____ _____    ______ ____
ROOT
ATOM     14  C   UNL     1      73.079  -3.226  23.209  0.00  0.00    +0.037 A 
ATOM     15  C   UNL     1      72.554  -2.326  22.265  0.00  0.00    +0.025 A 
ATOM     16  C   UNL     1      71.278  -1.725  22.515  0.00  0.00    +0.028 A 
ATOM     17  C   UNL     1      70.447  -0.808  21.783  0.00  0.00    +0.100 A 
ATOM     32  N   UNL     1      69.329  -0.562  22.515  0.00  0.00    -0.173 NA
ATOM     33  N   UNL     1      69.389  -1.282  23.702  0.00  0.00    -0.276 N 
ATOM     34  H   UNL     1      68.651  -1.288  24.477  0.00  0.00    +0.189 HD
ATOM     35  C   UNL     1      70.588  -1.996  23.699  0.00  0.00    +0.066 A 
ATOM     36  C   UNL     1      71.146  -2.888  24.676  0.00  0.00    +0.028 A 
ATOM     37  C   UNL     1      72.388  -3.497  24.419  0.00  0.00    +0.015 A 
ENDROOT
BRANCH  17  18
ATOM     18  C   UNL     1      70.695  -0.207  20.496  0.00  0.00    +0.003 A 
ATOM     19  C   UNL     1      69.582   0.177  19.735  0.00  0.00    +0.013 A 
ATOM     20  C   UNL     1      69.766   0.803  18.488  0.00  0.00    +0.046 A 
ATOM     21  C   UNL     1      71.040   1.021  18.012  0.00  0.00    +0.121 A 
ATOM     30  C   UNL     1      72.163   0.647  18.782  0.00  0.00    +0.046 A 
ATOM     31  C   UNL     1      71.973   0.036  20.029  0.00  0.00    +0.013 A 
BRANCH  21  22
ATOM     22  O   UNL     1      71.231   1.636  16.782  0.00  0.00    -0.489 OA
BRANCH  22  23
ATOM     23  C   UNL     1      70.433   1.130  15.764  0.00  0.00    +0.176 C 
ATOM     24  C   UNL     1      70.562   2.014  14.583  0.00  0.00    +0.060 C 
ATOM     25  C   UNL     1      72.011   2.129  14.196  0.00  0.00    +0.087 C 
ATOM     26  N   UNL     1      72.574   0.789  13.857  0.00  0.00    -0.305 NA
ATOM     27  C   UNL     1      73.762   0.588  12.987  0.00  0.00    +0.105 C 
ATOM     28  C   UNL     1      72.199  -0.332  14.765  0.00  0.00    +0.087 C 
ATOM     29  C   UNL     1      70.838  -0.256  15.420  0.00  0.00    +0.060 C 
ENDBRANCH  22  23
ENDBRANCH  21  22
ENDBRANCH  17  18
BRANCH  14  13
ATOM     11  N   UNL     1      75.259  -3.359  21.910  0.00  0.00    -0.304 N 
ATOM     12  H   UNL     1      74.680  -3.489  21.019  0.00  0.00    +0.150 HD
ATOM     13  C   UNL     1      74.435  -3.881  22.966  0.00  0.00    +0.245 C 
ATOM     38  O   UNL     1      74.776  -4.814  23.671  0.00  0.00    -0.270 OA
BRANCH  11   3
ATOM      3  C   UNL     1      76.606  -3.793  21.550  0.00  0.00    +0.105 C 
BRANCH   3   4
ATOM      4  C   UNL     1      77.568  -3.629  22.739  0.00  0.00    -0.009 A 
ATOM      5  C   UNL     1      78.202  -4.609  23.542  0.00  0.00    +0.046 A 
ATOM      6 CL   UNL     1      78.036  -6.334  23.395  0.00  0.00    -0.083 Cl
ATOM      7  C   UNL     1      79.053  -4.185  24.571  0.00  0.00    +0.020 A 
ATOM      8  C   UNL     1      79.279  -2.818  24.799  0.00  0.00    +0.001 A 
ATOM      9  C   UNL     1      78.664  -1.852  24.017  0.00  0.00    +0.000 A 
ATOM     10  C   UNL     1      77.810  -2.261  22.997  0.00  0.00    +0.007 A 
ENDBRANCH   3   4
BRANCH   3   2
ATOM      1  C   UNL     1      76.564  -4.608  19.173  0.00  0.00    +0.006 C 
ATOM      2  C   UNL     1      76.670  -4.988  20.658  0.00  0.00    +0.024 C 
ENDBRANCH   3   2
ENDBRANCH  11   3
ENDBRANCH  14  13
TORSDOF 7
