REMARK  Name = 6XW
REMARK  5 active torsions:
REMARK  status: ('A' for Active; 'I' for Inactive)
REMARK    1  A    between atoms: C09_10  and  C57_30
REMARK    2  A    between atoms: N14_11  and  C16_12
REMARK    3  A    between atoms: C29_15  and  O31_16
REMARK    4  A    between atoms: O31_16  and  C32_17
REMARK    5  A    between atoms: C32_17  and  C35_18
REMARK                            x       y       z     vdW  Elec       q    Type
REMARK                         _______ _______ _______ _____ _____    ______ ____
ROOT
ATOM      1  C   UNL     1      26.277  52.284  -2.818  0.00  0.00    +0.232 C 
ATOM      2  C   UNL     1      26.530  51.417  -1.767  0.00  0.00    +0.035 C 
ATOM     10  C   UNL     1      25.441  50.653  -1.309  0.00  0.00    +0.093 C 
ATOM     11  C   UNL     1      25.563  49.708  -0.226  0.00  0.00    -0.016 C 
ATOM     12  C   UNL     1      24.490  49.010   0.182  0.00  0.00    +0.030 C 
ATOM     13  C   UNL     1      24.622  48.020   1.309  0.00  0.00    +0.035 C 
ATOM     14  C   UNL     1      23.188  49.181  -0.450  0.00  0.00    +0.265 C 
ATOM     15  O   UNL     1      22.176  48.570  -0.117  0.00  0.00    -0.268 OA
ATOM     16  N   UNL     1      23.105  50.074  -1.466  0.00  0.00    -0.172 NA
ATOM     17  C   UNL     1      24.181  50.818  -1.918  0.00  0.00    +0.145 C 
ATOM     18  C   UNL     1      24.019  51.737  -2.990  0.00  0.00    +0.373 C 
ATOM     19  N   UNL     1      22.851  51.955  -3.634  0.00  0.00    -0.032 NA
ATOM     36  N   UNL     1      25.086  52.450  -3.404  0.00  0.00    -0.032 NA
ENDROOT
BRANCH   2   3
ATOM      3  C   UNL     1      27.909  51.311  -1.206  0.00  0.00    +0.021 A 
ATOM      4  C   UNL     1      28.170  51.439   0.155  0.00  0.00    +0.021 A 
ATOM      5  C   UNL     1      29.469  51.346   0.642  0.00  0.00    +0.108 A 
ATOM      6  N   UNL     1      29.731  51.460   1.990  0.00  0.00    -0.126 NA
ATOM      7  C   UNL     1      30.482  51.133  -0.297  0.00  0.00    +0.117 A 
ATOM      8  N   UNL     1      30.264  51.015  -1.611  0.00  0.00    -0.241 NA
ATOM      9  C   UNL     1      29.001  51.105  -2.040  0.00  0.00    +0.099 A 
ENDBRANCH   2   3
BRANCH  19  20
ATOM     20  C   UNL     1      22.774  52.762  -4.850  0.00  0.00    +0.235 C 
ATOM     21  C   UNL     1      21.342  53.225  -5.152  0.00  0.00    +0.072 C 
ATOM     22  C   UNL     1      20.538  52.055  -5.681  0.00  0.00    +0.093 C 
ATOM     23  N   UNL     1      21.172  51.497  -6.882  0.00  0.00    -0.215 NA
ATOM     24  C   UNL     1      22.479  50.938  -6.556  0.00  0.00    +0.122 C 
ATOM     25  C   UNL     1      23.375  52.059  -6.061  0.00  0.00    +0.179 C 
BRANCH  25  26
ATOM     26  O   UNL     1      23.440  53.000  -7.136  0.00  0.00    -0.350 OA
BRANCH  26  27
ATOM     27  C   UNL     1      24.674  53.701  -7.287  0.00  0.00    +0.142 C 
BRANCH  27  28
ATOM     28  C   UNL     1      24.770  54.179  -8.717  0.00  0.00    +0.033 C 
ATOM     29  C   UNL     1      25.355  55.585  -8.783  0.00  0.00    +0.028 C 
ATOM     30  C   UNL     1      25.342  56.164 -10.195  0.00  0.00    +0.151 C 
ATOM     31  S   UNL     1      26.335  55.191 -11.281  0.00  0.00    -0.010 S 
ATOM     32  O   UNL     1      27.692  55.195 -10.806  0.00  0.00    -0.173 OA
ATOM     33  C   UNL     1      25.642  53.589 -11.031  0.00  0.00    +0.151 C 
ATOM     34  O   UNL     1      26.094  55.603 -12.636  0.00  0.00    -0.173 OA
ATOM     35  C   UNL     1      25.630  53.229  -9.549  0.00  0.00    +0.028 C 
ENDBRANCH  27  28
ENDBRANCH  26  27
ENDBRANCH  25  26
ENDBRANCH  19  20
TORSDOF 5
