REMARK  Name = LTT
REMARK  2 active torsions:
REMARK  status: ('A' for Active; 'I' for Inactive)
REMARK    1  A    between atoms: N1_8  and  C4_9
REMARK    2  A    between atoms: C2_11  and  C8_12
REMARK                            x       y       z     vdW  Elec       q    Type
REMARK                         _______ _______ _______ _____ _____    ______ ____
ROOT
ATOM      1  O   UNL     1      48.876  67.762 100.134  0.00  0.00    -0.244 OA
ATOM      2  C   UNL     1      47.752  67.273 100.072  0.00  0.00    +0.353 A 
ATOM      3  N   UNL     1      46.657  67.977 100.372  0.00  0.00    -0.174 NA
ATOM      4  C   UNL     1      45.439  67.409 100.284  0.00  0.00    +0.176 A 
ATOM      5  N   UNL     1      44.338  68.171 100.573  0.00  0.00    -0.107 NA
ATOM      6  C   UNL     1      45.348  66.074  99.887  0.00  0.00    +0.057 A 
ATOM      7  C   UNL     1      46.504  65.330  99.595  0.00  0.00    +0.085 A 
ATOM      8  N   UNL     1      47.694  65.942  99.680  0.00  0.00    -0.254 N 
ENDROOT
BRANCH   8   9
ATOM      9  C   UNL     1      49.011  65.332  99.418  0.00  0.00    +0.241 C 
ATOM     10  O   UNL     1      48.850  63.961  99.089  0.00  0.00    -0.307 OA
ATOM     11  C   UNL     1      49.266  63.745  97.754  0.00  0.00    +0.271 C 
ATOM     12  O   UNL     1      49.080  65.010  97.174  0.00  0.00    -0.324 OA
ATOM     15  C   UNL     1      49.539  65.960  98.145  0.00  0.00    +0.199 C 
BRANCH  11  13
ATOM     13  C   UNL     1      48.350  62.719  97.138  0.00  0.00    +0.243 C 
ATOM     14  O   UNL     1      48.263  61.688  98.113  0.00  0.00    -0.215 OA
ENDBRANCH  11  13
ENDBRANCH   8   9
TORSDOF 2
