REMARK  Name = 4l8m_ligand
REMARK  8 active torsions:
REMARK  status: ('A' for Active; 'I' for Inactive)
REMARK    1  A    between atoms: CAT_20  and  CAW_23
REMARK    2  A    between atoms: CAT_20  and  OBB_28
REMARK    3  A    between atoms: CAW_23  and  NBP_42
REMARK    4  A    between atoms: NAY_25  and  CBL_38
REMARK    5  A    between atoms: NAZ_26  and  CBF_32
REMARK    6  A    between atoms: NAZ_26  and  CBG_33
REMARK    7  A    between atoms: OBB_28  and  CBI_35
REMARK    8  A    between atoms: CBD_30  and  CBJ_36
REMARK                            x       y       z     vdW  Elec       q    Type
REMARK                         _______ _______ _______ _____ _____    ______ ____
ROOT
ATOM     18  C   UNL     1      -2.260  -0.121 -20.456  0.00  0.00    +0.053 A 
ATOM     19  C   UNL     1      -1.639  -0.459 -21.651  0.00  0.00    +0.040 A 
ATOM     20  C   UNL     1      -1.497   0.468 -22.667  0.00  0.00    +0.104 A 
ATOM     21  C   UNL     1      -2.002   1.768 -22.479  0.00  0.00    +0.049 A 
ATOM     22  C   UNL     1      -1.973   2.771 -23.439  0.00  0.00    +0.139 C 
ATOM     23  C   UNL     1      -1.771   2.428 -24.784  0.00  0.00    +0.025 A 
ATOM     24  C   UNL     1      -0.886   1.468 -25.275  0.00  0.00    -0.004 A 
ATOM     25  C   UNL     1      -0.013   0.694 -24.525  0.00  0.00    +0.260 C 
ATOM     26  C   UNL     1      -0.804   1.175 -26.640  0.00  0.00    -0.006 A 
ATOM     27  C   UNL     1      -1.637   1.861 -27.515  0.00  0.00    +0.022 A 
ATOM     28  C   UNL     1      -2.537   2.816 -27.027  0.00  0.00    +0.090 A 
ATOM     39  C   UNL     1      -2.616   3.098 -25.665  0.00  0.00    +0.036 A 
ATOM     40  O   UNL     1      -2.263   3.917 -23.132  0.00  0.00    -0.384 OA
ATOM     41  C   UNL     1      -2.642   2.123 -21.276  0.00  0.00    +0.000 A 
ATOM     42  O   UNL     1      -0.841  -0.140 -23.723  0.00  0.00    -0.304 OA
ATOM     43  C   UNL     1      -2.766   1.172 -20.254  0.00  0.00    +0.001 A 
ENDROOT
BRANCH  18  16
ATOM     16  N   UNL     1      -2.289  -1.149 -19.603  0.00  0.00    -0.280 N 
ATOM     17  H   UNL     1      -1.712  -1.966 -19.849  0.00  0.00    +0.208 HD
BRANCH  16  15
ATOM     11  C   UNL     1      -2.975  -2.217 -16.293  0.00  0.00    +0.090 A 
ATOM     12  C   UNL     1      -4.201  -1.598 -16.034  0.00  0.00    +0.139 A 
ATOM     13  C   UNL     1      -4.822  -0.784 -16.992  0.00  0.00    +0.003 A 
ATOM     14  C   UNL     1      -4.205  -0.610 -18.234  0.00  0.00    -0.016 A 
ATOM     15  C   UNL     1      -2.978  -1.232 -18.476  0.00  0.00    +0.041 A 
ATOM     44  F   UNL     1      -4.776  -1.766 -14.909  0.00  0.00    -0.203 F 
ATOM     45  C   UNL     1      -2.375  -2.032 -17.526  0.00  0.00    +0.019 A 
BRANCH  11   9
ATOM      1  O   UNL     1      -0.360  -1.984 -15.316  0.00  0.00    -0.374 OA
ATOM      2  C   UNL     1      -1.118  -2.890 -14.950  0.00  0.00    +0.231 C 
ATOM      9  N   UNL     1      -2.422  -3.015 -15.337  0.00  0.00    -0.235 N 
ATOM     10  H   UNL     1      -2.990  -3.715 -14.904  0.00  0.00    +0.224 HD
BRANCH   2   3
ATOM      3  C   UNL     1      -0.704  -3.796 -13.961  0.00  0.00    +0.056 A 
ATOM      4  C   UNL     1      -0.134  -3.312 -12.791  0.00  0.00    +0.025 A 
ATOM      5  C   UNL     1       0.277  -4.197 -11.791  0.00  0.00    +0.007 A 
ATOM      6  C   UNL     1       0.125  -5.579 -11.955  0.00  0.00    +0.008 A 
ATOM      7  C   UNL     1      -0.449  -6.069 -13.122  0.00  0.00    +0.007 A 
ATOM      8  C   UNL     1      -0.843  -5.171 -14.125  0.00  0.00    +0.025 A 
ENDBRANCH   2   3
ENDBRANCH  11   9
ENDBRANCH  16  15
ENDBRANCH  18  16
BRANCH  28  29
ATOM     29  O   UNL     1      -3.348   3.500 -27.881  0.00  0.00    -0.316 OA
BRANCH  29  30
ATOM     30  C   UNL     1      -3.194   3.035 -29.243  0.00  0.00    +0.242 C 
BRANCH  30  31
ATOM     31  C   UNL     1      -4.551   3.042 -29.963  0.00  0.00    +0.165 C 
BRANCH  31  32
ATOM     32  N   UNL     1      -5.017   4.428 -30.106  0.00  0.00    +0.240 N 
ATOM     33  H   UNL     1      -4.233   5.021 -29.883  0.00  0.00    +0.204 HD
ATOM     34  C   UNL     1      -5.432   4.758 -31.479  0.00  0.00    +0.160 C 
ATOM     35  C   UNL     1      -5.859   6.233 -31.528  0.00  0.00    +0.210 C 
ATOM     36  O   UNL     1      -5.581   6.896 -30.234  0.00  0.00    -0.369 OA
ATOM     37  C   UNL     1      -6.277   6.277 -29.113  0.00  0.00    +0.210 C 
ATOM     38  C   UNL     1      -6.098   4.756 -29.158  0.00  0.00    +0.160 C 
ENDBRANCH  31  32
ENDBRANCH  30  31
ENDBRANCH  29  30
ENDBRANCH  28  29
TORSDOF 8
