REMARK  Name = 6HHJ
REMARK  7 active torsions:
REMARK  status: ('A' for Active; 'I' for Inactive)
REMARK    1  A    between atoms: CBJ_6  and  CBM_7
REMARK    2  A    between atoms: CBL_17  and  CBI_18
REMARK    3  A    between atoms: CBF_23  and  CBC_24
REMARK    4  A    between atoms: CBC_24  and  NBB_25
REMARK    5  A    between atoms: CAY_30  and  NAQ_31
REMARK    6  A    between atoms: CAG_41  and  NAC_42
REMARK    7  A    between atoms: CAB_43  and  CAA_45
REMARK                            x       y       z     vdW  Elec       q    Type
REMARK                         _______ _______ _______ _____ _____    ______ ____
ROOT
ATOM      5  C   UNL     1      15.459 -14.383 -10.139  0.00  0.00    +0.000 A 
ATOM      6  C   UNL     1      15.871 -14.681 -11.433  0.00  0.00    -0.130 A 
ATOM      7  C   UNL     1      15.025 -14.436 -12.513  0.00  0.00    -0.130 A 
ATOM      8  C   UNL     1      13.752 -13.909 -12.300  0.00  0.00    +0.000 A 
ATOM     32  C   UNL     1      13.337 -13.618 -11.006  0.00  0.00    -0.130 A 
ATOM     33  C   UNL     1      14.183 -13.863  -9.927  0.00  0.00    -0.130 A 
ENDROOT
BRANCH   5   4
ATOM      3  C   UNL     1      16.726 -13.700  -8.122  0.00  0.00    +0.000 A 
ATOM      4  C   UNL     1      16.313 -14.652  -9.068  0.00  0.00    +0.100 A 
ATOM     34  N   UNL     1      16.737 -15.924  -8.954  0.00  0.00    -0.480 NA
ATOM     35  C   UNL     1      17.551 -16.327  -7.968  0.00  0.00    +0.380 A 
ATOM     36  C   UNL     1      17.972 -17.649  -7.881  0.00  0.00    -0.100 A 
ATOM     37  C   UNL     1      18.819 -18.047  -6.848  0.00  0.00    +0.000 A 
ATOM     38  N   UNL     1      19.234 -17.183  -5.938  0.00  0.00    -0.400 NA
ATOM     39  C   UNL     1      18.828 -15.844  -5.996  0.00  0.00    +0.600 A 
ATOM     40  O   UNL     1      19.222 -15.053  -5.143  0.00  0.00    -0.550 OA
ATOM     41  C   UNL     1      17.985 -15.423  -7.016  0.00  0.00    +0.000 A 
ATOM     42  C   UNL     1      17.568 -14.104  -7.092  0.00  0.00    -0.130 A 
BRANCH   3   2
ATOM      1  C   UNL     1      15.858 -11.802  -6.954  0.00  0.00    -0.130 A 
ATOM      2  C   UNL     1      16.360 -12.354  -8.127  0.00  0.00    +0.000 A 
ATOM     43  C   UNL     1      16.525 -11.547  -9.251  0.00  0.00    -0.130 A 
ATOM     44  C   UNL     1      16.160 -10.206  -9.211  0.00  0.00    -0.130 A 
ATOM     45  C   UNL     1      15.645  -9.663  -8.039  0.00  0.00    -0.130 A 
ATOM     46  C   UNL     1      15.494 -10.462  -6.913  0.00  0.00    -0.130 A 
ENDBRANCH   3   2
ENDBRANCH   5   4
BRANCH   8   9
ATOM      9  C   UNL     1      12.896 -13.651 -13.371  0.00  0.00    +0.100 C 
BRANCH   9  10
ATOM     10  N   UNL     1      12.599 -14.838 -14.188  0.00  0.00    -0.600 NA
ATOM     11  C   UNL     1      12.292 -14.375 -15.551  0.00  0.00    +0.100 C 
ATOM     12  C   UNL     1      11.968 -15.545 -16.462  0.00  0.00    -0.100 C 
ATOM     13  C   UNL     1      10.724 -16.233 -15.940  0.00  0.00    +0.050 C 
ATOM     30  C   UNL     1      10.986 -16.706 -14.504  0.00  0.00    -0.100 C 
ATOM     31  C   UNL     1      11.412 -15.518 -13.643  0.00  0.00    +0.100 C 
BRANCH  13  14
ATOM     14  N   UNL     1      10.311 -17.333 -16.862  0.00  0.00    -0.200 N 
ATOM     15  C   UNL     1      10.904 -18.513 -17.010  0.00  0.00    +0.650 A 
ATOM     16  N   UNL     1      10.272 -19.231 -17.922  0.00  0.00    -0.200 N 
ATOM     17  C   UNL     1       9.267 -18.491 -18.375  0.00  0.00    +0.050 A 
ATOM     18  C   UNL     1       8.350 -18.770 -19.298  0.00  0.00    -0.130 A 
ATOM     19  C   UNL     1       7.377 -17.841 -19.623  0.00  0.00    -0.130 A 
ATOM     20  C   UNL     1       7.388 -16.623 -18.964  0.00  0.00    +0.050 A 
ATOM     26  C   UNL     1       8.372 -16.381 -18.005  0.00  0.00    -0.130 A 
ATOM     27  C   UNL     1      10.621 -20.599 -18.359  0.00  0.00    -0.050 C 
ATOM     28  O   UNL     1      11.889 -18.912 -16.393  0.00  0.00    -0.550 OA
ATOM     29  C   UNL     1       9.289 -17.315 -17.728  0.00  0.00    +0.050 A 
BRANCH  20  21
ATOM     21  N   UNL     1       6.447 -15.728 -19.272  0.00  0.00    -0.350 NA
ATOM     22  C   UNL     1       5.564 -15.403 -18.315  0.00  0.00    +0.600 C 
ATOM     25  O   UNL     1       5.577 -15.863 -17.176  0.00  0.00    -0.550 OA
BRANCH  22  23
ATOM     23  C   UNL     1       4.490 -14.400 -18.732  0.00  0.00    -0.100 C 
ATOM     24  C   UNL     1       4.374 -14.158 -20.237  0.00  0.00    -0.100 C 
ENDBRANCH  22  23
ENDBRANCH  20  21
ENDBRANCH  13  14
ENDBRANCH   9  10
ENDBRANCH   8   9
TORSDOF 7
