REMARK  Name = 5GNK
REMARK  8 active torsions:
REMARK  status: ('A' for Active; 'I' for Inactive)
REMARK    1  A    between atoms: C_7  and  N_31
REMARK    2  A    between atoms: C_14  and  C_15
REMARK    3  A    between atoms: C_15  and  C_20
REMARK    4  A    between atoms: C_18  and  C_24
REMARK    5  A    between atoms: C_18  and  O_34
REMARK    6  A    between atoms: C_22  and  C_25
REMARK    7  A    between atoms: C_23  and  O_34
REMARK    8  A    between atoms: C_26  and  N_32
REMARK                            x       y       z     vdW  Elec       q    Type
REMARK                         _______ _______ _______ _____ _____    ______ ____
ROOT
ATOM      1  C   UNL     1      26.119  12.839  38.809  0.00  0.00    +0.164 A 
ATOM      2  N   UNL     1      25.922  11.554  39.110  0.00  0.00    -0.241 N 
ATOM      3  N   UNL     1      26.828  11.138  39.774  0.00  0.00    -0.168 NA
ATOM      4  C   UNL     1      27.712  12.112  39.960  0.00  0.00    +0.105 A 
ATOM     30  N   UNL     1      25.387  13.712  38.102  0.00  0.00    -0.216 NA
ATOM     31  C   UNL     1      25.846  15.021  37.938  0.00  0.00    +0.225 A 
ATOM     32  N   UNL     1      27.063  15.374  38.523  0.00  0.00    -0.220 NA
ATOM     33  C   UNL     1      27.739  14.449  39.215  0.00  0.00    +0.131 A 
ATOM     34  N   UNL     1      28.903  14.724  39.795  0.00  0.00    -0.343 N 
ATOM     35  H   UNL     1      29.322  15.705  39.715  0.00  0.00    +0.144 HD
ATOM     36  H   UNL     1      29.421  13.964  40.342  0.00  0.00    +0.144 HD
ATOM     37  C   UNL     1      27.275  13.207  39.355  0.00  0.00    +0.086 A 
ENDROOT
BRANCH   2  20
ATOM     20  C   UNL     1      24.742  10.762  38.704  0.00  0.00    +0.127 C 
ATOM     21  C   UNL     1      25.125   9.327  38.341  0.00  0.00    +0.134 C 
ATOM     22  N   UNL     1      23.927   8.454  38.236  0.00  0.00    -0.299 N 
ATOM     23  C   UNL     1      23.724   7.604  37.214  0.00  0.00    +0.215 C 
ATOM     24  O   UNL     1      22.728   6.889  37.128  0.00  0.00    -0.276 OA
ATOM     27  C   UNL     1      22.899   8.535  39.288  0.00  0.00    +0.108 C 
ATOM     28  C   UNL     1      22.489   9.975  39.470  0.00  0.00    +0.021 C 
ATOM     29  C   UNL     1      23.719  10.781  39.836  0.00  0.00    +0.030 C 
BRANCH  23  25
ATOM     25  C   UNL     1      24.805   7.552  36.130  0.00  0.00    +0.092 C 
ATOM     26  C   UNL     1      24.215   6.915  34.869  0.00  0.00    +0.013 C 
ENDBRANCH  23  25
ENDBRANCH   2  20
BRANCH   4   5
ATOM      5  C   UNL     1      28.833  11.962  40.665  0.00  0.00    +0.004 A 
ATOM      6  C   UNL     1      29.063  12.736  41.799  0.00  0.00    +0.033 A 
ATOM      7  C   UNL     1      30.228  12.563  42.541  0.00  0.00    +0.083 A 
ATOM      8 CL   UNL     1      30.531  13.526  43.945  0.00  0.00    -0.080 Cl
ATOM      9  C   UNL     1      31.161  11.609  42.158  0.00  0.00    +0.139 A 
ATOM     18  C   UNL     1      30.930  10.824  41.028  0.00  0.00    +0.048 A 
ATOM     19  C   UNL     1      29.765  11.001  40.289  0.00  0.00    +0.014 A 
BRANCH   9  10
ATOM     10  O   UNL     1      32.267  11.528  42.967  0.00  0.00    -0.483 OA
BRANCH  10  11
ATOM     11  C   UNL     1      33.297  10.596  42.599  0.00  0.00    +0.303 C 
BRANCH  11  12
ATOM     12  C   UNL     1      34.288  11.286  41.662  0.00  0.00    +0.147 A 
ATOM     13  N   UNL     1      34.856  12.460  41.894  0.00  0.00    -0.335 N 
ATOM     14  C   UNL     1      35.645  12.714  40.853  0.00  0.00    +0.107 A 
ATOM     15  C   UNL     1      35.549  11.695  39.998  0.00  0.00    +0.130 A 
ATOM     16  C   UNL     1      34.655  13.319  43.080  0.00  0.00    +0.150 C 
ATOM     17  N   UNL     1      34.702  10.800  40.499  0.00  0.00    -0.237 NA
ENDBRANCH  11  12
ENDBRANCH  10  11
ENDBRANCH   9  10
ENDBRANCH   4   5
TORSDOF 6
