REMARK  Name = 4C57
REMARK  8 active torsions:
REMARK  status: ('A' for Active; 'I' for Inactive)
REMARK    1  A    between atoms: C_12  and  N_20
REMARK    2  A    between atoms: N_20  and  O_21
REMARK    3  A    between atoms: O_21  and  C_22
REMARK    4  A    between atoms: C_22  and  C_23
REMARK    5  A    between atoms: C_23  and  C_24
REMARK    6  A    between atoms: C_24  and  O_25
REMARK    7  A    between atoms: C_24  and  C_26
REMARK    8  A    between atoms: C_26  and  O_27
REMARK                            x       y       z     vdW  Elec       q    Type
REMARK                         _______ _______ _______ _____ _____    ______ ____
ROOT
ATOM      1  O   UNL     1     -26.377  11.506  40.375  0.00  0.00    -0.270 OA
ATOM      2  C   UNL     1     -26.559  10.984  41.489  0.00  0.00    +0.251 C 
ATOM      3  N   UNL     1     -26.130  11.452  42.693  0.00  0.00    -0.281 N 
ATOM      4  H   UNL     1     -25.544  12.339  42.819  0.00  0.00    +0.155 HD
ATOM      5  C   UNL     1     -26.547  10.635  43.739  0.00  0.00    +0.042 A 
ATOM      6  C   UNL     1     -26.355  10.770  45.113  0.00  0.00    +0.024 A 
ATOM      7  C   UNL     1     -26.897   9.810  45.956  0.00  0.00    +0.002 A 
ATOM      8  C   UNL     1     -27.588   8.724  45.437  0.00  0.00    +0.001 A 
ATOM      9  C   UNL     1     -27.773   8.589  44.065  0.00  0.00    +0.010 A 
ATOM     10  C   UNL     1     -27.269   9.558  43.197  0.00  0.00    +0.010 A 
ATOM     11  C   UNL     1     -27.296   9.767  41.765  0.00  0.00    +0.073 C 
ATOM     12  C   UNL     1     -27.823   9.087  40.685  0.00  0.00    +0.103 C 
ATOM     13  N   UNL     1     -27.627   9.510  39.390  0.00  0.00    -0.244 NA
ATOM     14  C   UNL     1     -28.298   8.663  38.522  0.00  0.00    +0.074 A 
ATOM     15  C   UNL     1     -28.303   8.655  37.129  0.00  0.00    +0.028 A 
ATOM     16  C   UNL     1     -28.990   7.640  36.476  0.00  0.00    +0.002 A 
ATOM     17  C   UNL     1     -29.671   6.666  37.201  0.00  0.00    +0.001 A 
ATOM     18  C   UNL     1     -29.667   6.679  38.594  0.00  0.00    +0.012 A 
ATOM     19  C   UNL     1     -28.968   7.673  39.273  0.00  0.00    +0.028 A 
ATOM     20  C   UNL     1     -28.673   7.937  40.680  0.00  0.00    +0.097 C 
ENDROOT
BRANCH  20  21
ATOM     21  N   UNL     1     -29.094   7.466  41.800  0.00  0.00    -0.263 N 
ATOM     22  H   UNL     1     -28.685   7.773  42.740  0.00  0.00    +0.194 HD
BRANCH  21  23
ATOM     23  O   UNL     1     -30.133   6.516  41.704  0.00  0.00    -0.274 OA
BRANCH  23  24
ATOM     24  C   UNL     1     -30.517   6.132  43.030  0.00  0.00    +0.195 C 
BRANCH  24  25
ATOM     25  C   UNL     1     -32.022   6.188  43.153  0.00  0.00    +0.064 C 
BRANCH  25  26
ATOM     26  C   UNL     1     -32.718   5.462  42.014  0.00  0.00    +0.142 C 
BRANCH  26  30
ATOM     30  O   UNL     1     -32.397   4.067  42.084  0.00  0.00    -0.389 OA
ATOM     31  H   UNL     1     -31.358   3.942  42.001  0.00  0.00    +0.210 HD
ENDBRANCH  26  30
BRANCH  26  27
ATOM     27  C   UNL     1     -34.214   5.660  42.065  0.00  0.00    +0.187 C 
BRANCH  27  28
ATOM     28  O   UNL     1     -34.848   4.966  41.002  0.00  0.00    -0.393 OA
ATOM     29  H   UNL     1     -34.489   5.328  40.084  0.00  0.00    +0.209 HD
ENDBRANCH  27  28
ENDBRANCH  26  27
ENDBRANCH  25  26
ENDBRANCH  24  25
ENDBRANCH  23  24
ENDBRANCH  21  23
ENDBRANCH  20  21
TORSDOF 8
