REMARK  Name = 5TA8
REMARK  8 active torsions:
REMARK  status: ('A' for Active; 'I' for Inactive)
REMARK    1  A    between atoms: C_2  and  C_30
REMARK    2  A    between atoms: C_5  and  N_16
REMARK    3  A    between atoms: C_8  and  N_19
REMARK    4  A    between atoms: C_13  and  O_14
REMARK    5  A    between atoms: O_14  and  C_15
REMARK    6  A    between atoms: N_25  and  C_26
REMARK    7  A    between atoms: N_32  and  C_33
REMARK    8  A    between atoms: N_36  and  C_37
REMARK                            x       y       z     vdW  Elec       q    Type
REMARK                         _______ _______ _______ _____ _____    ______ ____
ROOT
ATOM      6  N   UNL     1       1.008  24.477  68.956  0.00  0.00    -0.281 N 
ATOM      7  H   UNL     1       1.730  24.625  69.732  0.00  0.00    +0.155 HD
ATOM      8  C   UNL     1       0.922  25.505  68.014  0.00  0.00    +0.221 A 
ATOM      9  N   UNL     1       0.059  25.462  67.002  0.00  0.00    -0.197 NA
ATOM     10  C   UNL     1      -0.023  26.454  66.107  0.00  0.00    +0.148 A 
ATOM     11  N   UNL     1      -0.932  26.398  65.042  0.00  0.00    -0.304 N 
ATOM     17  C   UNL     1      -0.350  26.300  63.698  0.00  0.00    +0.192 C 
ATOM     18  C   UNL     1       0.719  27.303  63.302  0.00  0.00    +0.338 C 
ATOM     19  F   UNL     1       1.979  26.721  63.494  0.00  0.00    -0.194 F 
ATOM     20  F   UNL     1       0.526  27.569  61.943  0.00  0.00    -0.194 F 
ATOM     21  C   UNL     1       0.672  28.611  64.037  0.00  0.00    +0.291 C 
ATOM     22  O   UNL     1       0.591  29.637  63.382  0.00  0.00    -0.269 OA
ATOM     23  N   UNL     1       0.766  28.685  65.391  0.00  0.00    -0.265 N 
ATOM     24  C   UNL     1       0.708  30.019  66.004  0.00  0.00    +0.139 C 
ATOM     25  C   UNL     1       0.840  27.568  66.259  0.00  0.00    +0.095 A 
ATOM     26  C   UNL     1       1.720  27.579  67.334  0.00  0.00    +0.141 A 
ATOM     27  N   UNL     1       1.736  26.545  68.174  0.00  0.00    -0.221 NA
ENDROOT
BRANCH   6   5
ATOM      1  C   UNL     1       0.084  21.079  70.063  0.00  0.00    +0.060 A 
ATOM      2  C   UNL     1       0.739  22.300  69.939  0.00  0.00    +0.142 A 
ATOM      5  C   UNL     1       0.279  23.272  69.030  0.00  0.00    +0.076 A 
ATOM     28  C   UNL     1      -0.855  22.998  68.254  0.00  0.00    +0.028 A 
ATOM     29  C   UNL     1      -1.504  21.777  68.382  0.00  0.00    +0.015 A 
ATOM     30  C   UNL     1      -1.046  20.800  69.288  0.00  0.00    +0.040 A 
BRANCH  30  31
ATOM     31  C   UNL     1      -1.725  19.487  69.424  0.00  0.00    +0.244 C 
ATOM     32  N   UNL     1      -2.306  18.924  68.338  0.00  0.00    -0.308 N 
ATOM     33  H   UNL     1      -2.253  19.457  67.412  0.00  0.00    +0.149 HD
ATOM     41  O   UNL     1      -1.739  18.906  70.492  0.00  0.00    -0.270 OA
BRANCH  32  34
ATOM     34  C   UNL     1      -3.003  17.632  68.345  0.00  0.00    +0.076 C 
ATOM     35  C   UNL     1      -2.059  16.532  67.834  0.00  0.00    +0.037 C 
ATOM     36  C   UNL     1      -2.838  15.224  67.618  0.00  0.00    +0.086 C 
ATOM     37  N   UNL     1      -3.984  15.434  66.708  0.00  0.00    -0.305 NA
ATOM     38  C   UNL     1      -4.659  14.165  66.396  0.00  0.00    +0.105 C 
ATOM     39  C   UNL     1      -4.944  16.419  67.234  0.00  0.00    +0.086 C 
ATOM     40  C   UNL     1      -4.234  17.763  67.431  0.00  0.00    +0.037 C 
ENDBRANCH  32  34
ENDBRANCH  30  31
BRANCH   2   3
ATOM      3  O   UNL     1       1.839  22.581  70.703  0.00  0.00    -0.493 OA
ATOM      4  C   UNL     1       2.802  21.553  70.974  0.00  0.00    +0.277 C 
ENDBRANCH   2   3
ENDBRANCH   6   5
BRANCH  11  12
ATOM     12  C   UNL     1      -1.928  25.314  65.149  0.00  0.00    +0.082 C 
ATOM     13  C   UNL     1      -1.374  23.975  64.594  0.00  0.00    +0.049 C 
ATOM     14  C   UNL     1      -2.513  23.289  63.820  0.00  0.00    -0.029 C 
ATOM     15  C   UNL     1      -3.739  24.227  63.915  0.00  0.00    -0.029 C 
ATOM     16  C   UNL     1      -3.156  25.623  64.251  0.00  0.00    +0.049 C 
ENDBRANCH  11  12
TORSDOF 5
