REMARK  Name = 3hhm_ligand
REMARK  9 active torsions:
REMARK  status: ('A' for Active; 'I' for Inactive)
REMARK    1  A    between atoms: C1_1  and  C23_4
REMARK    2  A    between atoms: C9_3  and  C10_20
REMARK    3  A    between atoms: C23_4  and  O8_30
REMARK    4  A    between atoms: C5_10  and  O5_12
REMARK    5  A    between atoms: O6_15  and  C11_16
REMARK    6  A    between atoms: O6_15  and  C21_17
REMARK    7  A    between atoms: C21_17  and  C22_29
REMARK    8  A    between atoms: C13_22  and  C14_23
REMARK    9  A    between atoms: O8_30  and  C24_31
REMARK                            x       y       z     vdW  Elec       q    Type
REMARK                         _______ _______ _______ _____ _____    ______ ____
ROOT
ATOM      1  C   UNL     1      60.747  60.339 113.799  0.00  0.00    +0.121 C 
ATOM      5  C   UNL     1      61.152  61.355 112.700  0.00  0.00    -0.029 C 
ATOM      6  C   UNL     1      62.497  62.002 113.045  0.00  0.00    -0.085 C 
ATOM      7  C   UNL     1      60.092  62.473 112.509  0.00  0.00    -0.011 C 
ATOM      8  C   UNL     1      59.880  63.430 113.739  0.00  0.00    +0.143 C 
ATOM      9  C   UNL     1      59.302  64.833 113.435  0.00  0.00    +0.044 C 
ATOM     10  C   UNL     1      59.720  65.369 112.078  0.00  0.00    +0.040 C 
ATOM     11  C   UNL     1      58.911  66.531 111.601  0.00  0.00    +0.133 C 
ATOM     12  O   UNL     1      58.622  67.469 112.319  0.00  0.00    -0.332 OA
ATOM     13  C   UNL     1      58.503  66.419 110.148  0.00  0.00    +0.121 C 
ATOM     14  C   UNL     1      59.091  65.069 109.738  0.00  0.00    +0.025 C 
ATOM     15  C   UNL     1      61.203  65.749 112.067  0.00  0.00    +0.011 C 
ATOM     16  C   UNL     1      59.323  64.332 111.055  0.00  0.00    +0.022 C 
ATOM     21  C   UNL     1      60.333  63.200 111.173  0.00  0.00    +0.102 C 
ATOM     22  C   UNL     1      60.332  62.228 110.038  0.00  0.00    +0.239 C 
ATOM     23  O   UNL     1      59.708  62.397 109.007  0.00  0.00    -0.326 OA
ATOM     24  C   UNL     1      61.135  61.034 110.204  0.00  0.00    +0.232 C 
ATOM     27  C   UNL     1      61.375  60.545 111.424  0.00  0.00    +0.013 C 
ATOM     28  C   UNL     1      61.869  59.174 111.550  0.00  0.00    +0.056 C 
ATOM     29  C   UNL     1      61.866  58.311 110.548  0.00  0.00    +0.052 C 
ATOM     30  C   UNL     1      62.349  58.743 112.848  0.00  0.00    +0.261 C 
ATOM     31  O   UNL     1      63.239  57.918 112.950  0.00  0.00    -0.357 OA
ATOM     32  O   UNL     1      61.735  59.308 114.036  0.00  0.00    -0.288 OA
ENDROOT
BRANCH  24  25
ATOM     25  O   UNL     1      61.618  60.437 109.120  0.00  0.00    -0.247 OA
ATOM     26  H   UNL     1      60.899  60.169 108.560  0.00  0.00    +0.300 HD
ENDBRANCH  24  25
BRANCH   1   2
ATOM      2  C   UNL     1      59.311  59.784 113.655  0.00  0.00    +0.179 C 
BRANCH   2   3
ATOM      3  O   UNL     1      59.229  58.381 113.421  0.00  0.00    -0.382 OA
ATOM      4  C   UNL     1      57.873  57.977 113.209  0.00  0.00    +0.193 C 
ENDBRANCH   2   3
ENDBRANCH   1   2
BRANCH   8  17
ATOM     17  O   UNL     1      59.053  62.764 114.738  0.00  0.00    -0.275 OA
BRANCH  17  18
ATOM     18  C   UNL     1      58.610  63.367 116.033  0.00  0.00    +0.231 C 
ATOM     19  C   UNL     1      59.362  64.441 116.780  0.00  0.00    +0.182 C 
ATOM     20  O   UNL     1      57.571  62.938 116.531  0.00  0.00    -0.371 OA
ENDBRANCH  17  18
ENDBRANCH   8  17
TORSDOF 5
