REMARK  Name = 4W1
REMARK  1 active torsions:
REMARK  status: ('A' for Active; 'I' for Inactive)
REMARK    1  A    between atoms: CAI_9  and  CAG_10
REMARK                            x       y       z     vdW  Elec       q    Type
REMARK                         _______ _______ _______ _____ _____    ______ ____
ROOT
ATOM      1  C   UNL     1     -32.438   9.811   2.442  0.00  0.00    +0.006 A 
ATOM      2  C   UNL     1     -33.290   9.788   3.546  0.00  0.00    +0.001 A 
ATOM      3  C   UNL     1     -32.735   9.808   4.828  0.00  0.00    +0.000 A 
ATOM      4  C   UNL     1     -31.343   9.845   4.945  0.00  0.00    +0.000 A 
ATOM      5  C   UNL     1     -30.548   9.867   3.858  0.00  0.00    +0.005 A 
ATOM      6  C   UNL     1     -29.191   9.902   3.819  0.00  0.00    +0.018 A 
ATOM      9  C   UNL     1     -28.615   9.918   2.605  0.00  0.00    +0.034 A 
ATOM     10  S   UNL     1     -29.858   9.888   1.492  0.00  0.00    -0.087 S 
ATOM     11  C   UNL     1     -31.110   9.851   2.621  0.00  0.00    +0.029 A 
ENDROOT
BRANCH   6   7
ATOM      7  C   UNL     1     -28.337   9.921   5.098  0.00  0.00    +0.209 C 
ATOM      8  O   UNL     1     -27.914   8.587   5.415  0.00  0.00    -0.215 OA
ENDBRANCH   6   7
TORSDOF 1
