REMARK  Name = 2WVJ
REMARK  10 active torsions:
REMARK  status: ('A' for Active; 'I' for Inactive)
REMARK    1  A    between atoms: P_1  and  O_4
REMARK    2  A    between atoms: P_1  and  O_13
REMARK    3  A    between atoms: O_4  and  P_5
REMARK    4  A    between atoms: P_5  and  O_8
REMARK    5  A    between atoms: O_8  and  P_9
REMARK    6  A    between atoms: O_13  and  C_14
REMARK    7  A    between atoms: C_14  and  C_15
REMARK    8  A    between atoms: C_17  and  O_18
REMARK    9  A    between atoms: C_20  and  N_21
REMARK   10  A    between atoms: C_27  and  C_28
REMARK                            x       y       z     vdW  Elec       q    Type
REMARK                         _______ _______ _______ _____ _____    ______ ____
ROOT
ATOM      4  C   UNL     1      19.685 -12.498  46.446  0.00  0.00    +0.180 C 
ATOM      5  C   UNL     1      21.175 -12.599  46.186  0.00  0.00    +0.155 C 
ATOM      6  C   UNL     1      21.743 -13.294  47.406  0.00  0.00    +0.142 C 
ATOM      7  C   UNL     1      20.698 -13.005  48.480  0.00  0.00    +0.412 C 
ATOM     20  O   UNL     1      19.443 -12.867  47.810  0.00  0.00    -0.312 OA
ENDROOT
BRANCH   7   8
ATOM      8  N   UNL     1      20.667 -13.999  49.558  0.00  0.00    -0.049 N 
ATOM      9  C   UNL     1      20.339 -15.285  49.323  0.00  0.00    +0.327 C 
ATOM     10  C   UNL     1      20.322 -16.193  50.379  0.00  0.00    +0.127 C 
ATOM     11  C   UNL     1      19.957 -17.638  50.142  0.00  0.00    +0.061 C 
ATOM     12  C   UNL     1      20.672 -15.707  51.745  0.00  0.00    +0.423 C 
ATOM     13  O   UNL     1      20.675 -16.486  52.727  0.00  0.00    -0.214 OA
ATOM     14  N   UNL     1      20.986 -14.414  51.912  0.00  0.00    -0.049 N 
ATOM     15  H   UNL     1      21.230 -14.054  52.890  0.00  0.00    +0.457 HD
ATOM     16  C   UNL     1      21.000 -13.560  50.870  0.00  0.00    +0.666 C 
ATOM     17  O   UNL     1      21.307 -12.358  51.063  0.00  0.00    -0.153 OA
ENDBRANCH   7   8
BRANCH   5  18
ATOM     18  O   UNL     1      21.700 -11.278  46.080  0.00  0.00    -0.389 OA
ATOM     19  H   UNL     1      21.229 -10.776  45.287  0.00  0.00    +0.210 HD
ENDBRANCH   5  18
BRANCH   4   3
ATOM      3  C   UNL     1      18.962 -13.452  45.517  0.00  0.00    +0.202 C 
BRANCH   3   2
ATOM      2  O   UNL     1      17.581 -13.368  45.810  0.00  0.00    -0.325 OA
BRANCH   2   1
ATOM      1  P   UNL     1      16.491 -13.930  44.769  0.00  0.00    +0.218 P 
ATOM     30  O   UNL     1      16.685 -15.403  44.542  0.00  0.00    -0.517 OA
ATOM     31  O   UNL     1      15.128 -13.605  45.351  0.00  0.00    -0.437 OA
BRANCH   1  21
ATOM     21  O   UNL     1      16.822 -13.104  43.436  0.00  0.00    -0.270 OA
BRANCH  21  22
ATOM     22  P   UNL     1      15.894 -13.109  42.123  0.00  0.00    +0.228 P 
ATOM     28  O   UNL     1      16.715 -12.640  40.943  0.00  0.00    -0.437 OA
ATOM     29  O   UNL     1      14.709 -12.208  42.350  0.00  0.00    -0.517 OA
BRANCH  22  23
ATOM     23  O   UNL     1      15.389 -14.641  41.946  0.00  0.00    -0.226 OA
BRANCH  23  24
ATOM     24  P   UNL     1      15.554 -15.529  40.600  0.00  0.00    +0.537 P 
ATOM     25  O   UNL     1      15.065 -16.928  40.873  0.00  0.00    -0.114 OA
ATOM     26  O   UNL     1      14.753 -14.870  39.513  0.00  0.00    -0.222 OA
ATOM     27  O   UNL     1      16.999 -15.619  40.192  0.00  0.00    -0.114 OA
ENDBRANCH  23  24
ENDBRANCH  22  23
ENDBRANCH  21  22
ENDBRANCH   1  21
ENDBRANCH   2   1
ENDBRANCH   3   2
ENDBRANCH   4   3
TORSDOF 9
