REMARK  Name = 3ENE
REMARK  3 active torsions:
REMARK  status: ('A' for Active; 'I' for Inactive)
REMARK    1  A    between atoms: C_1  and  N_2
REMARK    2  A    between atoms: N_8  and  C_9
REMARK    3  A    between atoms: C_11  and  C_12
REMARK                            x       y       z     vdW  Elec       q    Type
REMARK                         _______ _______ _______ _____ _____    ______ ____
ROOT
ATOM      1  C   UNL     1      47.130  11.240  30.414  0.00  0.00    +0.131 A 
ATOM      2  N   UNL     1      48.365  11.016  29.918  0.00  0.00    -0.220 NA
ATOM      3  C   UNL     1      49.305  11.976  29.968  0.00  0.00    +0.225 A 
ATOM      4  N   UNL     1      49.043  13.192  30.467  0.00  0.00    -0.216 NA
ATOM      5  C   UNL     1      47.820  13.461  30.998  0.00  0.00    +0.164 A 
ATOM      6  N   UNL     1      47.289  14.540  31.591  0.00  0.00    -0.249 N 
ATOM      7  N   UNL     1      45.941  14.372  31.934  0.00  0.00    -0.169 NA
ATOM      8  C   UNL     1      45.614  13.098  31.619  0.00  0.00    +0.105 A 
ATOM     19  C   UNL     1      47.817  15.908  31.891  0.00  0.00    +0.174 C 
ATOM     20  C   UNL     1      46.826  12.491  30.973  0.00  0.00    +0.086 A 
ENDROOT
BRANCH   8   9
ATOM      9  C   UNL     1      44.374  12.469  31.740  0.00  0.00    +0.004 A 
ATOM     10  C   UNL     1      44.038  11.774  30.589  0.00  0.00    +0.010 A 
ATOM     11  C   UNL     1      42.856  11.073  30.477  0.00  0.00    +0.009 A 
ATOM     12  C   UNL     1      41.960  11.074  31.511  0.00  0.00    -0.018 A 
ATOM     13  C   UNL     1      40.788  10.353  31.323  0.00  0.00    +0.008 A 
ATOM     14  C   UNL     1      39.854  10.332  32.354  0.00  0.00    +0.001 A 
ATOM     15  C   UNL     1      40.117  11.012  33.540  0.00  0.00    +0.001 A 
ATOM     16  C   UNL     1      41.307  11.737  33.699  0.00  0.00    +0.008 A 
ATOM     17  C   UNL     1      42.258  11.773  32.690  0.00  0.00    -0.017 A 
ATOM     18  C   UNL     1      43.474  12.495  32.822  0.00  0.00    +0.018 A 
ENDBRANCH   8   9
BRANCH   1  21
ATOM     21  N   UNL     1      46.244  10.242  30.356  0.00  0.00    -0.343 N 
ATOM     22  H   UNL     1      46.521   9.305  29.920  0.00  0.00    +0.144 HD
ATOM     23  H   UNL     1      45.257  10.380  30.745  0.00  0.00    +0.144 HD
ENDBRANCH   1  21
TORSDOF 2
