REMARK  Name = 5KAE
REMARK  7 active torsions:
REMARK  status: ('A' for Active; 'I' for Inactive)
REMARK    1  A    between atoms: C_7  and  C_9
REMARK    2  A    between atoms: C_10  and  C_11
REMARK    3  A    between atoms: C_25  and  C_26
REMARK    4  A    between atoms: C_26  and  C_27
REMARK    5  A    between atoms: C_26  and  N_28
REMARK    6  A    between atoms: C_33  and  N_34
REMARK    7  A    between atoms: C_35  and  C_36
REMARK                            x       y       z     vdW  Elec       q    Type
REMARK                         _______ _______ _______ _____ _____    ______ ____
ROOT
ATOM      4  C   UNL     1      18.792  17.751  18.606  0.00  0.00    +0.056 A 
ATOM      5  C   UNL     1      19.256  16.800  17.703  0.00  0.00    +0.016 A 
ATOM      6  C   UNL     1      20.191  15.862  18.135  0.00  0.00    +0.072 A 
ATOM      7  N   UNL     1      20.651  15.868  19.387  0.00  0.00    -0.249 NA
ATOM      8  C   UNL     1      20.226  16.765  20.278  0.00  0.00    +0.074 A 
ATOM     24  C   UNL     1      20.664  14.893  17.260  0.00  0.00    +0.031 A 
ATOM     25  C   UNL     1      20.197  14.854  15.952  0.00  0.00    +0.040 A 
ATOM     26  C   UNL     1      19.261  15.790  15.515  0.00  0.00    +0.124 A 
ATOM     27  F   UNL     1      18.824  15.755  14.243  0.00  0.00    -0.205 F 
ATOM     28  C   UNL     1      18.800  16.758  16.389  0.00  0.00    +0.049 A 
ATOM     29  C   UNL     1      19.310  17.749  19.891  0.00  0.00    +0.018 A 
ENDROOT
BRANCH   4   3
ATOM      1  C   UNL     1      15.618  19.817  17.885  0.00  0.00    +0.123 C 
ATOM      2  N   UNL     1      16.484  18.672  18.199  0.00  0.00    -0.295 N 
ATOM      3  C   UNL     1      17.790  18.852  18.236  0.00  0.00    +0.248 C 
ATOM     36  O   UNL     1      18.223  19.975  17.969  0.00  0.00    -0.270 OA
ATOM     37  C   UNL     1      15.854  17.397  18.551  0.00  0.00    +0.123 C 
ATOM     38  C   UNL     1      14.848  17.644  19.686  0.00  0.00    +0.100 C 
ATOM     39  N   UNL     1      13.921  18.709  19.263  0.00  0.00    -0.313 NA
ATOM     40  H   UNL     1      13.452  18.426  18.344  0.00  0.00    +0.122 HD
ATOM     41  C   UNL     1      14.660  19.974  19.065  0.00  0.00    +0.100 C 
ENDBRANCH   4   3
BRANCH  29  30
ATOM     30  C   UNL     1      18.821  18.665  20.811  0.00  0.00    -0.015 A 
ATOM     31  C   UNL     1      17.771  18.207  21.612  0.00  0.00    +0.008 A 
ATOM     32  C   UNL     1      17.209  19.026  22.581  0.00  0.00    +0.001 A 
ATOM     33  C   UNL     1      17.685  20.324  22.736  0.00  0.00    +0.000 A 
ATOM     34  C   UNL     1      18.727  20.785  21.931  0.00  0.00    +0.001 A 
ATOM     35  C   UNL     1      19.300  19.956  20.963  0.00  0.00    +0.008 A 
ENDBRANCH  29  30
BRANCH   8   9
ATOM      9  C   UNL     1      20.799  16.743  21.705  0.00  0.00    +0.153 C 
ATOM     23  C   UNL     1      21.841  17.862  21.721  0.00  0.00    +0.039 C 
BRANCH   9  10
ATOM     10  N   UNL     1      21.451  15.454  22.036  0.00  0.00    -0.255 NA
ATOM     11  C   UNL     1      20.814  14.416  22.567  0.00  0.00    +0.171 A 
ATOM     12  C   UNL     1      21.474  13.254  22.977  0.00  0.00    +0.133 A 
ATOM     15  C   UNL     1      20.724  12.208  23.520  0.00  0.00    +0.116 A 
ATOM     19  N   UNL     1      19.397  12.326  23.647  0.00  0.00    -0.334 N 
ATOM     20  H   UNL     1      18.819  11.531  24.071  0.00  0.00    +0.168 HD
ATOM     21  C   UNL     1      18.808  13.443  23.239  0.00  0.00    +0.200 A 
ATOM     22  N   UNL     1      19.492  14.465  22.716  0.00  0.00    -0.218 NA
BRANCH  15  16
ATOM     16  N   UNL     1      21.303  11.090  23.912  0.00  0.00    -0.344 N 
ATOM     17  H   UNL     1      22.363  10.975  23.819  0.00  0.00    +0.144 HD
ATOM     18  H   UNL     1      20.713  10.297  24.323  0.00  0.00    +0.144 HD
ENDBRANCH  15  16
BRANCH  12  13
ATOM     13  C   UNL     1      22.891  13.114  22.847  0.00  0.00    +0.106 C 
ATOM     14  N   UNL     1      24.017  12.978  22.754  0.00  0.00    -0.191 NA
ENDBRANCH  12  13
ENDBRANCH   9  10
ENDBRANCH   8   9
TORSDOF 6
