REMARK  Name = 3nuu_ligand
REMARK  0 active torsions:
REMARK  status: ('A' for Active; 'I' for Inactive)
REMARK                            x       y       z     vdW  Elec       q    Type
REMARK                         _______ _______ _______ _____ _____    ______ ____
ROOT
ATOM      1  C   UNL     1     -39.229  16.026  13.380  0.00  0.00    +0.017 A 
ATOM      2  C   UNL     1     -39.493  17.347  13.669  0.00  0.00    -0.006 A 
ATOM      3  C   UNL     1     -40.612  17.950  13.136  0.00  0.00    -0.001 A 
ATOM      4  C   UNL     1     -41.467  17.236  12.316  0.00  0.00    +0.003 A 
ATOM      5  C   UNL     1     -41.207  15.910  12.028  0.00  0.00    -0.021 A 
ATOM      6  C   UNL     1     -42.122  15.138  11.145  0.00  0.00    +0.097 C 
ATOM      7  C   UNL     1     -42.130  13.692  11.575  0.00  0.00    +0.149 C 
ATOM      8  N   UNL     1     -40.791  13.171  11.730  0.00  0.00    -0.285 N 
ATOM      9  H   UNL     1     -40.602  12.237  11.427  0.00  0.00    +0.184 HD
ATOM     10  C   UNL     1     -39.765  13.906  12.277  0.00  0.00    +0.200 C 
ATOM     11  O   UNL     1     -38.641  13.485  12.523  0.00  0.00    -0.389 OA
ATOM     12  C   UNL     1     -40.085  15.318  12.566  0.00  0.00    +0.051 A 
ENDROOT
TORSDOF 0
