REMARK  Name = 3nlb_ligand
REMARK  8 active torsions:
REMARK  status: ('A' for Active; 'I' for Inactive)
REMARK    1  A    between atoms: C2_2  and  C3_3
REMARK    2  A    between atoms: C4_4  and  C9_9
REMARK    3  A    between atoms: C5_5  and  C8_8
REMARK    4  A    between atoms: N11_11  and  C12_12
REMARK    5  A    between atoms: N14_14  and  C28_28
REMARK    6  A    between atoms: C22_22  and  C25_25
REMARK    7  A    between atoms: C25_25  and  C26_26
REMARK    8  A    between atoms: C25_25  and  C27_27
REMARK                            x       y       z     vdW  Elec       q    Type
REMARK                         _______ _______ _______ _____ _____    ______ ____
ROOT
ATOM     11  C   UNL     1       4.707  -3.297  18.692  0.00  0.00    +0.079 A 
ATOM     12  C   UNL     1       5.778  -2.430  18.888  0.00  0.00    +0.093 A 
ATOM     13  C   UNL     1       7.213  -2.606  18.378  0.00  0.00    +0.144 C 
ATOM     14  N   UNL     1       5.383  -1.394  19.631  0.00  0.00    -0.204 N 
ATOM     15  H   UNL     1       5.973  -0.615  19.924  0.00  0.00    +0.262 HD
ATOM     16  N   UNL     1       4.169  -1.534  19.911  0.00  0.00    -0.202 NA
ATOM     17  C   UNL     1       3.670  -2.662  19.327  0.00  0.00    +0.100 A 
ENDROOT
BRANCH  17  18
ATOM     18  C   UNL     1       2.351  -3.124  19.451  0.00  0.00    +0.144 A 
ATOM     19  N   UNL     1       1.774  -4.217  18.923  0.00  0.00    -0.252 N 
ATOM     20  H   UNL     1       2.210  -4.891  18.294  0.00  0.00    +0.229 HD
ATOM     21  C   UNL     1       0.523  -4.250  19.380  0.00  0.00    +0.076 A 
ATOM     22  C   UNL     1      -0.551  -5.138  19.191  0.00  0.00    +0.010 A 
ATOM     23  C   UNL     1      -1.765  -4.899  19.861  0.00  0.00    -0.021 A 
ATOM     24  C   UNL     1      -1.912  -3.791  20.703  0.00  0.00    -0.055 A 
ATOM     28  C   UNL     1      -0.852  -2.920  20.866  0.00  0.00    -0.013 A 
ATOM     29  C   UNL     1       0.352  -3.137  20.190  0.00  0.00    +0.025 A 
ATOM     30  N   UNL     1       1.480  -2.460  20.203  0.00  0.00    -0.308 NA
BRANCH  24  25
ATOM     25  C   UNL     1      -3.220  -3.441  21.463  0.00  0.00    +0.025 C 
ATOM     26  C   UNL     1      -4.491  -3.454  20.597  0.00  0.00    +0.021 C 
ATOM     27  C   UNL     1      -3.326  -4.364  22.709  0.00  0.00    +0.021 C 
ENDBRANCH  24  25
ENDBRANCH  17  18
BRANCH  11   9
ATOM      7  N   UNL     1       3.712  -5.226  17.500  0.00  0.00    -0.289 N 
ATOM      8  H   UNL     1       2.821  -4.943  17.909  0.00  0.00    +0.183 HD
ATOM      9  C   UNL     1       4.807  -4.565  17.818  0.00  0.00    +0.179 C 
ATOM     10  O   UNL     1       5.905  -4.848  17.321  0.00  0.00    -0.405 OA
BRANCH   7   6
ATOM      1  C   UNL     1       3.730  -6.951  14.055  0.00  0.00    -0.108 C 
ATOM      2  N   UNL     1       2.536  -7.815  14.290  0.00  0.00    +0.401 NA
ATOM      3  C   UNL     1       2.423  -8.908  13.261  0.00  0.00    -0.131 C 
ATOM      4  C   UNL     1       2.576  -8.438  15.631  0.00  0.00    -0.108 C 
ATOM      5  C   UNL     1       2.549  -7.331  16.755  0.00  0.00    +0.005 C 
ATOM      6  C   UNL     1       3.748  -6.378  16.556  0.00  0.00    +0.092 C 
ATOM     31  C   UNL     1       3.726  -5.837  15.100  0.00  0.00    +0.005 C 
ENDBRANCH   7   6
ENDBRANCH  11   9
TORSDOF 4
