REMARK  Name = 4hcu_ligand
REMARK  9 active torsions:
REMARK  status: ('A' for Active; 'I' for Inactive)
REMARK    1  A    between atoms: C13_5  and  C29_29
REMARK    2  A    between atoms: C18_9  and  C12_19
REMARK    3  A    between atoms: C19_11  and  C28_28
REMARK    4  A    between atoms: C26_12  and  C29_29
REMARK    5  A    between atoms: C11_18  and  C15_21
REMARK    6  A    between atoms: C14_20  and  N36_36
REMARK    7  A    between atoms: C24_25  and  N33_33
REMARK    8  A    between atoms: C25_26  and  C28_28
REMARK    9  A    between atoms: C27_27  and  C29_29
REMARK                            x       y       z     vdW  Elec       q    Type
REMARK                         _______ _______ _______ _____ _____    ______ ____
ROOT
ATOM     18  C   UNL     1       2.858   6.297  21.363  0.00  0.00    +0.075 A 
ATOM     19  N   UNL     1       4.144   6.691  21.396  0.00  0.00    -0.192 NA
ATOM     20  N   UNL     1       4.704   5.998  22.416  0.00  0.00    -0.177 N 
ATOM     31  C   UNL     1       3.829   5.135  23.017  0.00  0.00    +0.164 A 
ATOM     32  N   UNL     1       4.076   4.311  24.041  0.00  0.00    -0.267 NA
ATOM     33  C   UNL     1       2.979   3.617  24.399  0.00  0.00    +0.160 A 
ATOM     34  N   UNL     1       1.736   3.734  23.898  0.00  0.00    -0.266 NA
ATOM     35  C   UNL     1       1.530   4.597  22.888  0.00  0.00    +0.128 A 
ATOM     36  N   UNL     1       0.248   4.710  22.349  0.00  0.00    -0.313 N 
ATOM     37  H   UNL     1      -0.516   4.152  22.729  0.00  0.00    +0.184 HD
ATOM     38  H   UNL     1       0.075   5.351  21.575  0.00  0.00    +0.184 HD
ATOM     39  C   UNL     1       2.608   5.344  22.397  0.00  0.00    +0.088 A 
ENDROOT
BRANCH  20  21
ATOM     21  C   UNL     1       6.144   6.060  22.667  0.00  0.00    +0.170 C 
ATOM     22  C   UNL     1       6.793   5.105  21.663  0.00  0.00    +0.176 C 
ATOM     23  N   UNL     1       8.233   5.182  21.784  0.00  0.00    -0.270 N 
ATOM     24  C   UNL     1       8.770   6.514  21.536  0.00  0.00    +0.139 C 
ATOM     25  C   UNL     1       8.233   7.492  22.578  0.00  0.00    +0.028 C 
ATOM     26  C   UNL     1       8.907   4.139  22.399  0.00  0.00    +0.178 C 
ATOM     27  O   UNL     1       8.378   3.179  22.965  0.00  0.00    -0.397 OA
ATOM     30  C   UNL     1       6.699   7.480  22.579  0.00  0.00    +0.042 C 
BRANCH  26  28
ATOM     28  C   UNL     1      10.408   4.228  22.356  0.00  0.00    +0.135 C 
ATOM     29  C   UNL     1      10.952   3.656  21.066  0.00  0.00    +0.028 C 
ENDBRANCH  26  28
ENDBRANCH  20  21
BRANCH  18  17
ATOM     13  C   UNL     1       1.413   8.610  18.789  0.00  0.00    +0.056 A 
ATOM     14  C   UNL     1       0.524   7.781  18.109  0.00  0.00    +0.024 A 
ATOM     15  C   UNL     1       0.359   6.476  18.538  0.00  0.00    +0.006 A 
ATOM     16  C   UNL     1       1.105   5.995  19.601  0.00  0.00    +0.015 A 
ATOM     17  C   UNL     1       1.999   6.814  20.293  0.00  0.00    -0.002 A 
ATOM     40  C   UNL     1       2.151   8.121  19.859  0.00  0.00    +0.033 A 
BRANCH  13  11
ATOM      9  N   UNL     1       1.417  10.264  17.019  0.00  0.00    -0.237 N 
ATOM     10  H   UNL     1       1.077   9.490  16.448  0.00  0.00    +0.223 HD
ATOM     11  C   UNL     1       1.618  10.010  18.351  0.00  0.00    +0.231 C 
ATOM     12  O   UNL     1       1.965  10.878  19.140  0.00  0.00    -0.374 OA
BRANCH   9   8
ATOM      1  C   UNL     1       2.582  12.700  14.514  0.00  0.00    -0.021 A 
ATOM      2  C   UNL     1       2.065  13.889  14.986  0.00  0.00    -0.055 A 
ATOM      6  C   UNL     1       1.333  13.882  16.158  0.00  0.00    -0.021 A 
ATOM      7  C   UNL     1       1.125  12.694  16.837  0.00  0.00    +0.002 A 
ATOM      8  C   UNL     1       1.638  11.508  16.354  0.00  0.00    +0.059 A 
ATOM     41  C   UNL     1       2.368  11.508  15.183  0.00  0.00    +0.002 A 
BRANCH   2   3
ATOM      3  C   UNL     1       2.348  15.130  14.172  0.00  0.00    +0.023 C 
ATOM      4  C   UNL     1       1.315  15.330  13.066  0.00  0.00    +0.021 C 
ATOM      5  C   UNL     1       2.536  16.392  14.979  0.00  0.00    +0.021 C 
ENDBRANCH   2   3
ENDBRANCH   9   8
ENDBRANCH  13  11
ENDBRANCH  18  17
TORSDOF 6
