REMARK  Name = 5EQP
REMARK  3 active torsions:
REMARK  status: ('A' for Active; 'I' for Inactive)
REMARK    1  A    between atoms: N_1  and  C_8
REMARK    2  A    between atoms: N_7  and  C_9
REMARK    3  A    between atoms: C_9  and  C_10
REMARK                            x       y       z     vdW  Elec       q    Type
REMARK                         _______ _______ _______ _____ _____    ______ ____
ROOT
ATOM      8  C   UNL     1      16.653  76.011  59.560  0.00  0.00    -0.033 A 
ATOM      9  C   UNL     1      17.168  76.754  58.517  0.00  0.00    +0.015 A 
ATOM     10  C   UNL     1      16.399  77.040  57.400  0.00  0.00    +0.001 A 
ATOM     11  C   UNL     1      16.945  77.775  56.368  0.00  0.00    +0.011 A 
ATOM     12  C   UNL     1      16.156  78.051  55.268  0.00  0.00    +0.020 A 
ATOM     13  C   UNL     1      14.867  77.558  55.242  0.00  0.00    +0.111 A 
ATOM     14  N   UNL     1      14.316  76.836  56.230  0.00  0.00    -0.255 NA
ATOM     15  C   UNL     1      15.088  76.568  57.295  0.00  0.00    +0.071 A 
ATOM     16  C   UNL     1      14.576  75.828  58.355  0.00  0.00    +0.028 A 
ATOM     17  C   UNL     1      15.347  75.547  59.471  0.00  0.00    +0.007 A 
ENDROOT
BRANCH   8   7
ATOM      7  C   UNL     1      17.484  75.703  60.768  0.00  0.00    +0.119 C 
BRANCH   7   6
ATOM      1  N   UNL     1      18.327  71.143  60.924  0.00  0.00    -0.304 NA
ATOM      2  C   UNL     1      19.760  70.921  60.765  0.00  0.00    +0.105 C 
ATOM      3  C   UNL     1      17.998  71.546  62.297  0.00  0.00    +0.085 C 
ATOM      4  C   UNL     1      18.680  72.847  62.733  0.00  0.00    +0.031 C 
ATOM      5  C   UNL     1      17.803  74.082  62.507  0.00  0.00    +0.086 C 
ATOM      6  N   UNL     1      17.448  74.290  61.101  0.00  0.00    -0.297 NA
ATOM     18  C   UNL     1      18.331  73.538  60.208  0.00  0.00    +0.100 C 
ATOM     19  C   UNL     1      17.830  72.112  59.947  0.00  0.00    +0.099 C 
ENDBRANCH   7   6
ENDBRANCH   8   7
TORSDOF 2
