REMARK  Name = F3W
REMARK  4 active torsions:
REMARK  status: ('A' for Active; 'I' for Inactive)
REMARK    1  A    between atoms: C7_5  and  C8_6
REMARK    2  A    between atoms: N2_7  and  C17_23
REMARK    3  A    between atoms: C10_9  and  C13_13
REMARK    4  A    between atoms: C14_14  and  C15_15
REMARK                            x       y       z     vdW  Elec       q    Type
REMARK                         _______ _______ _______ _____ _____    ______ ____
ROOT
ATOM      1  C   UNL     1      43.829  -0.422  67.607  0.00  0.00    +0.256 C 
ATOM      2  N   UNL     1      43.510   0.461  68.554  0.00  0.00    -0.032 NA
ATOM      3  C   UNL     1      42.223   0.871  68.536  0.00  0.00    +0.361 C 
ATOM      4  N   UNL     1      41.617   1.669  69.452  0.00  0.00    -0.034 NA
ATOM      5  C   UNL     1      40.279   1.801  69.169  0.00  0.00    +0.232 C 
ATOM      6  C   UNL     1      39.971   1.110  68.045  0.00  0.00    +0.042 C 
ATOM      7  C   UNL     1      41.180   0.480  67.607  0.00  0.00    +0.177 C 
ATOM      8  C   UNL     1      41.592  -0.451  66.627  0.00  0.00    +0.076 A 
ATOM      9  N   UNL     1      41.048  -1.144  65.520  0.00  0.00    -0.316 N 
ATOM     16  C   UNL     1      42.073  -1.903  64.986  0.00  0.00    +0.144 A 
ATOM     17  N   UNL     1      43.204  -1.766  65.643  0.00  0.00    -0.223 NA
ATOM     28  C   UNL     1      42.926  -0.877  66.663  0.00  0.00    +0.142 A 
ENDROOT
BRANCH   9  10
ATOM     10  C   UNL     1      39.634  -1.091  65.083  0.00  0.00    +0.087 C 
ATOM     11  C   UNL     1      38.691  -1.693  66.121  0.00  0.00    +0.023 C 
ATOM     12  C   UNL     1      37.221  -1.570  65.716  0.00  0.00    +0.002 C 
ATOM     13  C   UNL     1      36.882  -0.158  65.307  0.00  0.00    +0.000 C 
ATOM     14  C   UNL     1      37.778   0.317  64.189  0.00  0.00    +0.002 C 
ATOM     15  C   UNL     1      39.241   0.302  64.617  0.00  0.00    +0.023 C 
ENDBRANCH   9  10
BRANCH  16  18
ATOM     18  C   UNL     1      41.975  -2.804  63.826  0.00  0.00    +0.034 A 
ATOM     19  C   UNL     1      40.972  -3.757  63.651  0.00  0.00    +0.003 A 
ATOM     20  C   UNL     1      41.000  -4.646  62.570  0.00  0.00    +0.001 A 
ATOM     25  C   UNL     1      42.078  -4.588  61.684  0.00  0.00    +0.000 A 
ATOM     26  C   UNL     1      43.078  -3.650  61.858  0.00  0.00    +0.000 A 
ATOM     27  C   UNL     1      43.022  -2.755  62.913  0.00  0.00    +0.003 A 
BRANCH  20  21
ATOM     21  C   UNL     1      39.953  -5.652  62.387  0.00  0.00    +0.011 C 
ATOM     22  C   UNL     1      39.992  -6.571  61.429  0.00  0.00    +0.078 C 
BRANCH  22  23
ATOM     23  C   UNL     1      38.964  -7.544  61.340  0.00  0.00    +0.101 C 
ATOM     24  N   UNL     1      38.162  -8.343  61.256  0.00  0.00    -0.191 NA
ENDBRANCH  22  23
ENDBRANCH  20  21
ENDBRANCH  16  18
TORSDOF 4
