REMARK  Name = 2ydi_ligand
REMARK  9 active torsions:
REMARK  status: ('A' for Active; 'I' for Inactive)
REMARK    1  A    between atoms: C02_2  and  N06_6
REMARK    2  A    between atoms: C03_3  and  C10_10
REMARK    3  A    between atoms: C05_5  and  C19_17
REMARK    4  A    between atoms: C14_13  and  N15_14
REMARK    5  A    between atoms: N15_14  and  C16_15
REMARK    6  A    between atoms: N15_14  and  C2_21
REMARK    7  A    between atoms: C16_15  and  C17_16
REMARK    8  A    between atoms: C17_16  and  O1_24
REMARK    9  A    between atoms: C22_20  and  O1_24
REMARK                            x       y       z     vdW  Elec       q    Type
REMARK                         _______ _______ _______ _____ _____    ______ ____
ROOT
ATOM      1  S   UNL     1       2.704  -3.227  19.948  0.00  0.00    -0.005 S 
ATOM      2  C   UNL     1       1.562  -4.423  19.505  0.00  0.00    +0.014 A 
ATOM     16  C   UNL     1       2.178  -5.359  18.691  0.00  0.00    -0.035 A 
ATOM     17  C   UNL     1       3.557  -5.127  18.434  0.00  0.00    +0.054 A 
ATOM     23  C   UNL     1       3.991  -3.974  19.066  0.00  0.00    +0.159 A 
ENDROOT
BRANCH  23  24
ATOM     24  N   UNL     1       5.289  -3.465  19.010  0.00  0.00    -0.191 N 
ATOM     25  H   UNL     1       6.008  -4.014  18.583  0.00  0.00    +0.243 HD
ATOM     26  C   UNL     1       5.610  -2.228  19.525  0.00  0.00    +0.298 C 
ATOM     27  O   UNL     1       4.858  -1.575  20.245  0.00  0.00    -0.386 OA
ATOM     28  N   UNL     1       6.854  -1.792  19.161  0.00  0.00    -0.279 N 
ATOM     29  H   UNL     1       7.431  -2.360  18.575  0.00  0.00    +0.182 HD
ATOM     30  H   UNL     1       7.186  -0.905  19.481  0.00  0.00    +0.182 HD
ENDBRANCH  23  24
BRANCH   2   3
ATOM      3  C   UNL     1       0.187  -4.328  19.961  0.00  0.00    -0.037 A 
ATOM      4  C   UNL     1      -0.722  -5.282  19.553  0.00  0.00    -0.016 A 
ATOM      5  C   UNL     1      -2.038  -5.208  19.946  0.00  0.00    +0.015 A 
ATOM      6  C   UNL     1      -2.460  -4.166  20.744  0.00  0.00    +0.087 A 
ATOM     14  C   UNL     1      -1.570  -3.193  21.162  0.00  0.00    +0.015 A 
ATOM     15  C   UNL     1      -0.248  -3.288  20.762  0.00  0.00    -0.016 A 
BRANCH   6   7
ATOM      7  O   UNL     1      -3.804  -4.180  21.082  0.00  0.00    -0.316 OA
BRANCH   7   8
ATOM      8  C   UNL     1      -4.097  -3.041  21.877  0.00  0.00    +0.243 C 
BRANCH   8   9
ATOM      9  C   UNL     1      -5.599  -2.870  21.920  0.00  0.00    +0.164 C 
BRANCH   9  10
ATOM     10  N   UNL     1      -6.070  -2.840  20.513  0.00  0.00    +0.233 N 
ATOM     11  H   UNL     1      -5.342  -3.259  19.956  0.00  0.00    +0.203 HD
ATOM     12  C   UNL     1      -6.248  -1.457  20.008  0.00  0.00    +0.190 C 
ATOM     13  C   UNL     1      -7.282  -3.661  20.314  0.00  0.00    +0.190 C 
ENDBRANCH   9  10
ENDBRANCH   8   9
ENDBRANCH   7   8
ENDBRANCH   6   7
ENDBRANCH   2   3
BRANCH  17  18
ATOM     18  C   UNL     1       4.451  -5.924  17.623  0.00  0.00    +0.168 C 
ATOM     19  N   UNL     1       3.828  -6.981  16.992  0.00  0.00    -0.308 N 
ATOM     20  H   UNL     1       2.848  -7.133  17.120  0.00  0.00    +0.179 HD
ATOM     21  H   UNL     1       4.356  -7.596  16.406  0.00  0.00    +0.179 HD
ATOM     22  O   UNL     1       5.637  -5.648  17.490  0.00  0.00    -0.410 OA
ENDBRANCH  17  18
TORSDOF 7
