REMARK  Name = 4NFN
REMARK  6 active torsions:
REMARK  status: ('A' for Active; 'I' for Inactive)
REMARK    1  A    between atoms: N_1  and  C_16
REMARK    2  A    between atoms: C_4  and  C_25
REMARK    3  A    between atoms: C_4  and  N_26
REMARK    4  A    between atoms: C_12  and  C_16
REMARK    5  A    between atoms: N_15  and  C_18
REMARK    6  A    between atoms: C_20  and  O_24
REMARK                            x       y       z     vdW  Elec       q    Type
REMARK                         _______ _______ _______ _____ _____    ______ ____
ROOT
ATOM      3  C   UNL     1       7.731  22.643  25.232  0.00  0.00    -0.018 C 
ATOM      4  C   UNL     1       6.667  22.806  26.167  0.00  0.00    +0.002 C 
ATOM      5  C   UNL     1       5.826  21.751  26.091  0.00  0.00    +0.143 C 
ATOM      6  N   UNL     1       6.334  20.893  25.094  0.00  0.00    -0.218 N 
ATOM      7  N   UNL     1       5.820  19.699  24.671  0.00  0.00    -0.143 NA
ATOM      8  C   UNL     1       6.548  19.094  23.720  0.00  0.00    +0.382 C 
ATOM      9  N   UNL     1       7.681  19.532  23.157  0.00  0.00    -0.030 NA
ATOM     10  C   UNL     1       8.167  20.691  23.587  0.00  0.00    +0.326 C 
ATOM     11  N   UNL     1       9.356  21.104  23.069  0.00  0.00    -0.202 N 
ATOM     12  H   UNL     1       9.909  21.790  23.563  0.00  0.00    +0.298 HD
ATOM     22  C   UNL     1       7.532  21.466  24.582  0.00  0.00    +0.215 C 
ENDROOT
BRANCH  11  13
ATOM     13  C   UNL     1       9.967  20.622  21.900  0.00  0.00    +0.123 A 
ATOM     14  C   UNL     1       9.189  20.333  20.786  0.00  0.00    +0.064 A 
ATOM     15  C   UNL     1       9.790  19.793  19.677  0.00  0.00    +0.025 A 
ATOM     16 BR   UNL     1       8.701  19.417  18.159  0.00  0.00    -0.050 Br
ATOM     17  C   UNL     1      11.153  19.549  19.628  0.00  0.00    +0.061 A 
ATOM     18  C   UNL     1      11.926  19.884  20.734  0.00  0.00    +0.122 A 
ATOM     21  C   UNL     1      11.342  20.412  21.871  0.00  0.00    +0.094 A 
BRANCH  18  19
ATOM     19  O   UNL     1      13.288  19.774  20.717  0.00  0.00    -0.507 OA
ATOM     20  H   UNL     1      13.578  19.396  19.848  0.00  0.00    +0.292 HD
ENDBRANCH  18  19
ENDBRANCH  11  13
BRANCH   3   2
ATOM      2  C   UNL     1       8.797  23.679  25.008  0.00  0.00    +0.117 C 
BRANCH   2   1
ATOM      1  N   UNL     1      10.172  23.157  24.997  0.00  0.00    -0.298 NA
ATOM     23  C   UNL     1      11.123  24.264  24.830  0.00  0.00    +0.086 C 
ATOM     24  C   UNL     1      12.551  23.755  24.763  0.00  0.00    +0.037 C 
ATOM     25  C   UNL     1      12.942  22.953  26.011  0.00  0.00    +0.016 C 
ATOM     29  C   UNL     1      13.047  23.850  27.270  0.00  0.00    +0.027 C 
ATOM     30  C   UNL     1      11.882  21.870  26.222  0.00  0.00    +0.037 C 
ATOM     31  C   UNL     1      10.481  22.459  26.250  0.00  0.00    +0.086 C 
BRANCH  25  26
ATOM     26  N   UNL     1      14.305  22.335  25.763  0.00  0.00    -0.325 NA
ATOM     27  H   UNL     1      14.507  22.168  24.783  0.00  0.00    +0.119 HD
ATOM     28  H   UNL     1      15.089  22.794  26.216  0.00  0.00    +0.119 HD
ENDBRANCH  25  26
ENDBRANCH   2   1
ENDBRANCH   3   2
TORSDOF 5
