REMARK  Name = 5F9E
REMARK  5 active torsions:
REMARK  status: ('A' for Active; 'I' for Inactive)
REMARK    1  A    between atoms: C_4  and  N_23
REMARK    2  A    between atoms: C_5  and  C_19
REMARK    3  A    between atoms: C_10  and  C_11
REMARK    4  A    between atoms: C_11  and  C_12
REMARK    5  A    between atoms: N_18  and  C_19
REMARK                            x       y       z     vdW  Elec       q    Type
REMARK                         _______ _______ _______ _____ _____    ______ ____
ROOT
ATOM      1  C   UNL     1      27.571  75.942  26.111  0.00  0.00    +0.247 C 
ATOM      2  O   UNL     1      27.365  75.035  25.341  0.00  0.00    -0.270 OA
ATOM      3  N   UNL     1      28.536  76.790  25.760  0.00  0.00    -0.291 N 
ATOM      4  H   UNL     1      29.053  76.628  24.837  0.00  0.00    +0.151 HD
ATOM      5  C   UNL     1      28.913  77.924  26.581  0.00  0.00    +0.096 C 
ATOM      6  N   UNL     1      27.852  78.346  27.525  0.00  0.00    -0.304 N 
ATOM     14  C   UNL     1      26.946  77.400  28.042  0.00  0.00    +0.046 A 
ATOM     15  C   UNL     1      26.202  77.628  29.186  0.00  0.00    +0.050 A 
ATOM     16  C   UNL     1      25.279  76.679  29.648  0.00  0.00    +0.053 A 
ATOM     28  C   UNL     1      25.129  75.471  28.966  0.00  0.00    +0.027 A 
ATOM     29  C   UNL     1      25.871  75.211  27.838  0.00  0.00    +0.017 A 
ATOM     30  C   UNL     1      29.340  79.122  25.680  0.00  0.00    +0.053 C 
ATOM     31  C   UNL     1      30.124  77.407  27.308  0.00  0.00    +0.053 C 
ATOM     32  C   UNL     1      26.778  76.172  27.355  0.00  0.00    +0.058 A 
ENDROOT
BRANCH  16  17
ATOM     17  N   UNL     1      24.565  76.952  30.825  0.00  0.00    -0.259 N 
ATOM     18  C   UNL     1      24.240  76.059  31.805  0.00  0.00    +0.333 A 
ATOM     19  O   UNL     1      24.501  74.868  31.794  0.00  0.00    -0.246 OA
ATOM     20  N   UNL     1      23.571  76.681  32.803  0.00  0.00    -0.290 N 
ATOM     21  H   UNL     1      23.194  76.215  33.689  0.00  0.00    +0.172 HD
ATOM     22  C   UNL     1      23.455  78.040  32.479  0.00  0.00    +0.159 A 
ATOM     23  N   UNL     1      22.894  79.079  33.111  0.00  0.00    -0.236 NA
ATOM     24  C   UNL     1      22.899  80.308  32.577  0.00  0.00    +0.113 A 
ATOM     25  C   UNL     1      23.498  80.535  31.335  0.00  0.00    +0.022 A 
ATOM     26  C   UNL     1      24.098  79.466  30.651  0.00  0.00    +0.031 A 
ATOM     27  C   UNL     1      24.077  78.213  31.223  0.00  0.00    +0.094 A 
ENDBRANCH  16  17
BRANCH   6   7
ATOM      7  C   UNL     1      27.970  79.726  28.014  0.00  0.00    +0.142 C 
BRANCH   7   8
ATOM      8  C   UNL     1      26.753  80.615  27.986  0.00  0.00    -0.030 A 
ATOM      9  C   UNL     1      26.732  81.693  28.870  0.00  0.00    +0.005 A 
ATOM     10  C   UNL     1      25.635  82.546  28.884  0.00  0.00    +0.000 A 
ATOM     11  C   UNL     1      24.582  82.316  28.017  0.00  0.00    +0.000 A 
ATOM     12  C   UNL     1      24.602  81.236  27.145  0.00  0.00    +0.000 A 
ATOM     13  C   UNL     1      25.703  80.385  27.135  0.00  0.00    +0.005 A 
ENDBRANCH   7   8
ENDBRANCH   6   7
TORSDOF 3
