REMARK  Name = 4pv0_ligand
REMARK  9 active torsions:
REMARK  status: ('A' for Active; 'I' for Inactive)
REMARK    1  A    between atoms: C16_2  and  C7_4
REMARK    2  A    between atoms: C2_9  and  N1_10
REMARK    3  A    between atoms: C8_11  and  C15_13
REMARK    4  A    between atoms: C12_17  and  C24_19
REMARK    5  A    between atoms: N28_28  and  C33_29
REMARK    6  A    between atoms: C29_31  and  O36_32
REMARK    7  A    between atoms: O36_32  and  C37_33
REMARK    8  A    between atoms: C30_36  and  O35_37
REMARK    9  A    between atoms: O35_37  and  C38_38
REMARK                            x       y       z     vdW  Elec       q    Type
REMARK                         _______ _______ _______ _____ _____    ______ ____
ROOT
ATOM     13  C   UNL     1       3.109   1.286  13.308  0.00  0.00    +0.084 A 
ATOM     14  N   UNL     1       2.188   0.403  13.857  0.00  0.00    -0.231 NA
ATOM     15  C   UNL     1       2.501  -0.448  14.882  0.00  0.00    +0.244 A 
ATOM     16  N   UNL     1       1.585  -1.366  15.492  0.00  0.00    -0.223 N 
ATOM     17  H   UNL     1       2.034  -1.937  16.222  0.00  0.00    +0.250 HD
ATOM     28  C   UNL     1       3.806  -0.362  15.323  0.00  0.00    +0.237 A 
ATOM     29  N   UNL     1       4.692   0.500  14.771  0.00  0.00    -0.289 N 
ATOM     30  C   UNL     1       5.830   0.370  15.419  0.00  0.00    +0.094 A 
ATOM     31  C   UNL     1       5.661  -0.588  16.380  0.00  0.00    +0.191 A 
ATOM     32  N   UNL     1       4.397  -1.037  16.329  0.00  0.00    -0.223 N 
ATOM     33  H   UNL     1       3.967  -1.751  16.934  0.00  0.00    +0.251 HD
ATOM     34  C   UNL     1       4.394   1.342  13.797  0.00  0.00    +0.134 A 
ENDROOT
BRANCH  13  12
ATOM     10  C   UNL     1       0.893   3.335  11.112  0.00  0.00    +0.063 A 
ATOM     11  C   UNL     1       1.321   2.514  12.134  0.00  0.00    +0.048 A 
ATOM     12  C   UNL     1       2.653   2.170  12.201  0.00  0.00    +0.017 A 
ATOM     35  C   UNL     1       3.539   2.673  11.260  0.00  0.00    +0.029 A 
ATOM     36  C   UNL     1       3.097   3.498  10.247  0.00  0.00    +0.015 A 
ATOM     37  C   UNL     1       1.769   3.832  10.170  0.00  0.00    +0.036 A 
BRANCH  10   9
ATOM      7  N   UNL     1      -1.178   4.115  12.152  0.00  0.00    -0.231 N 
ATOM      8  H   UNL     1      -0.643   4.150  12.996  0.00  0.00    +0.227 HD
ATOM      9  C   UNL     1      -0.512   3.691  10.994  0.00  0.00    +0.235 C 
ATOM     38  O   UNL     1      -1.030   3.564   9.895  0.00  0.00    -0.372 OA
BRANCH   7   6
ATOM      3  C   UNL     1      -5.147   5.367  12.547  0.00  0.00    -0.005 A 
ATOM      4  C   UNL     1      -4.831   4.511  11.484  0.00  0.00    +0.000 A 
ATOM      5  C   UNL     1      -3.520   4.070  11.332  0.00  0.00    +0.014 A 
ATOM      6  C   UNL     1      -2.525   4.495  12.237  0.00  0.00    +0.069 A 
ATOM     39  C   UNL     1      -2.862   5.352  13.282  0.00  0.00    +0.014 A 
ATOM     40  C   UNL     1      -4.158   5.782  13.436  0.00  0.00    +0.000 A 
BRANCH   3   2
ATOM      1  O   UNL     1      -6.771   6.809  13.473  0.00  0.00    -0.565 OA
ATOM      2  C   UNL     1      -6.535   5.860  12.729  0.00  0.00    +0.053 C 
ATOM     41  O   UNL     1      -7.562   5.275  12.029  0.00  0.00    -0.565 OA
ENDBRANCH   3   2
ENDBRANCH   7   6
ENDBRANCH  10   9
ENDBRANCH  13  12
BRANCH  16  18
ATOM     18  C   UNL     1       0.223  -1.678  15.337  0.00  0.00    +0.094 A 
ATOM     19  C   UNL     1      -0.437  -2.632  16.116  0.00  0.00    +0.042 A 
ATOM     20  C   UNL     1      -1.798  -2.868  15.895  0.00  0.00    +0.045 A 
ATOM     21  C   UNL     1      -2.482  -2.164  14.904  0.00  0.00    +0.149 A 
ATOM     24  C   UNL     1      -1.840  -1.214  14.132  0.00  0.00    +0.144 A 
ATOM     27  C   UNL     1      -0.505  -1.003  14.354  0.00  0.00    +0.067 A 
BRANCH  21  22
ATOM     22  O   UNL     1      -3.814  -2.379  14.705  0.00  0.00    -0.305 OA
ATOM     23  C   UNL     1      -4.360  -2.725  13.419  0.00  0.00    +0.243 C 
ENDBRANCH  21  22
BRANCH  24  25
ATOM     25  O   UNL     1      -2.562  -0.551  13.146  0.00  0.00    -0.315 OA
ATOM     26  C   UNL     1      -2.219   0.589  12.362  0.00  0.00    +0.234 C 
ENDBRANCH  24  25
ENDBRANCH  16  18
TORSDOF 7
