REMARK  Name = 1agw_ligand
REMARK  2 active torsions:
REMARK  status: ('A' for Active; 'I' for Inactive)
REMARK    1  A    between atoms: C10_30  and  C1'_31
REMARK    2  A    between atoms: C4'_34  and  N4'_42
REMARK                            x       y       z     vdW  Elec       q    Type
REMARK                         _______ _______ _______ _____ _____    ______ ____
ROOT
ATOM     12  C   UNL     1       8.750   4.616  23.254  0.00  0.00    -0.027 A 
ATOM     13  C   UNL     1       9.710   5.470  23.781  0.00  0.00    +0.003 A 
ATOM     14  C   UNL     1      10.461   5.100  24.898  0.00  0.00    +0.016 A 
ATOM     15  C   UNL     1      10.264   3.868  25.513  0.00  0.00    +0.048 A 
ATOM     16  C   UNL     1       9.298   3.017  24.982  0.00  0.00    +0.016 A 
ATOM     25  C   UNL     1       8.548   3.386  23.863  0.00  0.00    +0.003 A 
ENDROOT
BRANCH  12  11
ATOM      1  H   UNL     1       5.200   1.705  20.289  0.00  0.00    +0.225 HD
ATOM      2  N   UNL     1       5.763   2.531  20.322  0.00  0.00    -0.236 N 
ATOM      3  C   UNL     1       6.434   2.994  21.427  0.00  0.00    +0.223 C 
ATOM      4  O   UNL     1       6.373   2.382  22.494  0.00  0.00    -0.377 OA
ATOM      5  C   UNL     1       7.095   4.165  21.131  0.00  0.00    +0.048 C 
ATOM      6  C   UNL     1       6.824   4.424  19.740  0.00  0.00    +0.004 A 
ATOM      7  C   UNL     1       7.197   5.445  18.850  0.00  0.00    -0.014 A 
ATOM      8  C   UNL     1       6.724   5.400  17.547  0.00  0.00    -0.030 A 
ATOM      9  C   UNL     1       5.890   4.356  17.114  0.00  0.00    -0.021 A 
ATOM     10  C   UNL     1       5.517   3.338  17.955  0.00  0.00    +0.007 A 
ATOM     11  C   UNL     1       7.942   5.053  22.036  0.00  0.00    +0.029 C 
ATOM     26  C   UNL     1       5.988   3.383  19.272  0.00  0.00    +0.071 A 
ENDBRANCH  12  11
BRANCH  15  17
ATOM     17  N   UNL     1      11.030   3.489  26.650  0.00  0.00    -0.301 N 
ATOM     18  C   UNL     1      10.669   2.264  27.421  0.00  0.00    +0.157 C 
ATOM     19  C   UNL     1      11.764   1.713  28.306  0.00  0.00    +0.163 C 
ATOM     20  N   UNL     1      12.493   2.711  29.152  0.00  0.00    -0.271 N 
ATOM     21  C   UNL     1      13.263   2.277  30.281  0.00  0.00    +0.327 C 
ATOM     22  O   UNL     1      14.236   2.845  30.785  0.00  0.00    -0.383 OA
ATOM     23  C   UNL     1      12.819   3.991  28.426  0.00  0.00    +0.163 C 
ATOM     24  C   UNL     1      11.751   4.522  27.468  0.00  0.00    +0.157 C 
ENDBRANCH  15  17
TORSDOF 2
