REMARK  Name = 3qgw_ligand
REMARK  4 active torsions:
REMARK  status: ('A' for Active; 'I' for Inactive)
REMARK    1  A    between atoms: C7_7  and  C8_8
REMARK    2  A    between atoms: N19_19  and  C20_20
REMARK    3  A    between atoms: C25_25  and  S26_26
REMARK    4  A    between atoms: S26_26  and  N29_29
REMARK                            x       y       z     vdW  Elec       q    Type
REMARK                         _______ _______ _______ _____ _____    ______ ____
ROOT
ATOM      1  C   UNL     1      18.849  -7.586   4.272  0.00  0.00    +0.120 C 
ATOM      2  C   UNL     1      19.572  -8.620   5.196  0.00  0.00    +0.046 A 
ATOM      3  S   UNL     1      18.882  -9.527   6.525  0.00  0.00    -0.018 S 
ATOM      4  C   UNL     1      20.338 -10.316   6.934  0.00  0.00    +0.032 A 
ATOM     11  C   UNL     1      21.440  -9.942   6.065  0.00  0.00    -0.019 A 
ATOM     12  C   UNL     1      20.982  -8.979   5.087  0.00  0.00    -0.001 A 
ATOM     13  C   UNL     1      21.874  -8.448   4.040  0.00  0.00    +0.036 A 
ATOM     14  N   UNL     1      23.285  -8.879   3.909  0.00  0.00    -0.268 NA
ATOM     15  C   UNL     1      24.003  -8.383   2.824  0.00  0.00    +0.193 A 
ATOM     16  N   UNL     1      25.368  -8.695   2.696  0.00  0.00    -0.247 N 
ATOM     17  H   UNL     1      25.938  -8.153   2.031  0.00  0.00    +0.216 HD
ATOM     30  N   UNL     1      23.422  -7.504   1.914  0.00  0.00    -0.269 NA
ATOM     31  C   UNL     1      22.123  -7.078   2.019  0.00  0.00    +0.087 A 
ATOM     32  C   UNL     1      21.282  -7.462   3.017  0.00  0.00    -0.004 A 
ATOM     33  C   UNL     1      19.819  -6.901   3.153  0.00  0.00    +0.089 C 
ENDROOT
BRANCH   4   5
ATOM      5  C   UNL     1      20.456 -11.231   8.067  0.00  0.00    -0.019 A 
ATOM      6  C   UNL     1      21.701 -11.928   8.368  0.00  0.00    -0.001 A 
ATOM      7  C   UNL     1      21.739 -12.741   9.555  0.00  0.00    -0.005 A 
ATOM      8  C   UNL     1      20.578 -12.879  10.432  0.00  0.00    -0.008 A 
ATOM      9  C   UNL     1      19.362 -12.179  10.107  0.00  0.00    -0.005 A 
ATOM     10  C   UNL     1      19.300 -11.378   8.943  0.00  0.00    -0.001 A 
ENDBRANCH   4   5
BRANCH  16  18
ATOM     18  C   UNL     1      26.016  -9.765   3.474  0.00  0.00    +0.066 A 
ATOM     19  C   UNL     1      27.301 -10.260   3.033  0.00  0.00    +0.015 A 
ATOM     20  C   UNL     1      28.210 -11.170   3.663  0.00  0.00    -0.011 A 
ATOM     21  C   UNL     1      27.758 -11.638   4.923  0.00  0.00    +0.007 A 
ATOM     22  C   UNL     1      26.449 -11.230   5.548  0.00  0.00    +0.098 A 
ATOM     29  C   UNL     1      25.584 -10.275   4.807  0.00  0.00    +0.043 A 
BRANCH  22  23
ATOM     23  S   UNL     1      26.065 -11.856   7.186  0.00  0.00    +0.063 S 
ATOM     27  O   UNL     1      24.807 -12.458   7.150  0.00  0.00    -0.151 OA
ATOM     28  O   UNL     1      27.355 -12.457   7.780  0.00  0.00    -0.151 OA
BRANCH  23  24
ATOM     24  N   UNL     1      25.699 -10.352   8.187  0.00  0.00    -0.261 NA
ATOM     25  H   UNL     1      25.746  -9.447   7.765  0.00  0.00    +0.164 HD
ATOM     26  H   UNL     1      25.453 -10.441   9.152  0.00  0.00    +0.164 HD
ENDBRANCH  23  24
ENDBRANCH  22  23
ENDBRANCH  16  18
TORSDOF 4
