REMARK  Name = 3kf7_ligand
REMARK  6 active torsions:
REMARK  status: ('A' for Active; 'I' for Inactive)
REMARK    1  A    between atoms: C5_5  and  C10_10
REMARK    2  A    between atoms: C7_7  and  C20_20
REMARK    3  A    between atoms: C10_10  and  C11_11
REMARK    4  A    between atoms: C11_11  and  C12_12
REMARK    5  A    between atoms: C22_22  and  C26_26
REMARK    6  A    between atoms: C25_25  and  C29_29
REMARK                            x       y       z     vdW  Elec       q    Type
REMARK                         _______ _______ _______ _____ _____    ______ ____
ROOT
ATOM      1  C   UNL     1      35.048  39.446  19.700  0.00  0.00    +0.048 A 
ATOM      2  C   UNL     1      35.099  38.087  19.432  0.00  0.00    +0.016 A 
ATOM      3  C   UNL     1      34.952  37.097  20.387  0.00  0.00    -0.001 A 
ATOM     14  C   UNL     1      34.720  37.376  21.720  0.00  0.00    +0.202 A 
ATOM     15  N   UNL     1      34.638  38.799  22.079  0.00  0.00    -0.178 N 
ATOM     16  C   UNL     1      34.423  39.394  23.306  0.00  0.00    +0.172 A 
ATOM     29  N   UNL     1      34.432  40.664  23.119  0.00  0.00    -0.266 NA
ATOM     30  N   UNL     1      34.667  40.923  21.797  0.00  0.00    -0.280 NA
ATOM     31  C   UNL     1      34.789  39.755  21.172  0.00  0.00    +0.150 A 
ENDROOT
BRANCH  16  17
ATOM     17  C   UNL     1      34.182  38.819  24.661  0.00  0.00    +0.036 A 
ATOM     18  C   UNL     1      33.100  38.024  24.999  0.00  0.00    -0.028 A 
ATOM     19  C   UNL     1      32.082  37.607  23.975  0.00  0.00    +0.095 C 
ATOM     20  C   UNL     1      32.930  37.615  26.314  0.00  0.00    +0.003 A 
ATOM     21  C   UNL     1      33.824  38.013  27.304  0.00  0.00    +0.016 A 
ATOM     22  C   UNL     1      34.894  38.798  26.941  0.00  0.00    +0.043 A 
ATOM     28  C   UNL     1      35.079  39.197  25.636  0.00  0.00    +0.029 A 
BRANCH  22  23
ATOM     23  C   UNL     1      35.920  39.267  27.901  0.00  0.00    +0.198 C 
ATOM     24  O   UNL     1      36.769  40.065  27.517  0.00  0.00    -0.388 OA
ATOM     25  N   UNL     1      35.807  38.743  29.158  0.00  0.00    -0.301 N 
ATOM     26  H   UNL     1      35.073  38.097  29.366  0.00  0.00    +0.181 HD
ATOM     27  H   UNL     1      36.459  39.006  29.870  0.00  0.00    +0.181 HD
ENDBRANCH  22  23
ENDBRANCH  16  17
BRANCH   3   4
ATOM      4  C   UNL     1      35.033  35.642  20.003  0.00  0.00    +0.073 C 
BRANCH   4   5
ATOM      5  C   UNL     1      36.450  35.153  19.732  0.00  0.00    +0.074 C 
BRANCH   5   6
ATOM      6  C   UNL     1      37.058  35.798  18.522  0.00  0.00    -0.012 A 
ATOM      7  C   UNL     1      36.483  35.655  17.271  0.00  0.00    -0.010 A 
ATOM      8  C   UNL     1      37.060  36.265  16.173  0.00  0.00    +0.016 A 
ATOM      9  C   UNL     1      38.219  36.992  16.327  0.00  0.00    +0.123 A 
ATOM     10  F   UNL     1      38.807  37.597  15.298  0.00  0.00    -0.190 F 
ATOM     11  C   UNL     1      38.808  37.131  17.557  0.00  0.00    +0.056 A 
ATOM     12  C   UNL     1      38.221  36.536  18.637  0.00  0.00    +0.132 A 
ATOM     13  F   UNL     1      38.832  36.690  19.811  0.00  0.00    -0.190 F 
ENDBRANCH   5   6
ENDBRANCH   4   5
ENDBRANCH   3   4
TORSDOF 5
