REMARK  Name = 3lco_ligand
REMARK  12 active torsions:
REMARK  status: ('A' for Active; 'I' for Inactive)
REMARK    1  A    between atoms: C13_7  and  C15_8
REMARK    2  A    between atoms: C13_7  and  O32_32
REMARK    3  A    between atoms: C17_9  and  C14_19
REMARK    4  A    between atoms: C20_10  and  O32_32
REMARK    5  A    between atoms: C21_11  and  C19_22
REMARK    6  A    between atoms: C1_13  and  N29_29
REMARK    7  A    between atoms: C2_14  and  O30_30
REMARK    8  A    between atoms: C3_15  and  O31_31
REMARK    9  A    between atoms: C14_19  and  O33_33
REMARK   10  A    between atoms: C16_20  and  O30_30
REMARK   11  A    between atoms: C18_21  and  O31_31
REMARK   12  A    between atoms: C23_23  and  O33_33
REMARK                            x       y       z     vdW  Elec       q    Type
REMARK                         _______ _______ _______ _____ _____    ______ ____
ROOT
ATOM      5  C   UNL     1      -7.254  18.273 -17.181  0.00  0.00    +0.142 A 
ATOM      6  C   UNL     1      -6.139  18.173 -16.379  0.00  0.00    +0.134 A 
ATOM      9  C   UNL     1      -4.934  17.836 -16.956  0.00  0.00    +0.044 A 
ATOM     10  C   UNL     1      -4.898  17.611 -18.314  0.00  0.00    +0.036 A 
ATOM     11  N   UNL     1      -5.965  17.694 -19.119  0.00  0.00    -0.322 NA
ATOM     29  C   UNL     1      -7.120  18.023 -18.529  0.00  0.00    +0.088 A 
ENDROOT
BRANCH   6   7
ATOM      7  O   UNL     1      -6.250  18.412 -15.021  0.00  0.00    -0.316 OA
ATOM      8  C   UNL     1      -4.930  18.608 -14.530  0.00  0.00    +0.233 C 
ENDBRANCH   6   7
BRANCH   5   4
ATOM      4  O   UNL     1      -8.489  18.595 -16.648  0.00  0.00    -0.308 OA
BRANCH   4   3
ATOM      3  C   UNL     1      -8.626  20.010 -16.618  0.00  0.00    +0.248 C 
BRANCH   3   2
ATOM      1  C   UNL     1      -9.700  21.615 -15.052  0.00  0.00    -0.013 A 
ATOM      2  C   UNL     1      -9.671  20.353 -15.608  0.00  0.00    -0.024 A 
ATOM     30  C   UNL     1     -10.611  19.417 -15.228  0.00  0.00    -0.013 A 
ATOM     31  C   UNL     1     -11.576  19.732 -14.297  0.00  0.00    +0.013 A 
ATOM     32  C   UNL     1     -11.590  20.995 -13.745  0.00  0.00    +0.084 A 
ATOM     35  C   UNL     1     -10.660  21.941 -14.119  0.00  0.00    +0.013 A 
BRANCH  32  33
ATOM     33  O   UNL     1     -12.558  21.320 -12.812  0.00  0.00    -0.326 OA
ATOM     34  C   UNL     1     -12.046  20.894 -11.555  0.00  0.00    +0.230 C 
ENDBRANCH  32  33
ENDBRANCH   3   2
ENDBRANCH   4   3
ENDBRANCH   5   4
BRANCH  10  12
ATOM     12  C   UNL     1      -3.590  17.241 -18.922  0.00  0.00    +0.272 C 
BRANCH  12  13
ATOM     13  O   UNL     1      -3.135  18.246 -19.816  0.00  0.00    -0.284 OA
BRANCH  13  14
ATOM     14  C   UNL     1      -1.845  18.541 -19.407  0.00  0.00    +0.210 A 
ATOM     15  N   UNL     1      -0.995  17.535 -19.173  0.00  0.00    -0.270 NA
ATOM     16  C   UNL     1       0.215  17.944 -18.784  0.00  0.00    +0.036 A 
ATOM     23  C   UNL     1       0.548  19.271 -18.643  0.00  0.00    +0.084 A 
ATOM     24  N   UNL     1      -0.310  20.266 -18.877  0.00  0.00    -0.278 NA
ATOM     25  C   UNL     1      -1.526  19.873 -19.266  0.00  0.00    +0.167 A 
ATOM     26  N   UNL     1      -2.514  20.822 -19.541  0.00  0.00    -0.320 N 
ATOM     27  H   UNL     1      -2.307  21.816 -19.445  0.00  0.00    +0.175 HD
ATOM     28  H   UNL     1      -3.442  20.521 -19.837  0.00  0.00    +0.175 HD
BRANCH  16  17
ATOM     17  C   UNL     1       1.186  16.930 -18.487  0.00  0.00    +0.014 A 
ATOM     18  C   UNL     1       2.543  17.086 -18.637  0.00  0.00    +0.172 A 
ATOM     19  N   UNL     1       3.077  15.897 -18.230  0.00  0.00    -0.204 N 
ATOM     20  N   UNL     1       2.177  14.986 -17.824  0.00  0.00    -0.213 NA
ATOM     21  C   UNL     1       4.488  15.580 -18.203  0.00  0.00    +0.244 C 
ATOM     22  C   UNL     1       1.011  15.619 -17.983  0.00  0.00    +0.076 A 
ENDBRANCH  16  17
ENDBRANCH  13  14
ENDBRANCH  12  13
ENDBRANCH  10  12
TORSDOF 9
