REMARK  Name = A4W
REMARK  3 active torsions:
REMARK  status: ('A' for Active; 'I' for Inactive)
REMARK    1  A    between atoms: C03_5  and  N04_6
REMARK    2  A    between atoms: C05_7  and  C06_8
REMARK    3  A    between atoms: C06_8  and  C07_9
REMARK                            x       y       z     vdW  Elec       q    Type
REMARK                         _______ _______ _______ _____ _____    ______ ____
ROOT
ATOM      1  C   UNL     1     -18.522  28.159 -24.867  0.00  0.00    +0.019 A 
ATOM      2  C   UNL     1     -19.749  28.530 -24.335  0.00  0.00    +0.102 A 
ATOM      9  C   UNL     1     -20.702  27.562 -24.065  0.00  0.00    +0.166 A 
ATOM     10  F   UNL     1     -21.897  27.879 -23.533  0.00  0.00    -0.202 F 
ATOM     11  C   UNL     1     -20.428  26.242 -24.357  0.00  0.00    +0.086 A 
ATOM     12 CL   UNL     1     -21.655  25.060 -24.000  0.00  0.00    -0.080 Cl
ATOM     13  C   UNL     1     -19.202  25.872 -24.894  0.00  0.00    +0.014 A 
ATOM     14  C   UNL     1     -18.252  26.836 -25.150  0.00  0.00    +0.002 A 
ENDROOT
BRANCH   2   3
ATOM      3  N   UNL     1     -19.975  29.903 -24.045  0.00  0.00    -0.177 NA
ATOM      4  C   UNL     1     -20.385  30.276 -22.730  0.00  0.00    +0.247 C 
ATOM      5  O   UNL     1     -20.588  29.430 -21.863  0.00  0.00    -0.273 OA
BRANCH   4   6
ATOM      6  C   UNL     1     -20.579  31.742 -22.429  0.00  0.00    +0.100 C 
BRANCH   6   7
ATOM      7  C   UNL     1     -20.319  32.245 -21.197  0.00  0.00    +0.078 C 
ATOM      8  S   UNL     1     -20.692  31.342 -19.710  0.00  0.00    -0.082 S 
ENDBRANCH   6   7
ENDBRANCH   4   6
ENDBRANCH   2   3
TORSDOF 3
