REMARK  Name = 4FKR
REMARK  2 active torsions:
REMARK  status: ('A' for Active; 'I' for Inactive)
REMARK    1  A    between atoms: N_2  and  C_17
REMARK    2  A    between atoms: C_7  and  C_21
REMARK                            x       y       z     vdW  Elec       q    Type
REMARK                         _______ _______ _______ _____ _____    ______ ____
ROOT
ATOM      1  N   UNL     1     -15.804  -6.323 -11.277  0.00  0.00    -0.247 NA
ATOM      2  C   UNL     1     -15.338  -7.146 -12.228  0.00  0.00    +0.079 A 
ATOM      3  C   UNL     1     -14.196  -7.882 -11.823  0.00  0.00    +0.049 A 
ATOM      4  C   UNL     1     -13.585  -8.798 -12.685  0.00  0.00    +0.028 A 
ATOM      5  C   UNL     1     -14.117  -8.994 -13.970  0.00  0.00    +0.066 A 
ATOM      6  C   UNL     1     -15.223  -8.242 -14.379  0.00  0.00    +0.028 A 
ATOM      7  N   UNL     1     -13.363  -9.882 -14.638  0.00  0.00    -0.176 NA
ATOM      8  C   UNL     1     -12.446 -10.370 -13.795  0.00  0.00    +0.270 C 
ATOM      9  O   UNL     1     -11.555 -11.169 -14.107  0.00  0.00    -0.268 OA
ATOM     10  C   UNL     1     -12.497  -9.665 -12.593  0.00  0.00    +0.067 C 
ATOM     24  S   UNL     1     -13.855  -7.391 -10.221  0.00  0.00    -0.075 S 
ATOM     25  C   UNL     1     -15.827  -7.319 -13.524  0.00  0.00    +0.031 A 
ATOM     26  C   UNL     1     -15.156  -6.308 -10.098  0.00  0.00    +0.157 A 
ENDROOT
BRANCH  10  11
ATOM     11  C   UNL     1     -11.658  -9.878 -11.492  0.00  0.00    +0.125 C 
ATOM     12  N   UNL     1     -10.582 -10.667 -11.607  0.00  0.00    -0.255 NA
BRANCH  12  13
ATOM     13  C   UNL     1      -9.717 -10.928 -10.612  0.00  0.00    +0.064 A 
ATOM     14  C   UNL     1      -9.418  -9.990  -9.624  0.00  0.00    +0.033 A 
ATOM     15  C   UNL     1      -8.512 -10.277  -8.590  0.00  0.00    -0.020 A 
ATOM     16  C   UNL     1      -7.774 -11.494  -8.624  0.00  0.00    -0.022 A 
ATOM     17  C   UNL     1      -6.760 -11.649  -7.460  0.00  0.00    +0.201 C 
ATOM     18  S   UNL     1      -6.452  -9.897  -7.064  0.00  0.00    -0.023 S 
ATOM     19  O   UNL     1      -6.079  -9.729  -5.618  0.00  0.00    -0.174 OA
ATOM     20  O   UNL     1      -5.472  -9.333  -8.041  0.00  0.00    -0.174 OA
ATOM     21  C   UNL     1      -8.039 -12.408  -9.650  0.00  0.00    +0.007 A 
ATOM     22  C   UNL     1      -8.132  -9.355  -7.401  0.00  0.00    +0.201 C 
ATOM     23  C   UNL     1      -8.976 -12.116 -10.648  0.00  0.00    +0.028 A 
ENDBRANCH  12  13
ENDBRANCH  10  11
TORSDOF 2
