REMARK  Name = 2bdj_ligand
REMARK  10 active torsions:
REMARK  status: ('A' for Active; 'I' for Inactive)
REMARK    1  A    between atoms: N9A_1  and  C1A_11
REMARK    2  A    between atoms: C6A_5  and  N6A_6
REMARK    3  A    between atoms: N6A_6  and  CR1_20
REMARK    4  A    between atoms: C2A_8  and  CS1_30
REMARK    5  A    between atoms: C1A_11  and  CT0_12
REMARK    6  A    between atoms: CT0_12  and  CT1_13
REMARK    7  A    between atoms: CT5_17  and  OH_19
REMARK    8  A    between atoms: CR4_23  and  PA_26
REMARK    9  A    between atoms: PA_26  and  CA2_28
REMARK   10  A    between atoms: PA_26  and  CA3_29
REMARK                            x       y       z     vdW  Elec       q    Type
REMARK                         _______ _______ _______ _____ _____    ______ ____
ROOT
ATOM      1  N   UNL     1      17.069   2.140  26.105  0.00  0.00    -0.222 N 
ATOM     12  C   UNL     1      17.160   3.438  25.518  0.00  0.00    +0.151 A 
ATOM     13  N   UNL     1      16.371   4.483  25.172  0.00  0.00    -0.273 NA
ATOM     14  C   UNL     1      16.894   5.603  24.616  0.00  0.00    +0.072 A 
ATOM     20  N   UNL     1      18.223   5.664  24.423  0.00  0.00    -0.265 NA
ATOM     21  C   UNL     1      19.121   4.711  24.717  0.00  0.00    +0.147 A 
ATOM     34  C   UNL     1      18.650   3.530  25.277  0.00  0.00    +0.102 A 
ATOM     35  N   UNL     1      19.117   2.255  25.763  0.00  0.00    -0.299 NA
ATOM     36  C   UNL     1      18.197   1.435  26.248  0.00  0.00    +0.241 A 
ENDROOT
BRANCH  14  15
ATOM     15  C   UNL     1      15.951   6.686  24.255  0.00  0.00    +0.070 C 
ATOM     16  C   UNL     1      16.069   7.931  25.154  0.00  0.00    +0.023 C 
ATOM     17  C   UNL     1      16.022   9.162  24.213  0.00  0.00    +0.003 C 
ATOM     18  C   UNL     1      16.299   8.698  22.783  0.00  0.00    +0.003 C 
ATOM     19  C   UNL     1      16.252   7.162  22.793  0.00  0.00    +0.023 C 
ENDBRANCH  14  15
BRANCH  21  22
ATOM     22  N   UNL     1      20.428   4.838  24.516  0.00  0.00    -0.250 N 
ATOM     23  H   UNL     1      20.963   3.999  24.782  0.00  0.00    +0.220 HD
BRANCH  22  24
ATOM     24  C   UNL     1      21.146   5.759  24.073  0.00  0.00    +0.073 A 
ATOM     25  C   UNL     1      20.409   6.945  23.727  0.00  0.00    +0.028 A 
ATOM     26  C   UNL     1      21.078   8.072  23.236  0.00  0.00    +0.024 A 
ATOM     27  C   UNL     1      22.478   8.023  23.091  0.00  0.00    +0.034 A 
ATOM     32  C   UNL     1      23.215   6.862  23.424  0.00  0.00    +0.024 A 
ATOM     33  C   UNL     1      22.551   5.741  23.912  0.00  0.00    +0.028 A 
BRANCH  27  28
ATOM     28  P   UNL     1      23.333   9.487  22.477  0.00  0.00    +0.034 P 
ATOM     29  C   UNL     1      22.383  10.610  22.184  0.00  0.00    +0.150 C 
ATOM     30  C   UNL     1      23.943   8.939  21.158  0.00  0.00    +0.150 C 
ATOM     31  O   UNL     1      24.363   9.791  23.595  0.00  0.00    -0.509 OA
ENDBRANCH  27  28
ENDBRANCH  22  24
ENDBRANCH  21  22
BRANCH   1   2
ATOM      2  C   UNL     1      15.722   1.718  26.503  0.00  0.00    +0.197 C 
BRANCH   2   3
ATOM      3  C   UNL     1      15.072   2.608  27.462  0.00  0.00    +0.096 C 
BRANCH   3   4
ATOM      4  C   UNL     1      13.677   2.052  27.816  0.00  0.00    -0.049 A 
ATOM      5  C   UNL     1      12.651   1.859  26.793  0.00  0.00    +0.015 A 
ATOM      6  C   UNL     1      11.366   1.333  27.151  0.00  0.00    +0.081 A 
ATOM      9  C   UNL     1      11.100   0.998  28.523  0.00  0.00    +0.008 A 
ATOM     10  C   UNL     1      12.103   1.183  29.546  0.00  0.00    -0.020 A 
ATOM     11  C   UNL     1      13.400   1.713  29.192  0.00  0.00    -0.025 A 
BRANCH   6   7
ATOM      7  O   UNL     1      10.409   1.150  26.208  0.00  0.00    -0.335 OA
ATOM      8  H   UNL     1       9.627   0.797  26.616  0.00  0.00    +0.248 HD
ENDBRANCH   6   7
ENDBRANCH   3   4
ENDBRANCH   2   3
ENDBRANCH   1   2
TORSDOF 8
