REMARK  Name = 2x2m_ligand
REMARK  3 active torsions:
REMARK  status: ('A' for Active; 'I' for Inactive)
REMARK    1  A    between atoms: C19_9  and  C21_10
REMARK    2  A    between atoms: C26_13  and  CAB_17
REMARK    3  A    between atoms: C24_15  and  CAA_18
REMARK                            x       y       z     vdW  Elec       q    Type
REMARK                         _______ _______ _______ _____ _____    ______ ____
ROOT
ATOM      1  C   UNL     1      -0.945  11.185   5.179  0.00  0.00    +0.205 C 
ATOM      2  N   UNL     1       0.378  10.937   5.084  0.00  0.00    -0.242 N 
ATOM      3  H   UNL     1       1.076  11.579   4.708  0.00  0.00    +0.224 HD
ATOM      4  C   UNL     1       0.624   9.717   5.561  0.00  0.00    +0.065 A 
ATOM      5  C   UNL     1       1.819   8.988   5.667  0.00  0.00    +0.001 A 
ATOM      6  C   UNL     1       1.778   7.684   6.187  0.00  0.00    -0.029 A 
ATOM      7  C   UNL     1       0.568   7.105   6.592  0.00  0.00    -0.036 A 
ATOM      8  C   UNL     1      -0.621   7.815   6.489  0.00  0.00    -0.025 A 
ATOM      9  C   UNL     1      -0.599   9.127   5.969  0.00  0.00    -0.010 A 
ATOM     10  O   UNL     1      -1.487  12.250   4.835  0.00  0.00    -0.391 OA
ATOM     11  C   UNL     1      -1.597  10.067   5.717  0.00  0.00    +0.030 C 
ATOM     12  C   UNL     1      -2.967   9.875   5.970  0.00  0.00    +0.033 C 
ENDROOT
BRANCH  12  13
ATOM     13  C   UNL     1      -4.016  10.740   5.628  0.00  0.00    +0.059 A 
ATOM     14  N   UNL     1      -4.067  11.988   5.142  0.00  0.00    -0.278 N 
ATOM     15  H   UNL     1      -3.268  12.569   4.887  0.00  0.00    +0.228 HD
ATOM     16  C   UNL     1      -5.368  12.337   5.051  0.00  0.00    +0.046 A 
ATOM     17  C   UNL     1      -5.848  13.692   4.523  0.00  0.00    +0.131 C 
ATOM     18  C   UNL     1      -6.192  11.360   5.466  0.00  0.00    -0.032 A 
ATOM     19  C   UNL     1      -5.366  10.361   5.829  0.00  0.00    -0.048 A 
ATOM     20  C   UNL     1      -5.839   8.993   6.400  0.00  0.00    +0.069 C 
ENDBRANCH  12  13
TORSDOF 1
