REMARK  Name = 8ET
REMARK  2 active torsions:
REMARK  status: ('A' for Active; 'I' for Inactive)
REMARK    1  A    between atoms: N1_4  and  C7_5
REMARK    2  A    between atoms: C9_8  and  C10_9
REMARK                            x       y       z     vdW  Elec       q    Type
REMARK                         _______ _______ _______ _____ _____    ______ ____
ROOT
ATOM      1  C   UNL     1     189.882  86.428  -2.138  0.00  0.00    +0.004 A 
ATOM      2  C   UNL     1     190.782  86.351  -1.120  0.00  0.00    +0.021 A 
ATOM      3  C   UNL     1     192.117  86.097  -1.423  0.00  0.00    +0.099 A 
ATOM      4  N   UNL     1     192.588  85.924  -2.649  0.00  0.00    -0.244 NA
ATOM      5  C   UNL     1     191.689  86.002  -3.682  0.00  0.00    +0.083 A 
ATOM      6  C   UNL     1     192.168  85.837  -5.002  0.00  0.00    +0.019 A 
ATOM      7  C   UNL     1     191.313  85.917  -6.060  0.00  0.00    +0.003 A 
ATOM      8  C   UNL     1     189.962  86.153  -5.875  0.00  0.00    +0.017 A 
ATOM      9  C   UNL     1     189.447  86.321  -4.609  0.00  0.00    +0.075 A 
ATOM     19  C   UNL     1     190.312  86.252  -3.470  0.00  0.00    +0.033 A 
ENDROOT
BRANCH   9  10
ATOM     10  N   UNL     1     188.065  86.552  -4.383  0.00  0.00    -0.175 NA
ATOM     11  C   UNL     1     187.177  87.064  -5.270  0.00  0.00    +0.271 C 
ATOM     18  O   UNL     1     187.476  87.392  -6.416  0.00  0.00    -0.268 OA
BRANCH  11  12
ATOM     12  C   UNL     1     185.775  87.209  -4.772  0.00  0.00    +0.074 A 
ATOM     13  C   UNL     1     185.485  87.312  -3.419  0.00  0.00    +0.008 A 
ATOM     14  C   UNL     1     184.176  87.471  -3.008  0.00  0.00    +0.021 A 
ATOM     15  C   UNL     1     183.189  87.523  -3.967  0.00  0.00    +0.099 A 
ATOM     16  N   UNL     1     183.433  87.422  -5.278  0.00  0.00    -0.242 NA
ATOM     17  C   UNL     1     184.707  87.266  -5.657  0.00  0.00    +0.103 A 
ENDBRANCH  11  12
ENDBRANCH   9  10
TORSDOF 2
