REMARK  Name = 3vzd_ligand
REMARK  3 active torsions:
REMARK  status: ('A' for Active; 'I' for Inactive)
REMARK    1  A    between atoms: C12_3  and  O20_4
REMARK    2  A    between atoms: C10_7  and  N6_8
REMARK    3  A    between atoms: C3_13  and  C7_14
REMARK                            x       y       z     vdW  Elec       q    Type
REMARK                         _______ _______ _______ _____ _____    ______ ____
ROOT
ATOM      3  N   UNL     1       2.786 -32.708  -8.319  0.00  0.00    -0.243 N 
ATOM      4  H   UNL     1       3.348 -32.700  -9.182  0.00  0.00    +0.218 HD
ATOM      5  C   UNL     1       2.230 -33.886  -7.970  0.00  0.00    +0.198 A 
ATOM      6  S   UNL     1       2.405 -35.348  -8.870  0.00  0.00    +0.021 S 
ATOM      7  C   UNL     1       1.365 -36.236  -7.831  0.00  0.00    +0.078 A 
ATOM      8  C   UNL     1       0.980 -35.416  -6.804  0.00  0.00    +0.006 A 
ATOM     16  N   UNL     1       1.425 -34.128  -6.913  0.00  0.00    -0.309 NA
ENDROOT
BRANCH   8   9
ATOM      9  C   UNL     1       0.158 -35.807  -5.749  0.00  0.00    -0.025 A 
ATOM     10  C   UNL     1      -0.508 -37.040  -5.739  0.00  0.00    +0.001 A 
ATOM     11  C   UNL     1      -1.333 -37.338  -4.663  0.00  0.00    +0.011 A 
ATOM     12  C   UNL     1      -1.515 -36.458  -3.600  0.00  0.00    +0.037 A 
ATOM     13 CL   UNL     1      -2.547 -36.828  -2.256  0.00  0.00    -0.073 Cl
ATOM     14  C   UNL     1      -0.857 -35.223  -3.616  0.00  0.00    +0.011 A 
ATOM     15  C   UNL     1      -0.017 -34.919  -4.683  0.00  0.00    +0.001 A 
ENDBRANCH   8   9
BRANCH   3   2
ATOM      1  C   UNL     1       1.559 -31.153  -6.887  0.00  0.00    +0.005 A 
ATOM      2  C   UNL     1       2.681 -31.538  -7.652  0.00  0.00    +0.057 A 
ATOM     17  C   UNL     1       3.792 -30.706  -7.718  0.00  0.00    +0.005 A 
ATOM     18  C   UNL     1       3.778 -29.490  -7.073  0.00  0.00    +0.010 A 
ATOM     19  C   UNL     1       2.664 -29.104  -6.336  0.00  0.00    +0.076 A 
ATOM     22  C   UNL     1       1.533 -29.921  -6.226  0.00  0.00    +0.010 A 
BRANCH  19  20
ATOM     20  O   UNL     1       2.735 -27.920  -5.692  0.00  0.00    -0.340 OA
ATOM     21  H   UNL     1       3.569 -27.507  -5.882  0.00  0.00    +0.244 HD
ENDBRANCH  19  20
ENDBRANCH   3   2
TORSDOF 3
