REMARK  Name = 3PWY
REMARK  8 active torsions:
REMARK  status: ('A' for Active; 'I' for Inactive)
REMARK    1  A    between atoms: N_7  and  C_8
REMARK    2  A    between atoms: C_8  and  C_9
REMARK    3  A    between atoms: C_9  and  S_10
REMARK    4  A    between atoms: N_11  and  C_12
REMARK    5  A    between atoms: C_12  and  C_13
REMARK    6  A    between atoms: C_13  and  N_14
REMARK    7  A    between atoms: C_15  and  C_16
REMARK    8  A    between atoms: C_16  and  C_18
REMARK                            x       y       z     vdW  Elec       q    Type
REMARK                         _______ _______ _______ _____ _____    ______ ____
ROOT
ATOM      1  C   UNL     1      89.099  26.867  11.139  0.00  0.00    +0.262 C 
ATOM      2  C   UNL     1      89.607  28.158  11.172  0.00  0.00    +0.300 C 
ATOM      3  N   UNL     1      88.898  29.156  11.753  0.00  0.00    -0.086 NA
ATOM      8  N   UNL     1      90.813  28.413  10.622  0.00  0.00    -0.173 N 
ATOM      9  H   UNL     1      91.208  29.407  10.646  0.00  0.00    +0.301 HD
ATOM     10  C   UNL     1      91.520  27.432  10.046  0.00  0.00    +0.447 C 
ATOM     11  N   UNL     1      91.054  26.178   9.999  0.00  0.00    -0.007 NA
ATOM     12  C   UNL     1      89.853  25.871  10.535  0.00  0.00    +0.351 C 
ATOM     13  N   UNL     1      89.389  24.599  10.484  0.00  0.00    -0.080 NA
ENDROOT
BRANCH   3   4
ATOM      4  C   UNL     1      87.598  28.875  12.345  0.00  0.00    +0.300 C 
BRANCH   4   5
ATOM      5  C   UNL     1      86.722  30.059  11.953  0.00  0.00    +0.115 C 
BRANCH   5   6
ATOM      6  S   UNL     1      84.979  29.590  12.089  0.00  0.00    -0.174 S 
ATOM      7  H   UNL     1      84.728  28.559  11.271  0.00  0.00    +0.102 HD
ENDBRANCH   5   6
ENDBRANCH   4   5
ENDBRANCH   3   4
BRANCH  13  14
ATOM     14  C   UNL     1      88.094  24.274  11.063  0.00  0.00    +0.309 C 
BRANCH  14  15
ATOM     15  C   UNL     1      87.212  23.906   9.877  0.00  0.00    +0.154 C 
BRANCH  15  16
ATOM     16  N   UNL     1      86.125  23.122  10.444  0.00  0.00    -0.311 N 
ATOM     17  H   UNL     1      85.236  23.657  10.706  0.00  0.00    +0.149 HD
ATOM     18  C   UNL     1      86.118  21.812  10.672  0.00  0.00    +0.213 C 
ATOM     19  O   UNL     1      87.066  21.088  10.418  0.00  0.00    -0.276 OA
BRANCH  18  20
ATOM     20  C   UNL     1      84.885  21.253  11.259  0.00  0.00    +0.092 C 
ATOM     21  C   UNL     1      84.917  20.643  12.630  0.00  0.00    +0.013 C 
ENDBRANCH  18  20
ENDBRANCH  15  16
ENDBRANCH  14  15
ENDBRANCH  13  14
TORSDOF 7
