REMARK  Name = 1pye_ligand
REMARK  5 active torsions:
REMARK  status: ('A' for Active; 'I' for Inactive)
REMARK    1  A    between atoms: C1_1  and  C23_17
REMARK    2  A    between atoms: C10_7  and  C13_10
REMARK    3  A    between atoms: C11_8  and  N35_26
REMARK    4  A    between atoms: C13_10  and  C14_11
REMARK    5  A    between atoms: C23_17  and  C24_18
REMARK                            x       y       z     vdW  Elec       q    Type
REMARK                         _______ _______ _______ _____ _____    ______ ____
ROOT
ATOM      1  C   UNL     1      12.164  -8.888  22.864  0.00  0.00    +0.060 A 
ATOM     12  C   UNL     1      12.335  -9.604  21.629  0.00  0.00    +0.057 A 
ATOM     13  C   UNL     1      13.315 -10.645  21.504  0.00  0.00    +0.089 A 
ATOM     14  C   UNL     1      14.134 -10.948  22.596  0.00  0.00    +0.185 A 
ATOM     15  N   UNL     1      15.113 -11.872  22.730  0.00  0.00    -0.166 N 
ATOM     16  H   UNL     1      15.434 -12.522  21.999  0.00  0.00    +0.269 HD
ATOM     17  C   UNL     1      15.594 -11.795  23.983  0.00  0.00    +0.302 A 
ATOM     21  C   UNL     1      14.941 -10.778  24.721  0.00  0.00    +0.239 A 
ATOM     30  N   UNL     1      13.976 -10.250  23.842  0.00  0.00    -0.247 N 
ATOM     31  C   UNL     1      13.034  -9.259  23.935  0.00  0.00    +0.119 A 
ENDROOT
BRANCH  17  18
ATOM     18  N   UNL     1      16.674 -12.647  24.481  0.00  0.00    -0.252 N 
ATOM     19  H   UNL     1      17.104 -13.348  23.861  0.00  0.00    +0.214 HD
ATOM     20  H   UNL     1      17.004 -12.546  25.451  0.00  0.00    +0.214 HD
ENDBRANCH  17  18
BRANCH   1   2
ATOM      2  C   UNL     1      11.107  -7.797  22.975  0.00  0.00    +0.167 C 
ATOM      3  O   UNL     1      10.379  -7.517  21.989  0.00  0.00    -0.369 OA
BRANCH   2   4
ATOM      4  C   UNL     1      10.944  -7.050  24.311  0.00  0.00    +0.102 A 
ATOM      5  C   UNL     1      11.928  -6.094  24.883  0.00  0.00    +0.151 A 
ATOM      6  F   UNL     1      13.091  -5.809  24.278  0.00  0.00    -0.178 F 
ATOM      7  C   UNL     1      11.707  -5.431  26.137  0.00  0.00    +0.032 A 
ATOM      8  C   UNL     1      10.496  -5.677  26.858  0.00  0.00    +0.002 A 
ATOM      9  C   UNL     1       9.519  -6.589  26.342  0.00  0.00    +0.032 A 
ATOM     10  C   UNL     1       9.752  -7.248  25.088  0.00  0.00    +0.151 A 
ATOM     11  F   UNL     1       8.800  -8.083  24.669  0.00  0.00    -0.178 F 
ENDBRANCH   2   4
ENDBRANCH   1   2
BRANCH  21  22
ATOM     22  C   UNL     1      15.293 -10.497  26.129  0.00  0.00    +0.229 C 
ATOM     23  O   UNL     1      16.219 -11.172  26.628  0.00  0.00    -0.336 OA
BRANCH  22  24
ATOM     24  C   UNL     1      14.660  -9.462  26.984  0.00  0.00    +0.045 A 
ATOM     25  C   UNL     1      15.293  -8.184  27.167  0.00  0.00    +0.024 A 
ATOM     26  C   UNL     1      14.668  -7.193  28.000  0.00  0.00    +0.006 A 
ATOM     27  C   UNL     1      13.423  -7.470  28.649  0.00  0.00    +0.007 A 
ATOM     28  C   UNL     1      12.778  -8.733  28.471  0.00  0.00    +0.006 A 
ATOM     29  C   UNL     1      13.397  -9.737  27.636  0.00  0.00    +0.024 A 
ENDBRANCH  22  24
ENDBRANCH  21  22
TORSDOF 5
