REMARK  Name = 5NHP
REMARK  8 active torsions:
REMARK  status: ('A' for Active; 'I' for Inactive)
REMARK    1  A    between atoms: C_1  and  N_25
REMARK    2  A    between atoms: N_4  and  C_14
REMARK    3  A    between atoms: C_5  and  C_6
REMARK    4  A    between atoms: C_10  and  N_19
REMARK    5  A    between atoms: C_14  and  C_16
REMARK    6  A    between atoms: C_16  and  O_17
REMARK    7  A    between atoms: O_17  and  C_18
REMARK    8  A    between atoms: N_27  and  C_28
REMARK                            x       y       z     vdW  Elec       q    Type
REMARK                         _______ _______ _______ _____ _____    ______ ____
ROOT
ATOM     13  C   UNL     1     -15.482  12.891  40.844  0.00  0.00    +0.068 A 
ATOM     14  N   UNL     1     -15.065  14.168  41.266  0.00  0.00    -0.345 N 
ATOM     15  C   UNL     1     -15.924  15.239  41.798  0.00  0.00    +0.149 C 
ATOM     16  C   UNL     1     -13.712  14.260  41.028  0.00  0.00    +0.033 A 
ATOM     17  C   UNL     1     -12.845  15.437  41.354  0.00  0.00    +0.073 C 
ATOM     18  C   UNL     1     -11.438  14.914  41.587  0.00  0.00    +0.114 C 
ATOM     19  N   UNL     1     -11.033  13.952  40.551  0.00  0.00    -0.295 N 
ATOM     24  C   UNL     1     -11.813  12.909  40.166  0.00  0.00    +0.248 C 
ATOM     25  O   UNL     1     -11.360  11.874  39.691  0.00  0.00    -0.270 OA
ATOM     26  C   UNL     1     -13.237  13.065  40.503  0.00  0.00    +0.058 A 
ATOM     27  C   UNL     1     -14.368  12.199  40.405  0.00  0.00    +0.042 A 
ENDROOT
BRANCH  13  10
ATOM      6  N   UNL     1     -19.909  13.129  42.481  0.00  0.00    -0.269 N 
ATOM      7  H   UNL     1     -20.935  12.837  42.391  0.00  0.00    +0.156 HD
ATOM      8  C   UNL     1     -18.987  12.435  41.712  0.00  0.00    +0.221 A 
ATOM      9  N   UNL     1     -17.748  12.966  41.661  0.00  0.00    -0.213 NA
ATOM     10  C   UNL     1     -16.854  12.329  40.889  0.00  0.00    +0.092 A 
ATOM     11  C   UNL     1     -17.167  11.152  40.214  0.00  0.00    +0.050 A 
ATOM     12  C   UNL     1     -18.449  10.669  40.386  0.00  0.00    +0.116 A 
ATOM     28  N   UNL     1     -19.394  11.308  41.103  0.00  0.00    -0.223 NA
BRANCH   6   1
ATOM      1  C   UNL     1     -19.615  14.198  43.382  0.00  0.00    +0.123 A 
ATOM      2  N   UNL     1     -20.461  15.235  43.573  0.00  0.00    -0.254 N 
ATOM      3  C   UNL     1     -21.786  15.468  43.014  0.00  0.00    +0.174 C 
ATOM      4  N   UNL     1     -19.958  16.143  44.454  0.00  0.00    -0.178 NA
ATOM      5  C   UNL     1     -18.766  15.659  44.782  0.00  0.00    +0.136 A 
ATOM     29  C   UNL     1     -18.497  14.440  44.167  0.00  0.00    +0.065 A 
ENDBRANCH   6   1
ENDBRANCH  13  10
BRANCH  19  20
ATOM     20  C   UNL     1      -9.658  14.080  40.041  0.00  0.00    +0.136 C 
BRANCH  20  21
ATOM     21  C   UNL     1      -9.552  14.642  38.648  0.00  0.00    +0.178 C 
BRANCH  21  22
ATOM     22  O   UNL     1     -10.175  15.902  38.626  0.00  0.00    -0.381 OA
ATOM     23  C   UNL     1     -10.104  16.503  37.353  0.00  0.00    +0.193 C 
ENDBRANCH  21  22
ENDBRANCH  20  21
ENDBRANCH  19  20
TORSDOF 5
