REMARK  Name = 3lxl_ligand
REMARK  4 active torsions:
REMARK  status: ('A' for Active; 'I' for Inactive)
REMARK    1  A    between atoms: C2_18  and  C14_20
REMARK    2  A    between atoms: C14_20  and  C17_21
REMARK    3  A    between atoms: C14_20  and  C16_22
REMARK    4  A    between atoms: C14_20  and  C15_23
REMARK                            x       y       z     vdW  Elec       q    Type
REMARK                         _______ _______ _______ _____ _____    ______ ____
ROOT
ATOM      1  O   UNL     1      -2.879  13.563   2.727  0.00  0.00    -0.390 OA
ATOM      2  C   UNL     1      -1.813  13.228   3.246  0.00  0.00    +0.176 C 
ATOM      3  C   UNL     1      -0.832  14.226   3.780  0.00  0.00    +0.047 A 
ATOM      4  C   UNL     1      -1.070  15.602   3.743  0.00  0.00    -0.007 A 
ATOM      5  C   UNL     1      -0.127  16.486   4.264  0.00  0.00    +0.031 A 
ATOM      6  C   UNL     1       1.050  15.963   4.821  0.00  0.00    +0.131 A 
ATOM      7  N   UNL     1       2.114  16.611   5.400  0.00  0.00    -0.239 N 
ATOM      8  H   UNL     1       2.223  17.628   5.524  0.00  0.00    +0.242 HD
ATOM      9  C   UNL     1       2.970  15.673   5.767  0.00  0.00    +0.107 A 
ATOM     14  N   UNL     1       2.482  14.434   5.450  0.00  0.00    -0.251 NA
ATOM     15  C   UNL     1       1.253  14.597   4.843  0.00  0.00    +0.111 A 
ATOM     16  C   UNL     1      -0.294  17.858   4.259  0.00  0.00    +0.020 A 
ATOM     17  C   UNL     1      -1.454  18.401   3.721  0.00  0.00    +0.036 A 
ATOM     18  C   UNL     1      -2.407  17.541   3.196  0.00  0.00    +0.136 A 
ATOM     19  F   UNL     1      -3.544  18.076   2.653  0.00  0.00    -0.179 F 
ATOM     20  C   UNL     1      -2.229  16.170   3.206  0.00  0.00    +0.038 A 
ATOM     21  C   UNL     1       0.336  13.701   4.332  0.00  0.00    +0.028 A 
ATOM     22  C   UNL     1       0.613  12.273   4.380  0.00  0.00    +0.211 C 
ATOM     23  C   UNL     1      -0.297  11.425   3.889  0.00  0.00    +0.171 C 
ATOM     24  N   UNL     1      -1.478  11.906   3.356  0.00  0.00    -0.251 NA
ENDROOT
BRANCH   9  10
ATOM     10  C   UNL     1       4.268  15.883   6.469  0.00  0.00    -0.014 C 
ATOM     11  C   UNL     1       5.123  16.958   5.842  0.00  0.00    -0.051 C 
ATOM     12  C   UNL     1       3.856  16.325   7.857  0.00  0.00    -0.051 C 
ATOM     13  C   UNL     1       5.054  14.593   6.605  0.00  0.00    -0.051 C 
ENDBRANCH   9  10
TORSDOF 1
