REMARK  Name = 4prj_ligand
REMARK  6 active torsions:
REMARK  status: ('A' for Active; 'I' for Inactive)
REMARK    1  A    between atoms: C3_3  and  C9_9
REMARK    2  A    between atoms: C5_5  and  C7_7
REMARK    3  A    between atoms: C9_9  and  N10_10
REMARK    4  A    between atoms: C12_12  and  N15_15
REMARK    5  A    between atoms: C16_16  and  C18_18
REMARK    6  A    between atoms: C22_22  and  C28_27
REMARK                            x       y       z     vdW  Elec       q    Type
REMARK                         _______ _______ _______ _____ _____    ______ ____
ROOT
ATOM     13  N   UNL     1      51.718  14.699  20.305  0.00  0.00    -0.253 N 
ATOM     14  H   UNL     1      51.522  15.046  19.388  0.00  0.00    +0.212 HD
ATOM     15  C   UNL     1      52.274  13.471  20.399  0.00  0.00    +0.231 C 
ATOM     32  O   UNL     1      52.518  12.950  21.475  0.00  0.00    -0.380 OA
ENDROOT
BRANCH  15  16
ATOM     16  C   UNL     1      52.562  12.731  19.159  0.00  0.00    +0.136 A 
ATOM     17  N   UNL     1      52.473  13.174  17.924  0.00  0.00    -0.179 NA
ATOM     18  N   UNL     1      52.768  12.271  17.063  0.00  0.00    -0.207 N 
ATOM     19  H   UNL     1      52.780  12.419  16.044  0.00  0.00    +0.249 HD
ATOM     20  C   UNL     1      53.066  11.081  17.679  0.00  0.00    +0.087 A 
ATOM     21  C   UNL     1      53.424   9.802  17.242  0.00  0.00    +0.015 A 
ATOM     22  C   UNL     1      53.643   8.782  18.170  0.00  0.00    -0.043 A 
ATOM     29  C   UNL     1      53.497   9.035  19.549  0.00  0.00    -0.020 A 
ATOM     30  C   UNL     1      53.174  10.287  19.996  0.00  0.00    -0.007 A 
ATOM     31  C   UNL     1      52.943  11.317  19.071  0.00  0.00    +0.024 A 
BRANCH  22  23
ATOM     23  C   UNL     1      53.968   7.406  17.706  0.00  0.00    -0.002 A 
ATOM     24  C   UNL     1      54.763   6.456  18.377  0.00  0.00    +0.073 A 
ATOM     25  N   UNL     1      54.767   5.365  17.663  0.00  0.00    -0.216 NA
ATOM     26  N   UNL     1      53.976   5.555  16.525  0.00  0.00    -0.217 N 
ATOM     27  H   UNL     1      53.801   4.862  15.784  0.00  0.00    +0.260 HD
ATOM     28  C   UNL     1      53.486   6.806  16.574  0.00  0.00    +0.165 A 
ENDBRANCH  22  23
ENDBRANCH  15  16
BRANCH  13  12
ATOM      9  N   UNL     1      50.784  17.310  22.510  0.00  0.00    -0.211 N 
ATOM     10  N   UNL     1      51.005  16.262  23.426  0.00  0.00    -0.223 NA
ATOM     11  C   UNL     1      51.371  15.206  22.763  0.00  0.00    +0.082 A 
ATOM     12  C   UNL     1      51.392  15.529  21.395  0.00  0.00    +0.074 A 
ATOM     33  C   UNL     1      51.022  16.825  21.274  0.00  0.00    +0.139 A 
BRANCH   9   8
ATOM      8  C   UNL     1      50.360  18.687  22.788  0.00  0.00    +0.260 C 
BRANCH   8   7
ATOM      1  C   UNL     1      48.355  19.211  25.974  0.00  0.00    +0.005 A 
ATOM      2  C   UNL     1      49.368  19.197  26.935  0.00  0.00    +0.032 A 
ATOM      3  C   UNL     1      50.714  19.009  26.549  0.00  0.00    +0.089 A 
ATOM      6  C   UNL     1      51.013  18.870  25.186  0.00  0.00    +0.043 A 
ATOM      7  C   UNL     1      49.997  18.881  24.238  0.00  0.00    -0.001 A 
ATOM     34  C   UNL     1      48.667  19.055  24.623  0.00  0.00    +0.014 A 
BRANCH   3   4
ATOM      4  C   UNL     1      51.796  18.971  27.498  0.00  0.00    +0.099 C 
ATOM      5  N   UNL     1      52.678  18.937  28.222  0.00  0.00    -0.328 NA
ENDBRANCH   3   4
ENDBRANCH   8   7
ENDBRANCH   9   8
ENDBRANCH  13  12
TORSDOF 6
