REMARK  Name = 4f1s_ligand
REMARK  7 active torsions:
REMARK  status: ('A' for Active; 'I' for Inactive)
REMARK    1  A    between atoms: C31_1  and  S30_2
REMARK    2  A    between atoms: S30_2  and  N27_5
REMARK    3  A    between atoms: N27_5  and  C26_6
REMARK    4  A    between atoms: C24_12  and  N28_13
REMARK    5  A    between atoms: C5_17  and  C15_18
REMARK    6  A    between atoms: C3_25  and  C7_26
REMARK    7  A    between atoms: C9_29  and  C13_30
REMARK                            x       y       z     vdW  Elec       q    Type
REMARK                         _______ _______ _______ _____ _____    ______ ____
ROOT
ATOM     10  N   UNL     1      24.314  13.931  21.982  0.00  0.00    -0.258 N 
ATOM     11  H   UNL     1      23.937  13.441  22.793  0.00  0.00    +0.215 HD
ATOM     12  C   UNL     1      23.598  14.956  21.485  0.00  0.00    +0.146 A 
ATOM     13  C   UNL     1      22.261  15.150  21.873  0.00  0.00    +0.067 A 
ATOM     24  C   UNL     1      21.550  16.222  21.339  0.00  0.00    +0.037 A 
ATOM     25  C   UNL     1      22.186  17.064  20.435  0.00  0.00    -0.019 A 
ATOM     32  C   UNL     1      23.511  16.826  20.095  0.00  0.00    +0.081 A 
ATOM     33  N   UNL     1      24.166  15.809  20.616  0.00  0.00    -0.281 NA
ENDROOT
BRANCH  13  14
ATOM     14  C   UNL     1      21.638  14.289  22.777  0.00  0.00    +0.114 A 
ATOM     15  N   UNL     1      22.333  13.257  23.276  0.00  0.00    -0.257 NA
ATOM     16  C   UNL     1      21.777  12.404  24.142  0.00  0.00    +0.093 A 
ATOM     17  N   UNL     1      20.507  12.583  24.522  0.00  0.00    -0.233 NA
ATOM     18  C   UNL     1      19.806  13.618  24.033  0.00  0.00    +0.188 A 
ATOM     19  N   UNL     1      18.550  13.788  24.418  0.00  0.00    -0.299 N 
ATOM     20  H   UNL     1      18.006  14.570  24.054  0.00  0.00    +0.186 HD
ATOM     21  H   UNL     1      18.126  13.136  25.079  0.00  0.00    +0.186 HD
ATOM     22  C   UNL     1      22.601  11.241  24.681  0.00  0.00    +0.150 C 
ATOM     23  N   UNL     1      20.366  14.470  23.161  0.00  0.00    -0.236 NA
ENDBRANCH  13  14
BRANCH  10   9
ATOM      5  C   UNL     1      27.124  13.194  19.755  0.00  0.00    +0.097 A 
ATOM      6  C   UNL     1      27.945  12.552  20.673  0.00  0.00    +0.122 A 
ATOM      7  N   UNL     1      27.545  12.401  21.940  0.00  0.00    -0.312 NA
ATOM      8  C   UNL     1      26.370  12.848  22.349  0.00  0.00    +0.072 A 
ATOM      9  C   UNL     1      25.491  13.504  21.488  0.00  0.00    +0.070 A 
ATOM     34 CL   UNL     1      29.491  11.942  20.196  0.00  0.00    -0.063 Cl
ATOM     35  C   UNL     1      25.877  13.665  20.158  0.00  0.00    +0.043 A 
BRANCH   5   3
ATOM      3  N   UNL     1      27.543  13.331  18.498  0.00  0.00    -0.188 N 
ATOM      4  H   UNL     1      27.996  12.541  18.039  0.00  0.00    +0.218 HD
BRANCH   3   2
ATOM      1  C   UNL     1      27.693  16.128  18.716  0.00  0.00    +0.225 C 
ATOM      2  S   UNL     1      27.354  14.722  17.671  0.00  0.00    +0.058 S 
ATOM     36  O   UNL     1      25.939  14.783  17.168  0.00  0.00    -0.150 OA
ATOM     37  O   UNL     1      28.299  14.705  16.508  0.00  0.00    -0.150 OA
ENDBRANCH   3   2
ENDBRANCH   5   3
ENDBRANCH  10   9
BRANCH  25  26
ATOM     26  C   UNL     1      21.466  18.270  19.812  0.00  0.00    +0.044 C 
ATOM     27  C   UNL     1      21.733  19.515  20.660  0.00  0.00    +0.045 C 
ATOM     28  C   UNL     1      20.950  20.677  20.064  0.00  0.00    +0.162 C 
ATOM     29  O   UNL     1      19.557  20.324  20.105  0.00  0.00    -0.379 OA
ATOM     30  C   UNL     1      19.268  19.295  19.145  0.00  0.00    +0.162 C 
ATOM     31  C   UNL     1      19.951  18.030  19.676  0.00  0.00    +0.045 C 
ENDBRANCH  25  26
TORSDOF 5
