REMARK  Name = EB7
REMARK  4 active torsions:
REMARK  status: ('A' for Active; 'I' for Inactive)
REMARK    1  A    between atoms: CAR_8  and  SAQ_9
REMARK    2  A    between atoms: SAQ_9  and  NAP_12
REMARK    3  A    between atoms: NAP_12  and  CAC_13
REMARK    4  A    between atoms: NAK_25  and  CAN_26
REMARK                            x       y       z     vdW  Elec       q    Type
REMARK                         _______ _______ _______ _____ _____    ______ ____
ROOT
ATOM     12  C   UNL     1      10.167   8.387   0.659  0.00  0.00    +0.091 A 
ATOM     13  C   UNL     1      11.483   8.066   1.037  0.00  0.00    +0.018 A 
ATOM     14  C   UNL     1      12.187   8.679   2.083  0.00  0.00    +0.001 A 
ATOM     15  C   UNL     1      13.492   8.253   2.357  0.00  0.00    +0.000 A 
ATOM     16  C   UNL     1      14.058   7.236   1.579  0.00  0.00    +0.005 A 
ATOM     17  C   UNL     1      13.348   6.680   0.591  0.00  0.00    +0.058 A 
ATOM     18  C   UNL     1      13.586   5.727  -0.307  0.00  0.00    +0.261 A 
ATOM     19  O   UNL     1      14.659   5.130  -0.416  0.00  0.00    -0.267 OA
ATOM     20  N   UNL     1      12.509   5.546  -1.080  0.00  0.00    -0.295 N 
ATOM     21  C   UNL     1      11.578   6.415  -0.670  0.00  0.00    +0.063 A 
ATOM     22  C   UNL     1      10.326   6.699  -1.071  0.00  0.00    +0.019 A 
ATOM     25  C   UNL     1      12.110   7.099   0.346  0.00  0.00    +0.022 A 
ATOM     26  C   UNL     1       9.591   7.696  -0.417  0.00  0.00    +0.020 A 
ENDROOT
BRANCH  20  23
ATOM     23  C   UNL     1      12.368   4.660  -2.204  0.00  0.00    +0.109 C 
ATOM     24  C   UNL     1      12.581   3.215  -1.748  0.00  0.00    +0.027 C 
ENDBRANCH  20  23
BRANCH  12  11
ATOM     11  N   UNL     1       9.540   9.371   1.319  0.00  0.00    -0.097 NA
BRANCH  11   9
ATOM      9  S   UNL     1       8.149   9.065   2.130  0.00  0.00    +0.094 S 
ATOM     10  O   UNL     1       7.663  10.348   2.802  0.00  0.00    -0.148 OA
ATOM     27  O   UNL     1       7.059   8.593   1.179  0.00  0.00    -0.148 OA
BRANCH   9   8
ATOM      1 CL   UNL     1       9.903   9.707   4.803  0.00  0.00    -0.081 Cl
ATOM      2  C   UNL     1       9.261   8.116   4.480  0.00  0.00    +0.079 A 
ATOM      3  C   UNL     1       9.517   7.104   5.405  0.00  0.00    +0.042 A 
ATOM      4  C   UNL     1       9.024   5.819   5.190  0.00  0.00    +0.141 A 
ATOM      5  F   UNL     1       9.266   4.872   6.054  0.00  0.00    -0.204 F 
ATOM      6  C   UNL     1       8.273   5.543   4.049  0.00  0.00    +0.031 A 
ATOM      7  C   UNL     1       8.015   6.546   3.123  0.00  0.00    +0.023 A 
ATOM      8  C   UNL     1       8.498   7.836   3.334  0.00  0.00    +0.138 A 
ENDBRANCH   9   8
ENDBRANCH  11   9
ENDBRANCH  12  11
TORSDOF 4
