REMARK  Name = 5EOB
REMARK  3 active torsions:
REMARK  status: ('A' for Active; 'I' for Inactive)
REMARK    1  A    between atoms: C_1  and  C_18
REMARK    2  A    between atoms: C_1  and  C_21
REMARK    3  A    between atoms: C_11  and  C_12
REMARK                            x       y       z     vdW  Elec       q    Type
REMARK                         _______ _______ _______ _____ _____    ______ ____
ROOT
ATOM     14  C   UNL     1       2.283  11.212  29.272  0.00  0.00    +0.226 A 
ATOM     15  N   UNL     1       1.719  10.198  28.542  0.00  0.00    -0.199 N 
ATOM     16  N   UNL     1       0.616   9.401  28.793  0.00  0.00    -0.287 N 
ATOM     17  H   UNL     1       0.053   9.519  29.695  0.00  0.00    +0.188 HD
ATOM     18  C   UNL     1       0.262   8.473  27.881  0.00  0.00    +0.081 A 
ATOM     19  C   UNL     1       1.010   8.317  26.700  0.00  0.00    +0.142 A 
ATOM     20  N   UNL     1       2.085   9.111  26.478  0.00  0.00    -0.217 NA
ATOM     28  C   UNL     1       2.436  10.050  27.420  0.00  0.00    +0.246 A 
ATOM     29  N   UNL     1       3.462  10.974  27.440  0.00  0.00    -0.243 N 
ATOM     30  H   UNL     1       4.206  11.112  26.683  0.00  0.00    +0.192 HD
ATOM     31  N   UNL     1       3.352  11.675  28.597  0.00  0.00    -0.149 NA
ENDROOT
BRANCH  18  21
ATOM     21  C   UNL     1      -0.848   7.667  28.133  0.00  0.00    +0.001 A 
ATOM     22  C   UNL     1      -1.137   6.589  27.315  0.00  0.00    +0.013 A 
ATOM     23  C   UNL     1      -2.237   5.787  27.584  0.00  0.00    +0.039 A 
ATOM     24  C   UNL     1      -3.051   6.074  28.665  0.00  0.00    +0.123 A 
ATOM     25  C   UNL     1      -2.766   7.159  29.480  0.00  0.00    +0.039 A 
ATOM     26  F   UNL     1      -4.120   5.300  28.922  0.00  0.00    -0.205 F 
ATOM     27  C   UNL     1      -1.661   7.954  29.217  0.00  0.00    +0.013 A 
ENDBRANCH  18  21
BRANCH  14   1
ATOM      1  C   UNL     1       1.780  11.680  30.616  0.00  0.00    +0.334 C 
ATOM     12  F   UNL     1       1.546  10.617  31.396  0.00  0.00    -0.191 F 
ATOM     13  F   UNL     1       2.717  12.455  31.164  0.00  0.00    -0.191 F 
BRANCH   1   2
ATOM      2  C   UNL     1       0.524  12.505  30.486  0.00  0.00    +0.029 A 
ATOM      3  C   UNL     1      -0.683  12.013  30.980  0.00  0.00    +0.020 A 
ATOM      4  C   UNL     1      -1.859  12.806  30.862  0.00  0.00    +0.001 A 
ATOM      5  C   UNL     1      -3.109  12.311  31.361  0.00  0.00    +0.011 A 
ATOM      6  C   UNL     1      -4.235  13.124  31.233  0.00  0.00    +0.020 A 
ATOM      7  C   UNL     1      -4.126  14.378  30.624  0.00  0.00    +0.111 A 
ATOM      8  N   UNL     1      -2.933  14.817  30.161  0.00  0.00    -0.255 NA
ATOM      9  C   UNL     1      -1.794  14.050  30.277  0.00  0.00    +0.071 A 
ATOM     10  C   UNL     1      -0.559  14.547  29.767  0.00  0.00    +0.029 A 
ATOM     11  C   UNL     1       0.586  13.763  29.884  0.00  0.00    +0.012 A 
ENDBRANCH   1   2
ENDBRANCH  14   1
TORSDOF 3
