REMARK  Name = 5IA3
REMARK  6 active torsions:
REMARK  status: ('A' for Active; 'I' for Inactive)
REMARK    1  A    between atoms: S_1  and  C_2
REMARK    2  A    between atoms: S_1  and  C_29
REMARK    3  A    between atoms: C_4  and  N_5
REMARK    4  A    between atoms: N_9  and  C_10
REMARK    5  A    between atoms: C_11  and  O_12
REMARK    6  A    between atoms: C_13  and  C_14
REMARK                            x       y       z     vdW  Elec       q    Type
REMARK                         _______ _______ _______ _____ _____    ______ ____
ROOT
ATOM      8  N   UNL     1    -112.355 -14.475  81.856  0.00  0.00    -0.283 N 
ATOM      9  H   UNL     1    -112.626 -13.996  80.939  0.00  0.00    +0.155 HD
ATOM     10  C   UNL     1    -113.348 -15.005  82.597  0.00  0.00    +0.225 A 
ATOM     11  N   UNL     1    -114.571 -15.011  82.036  0.00  0.00    -0.222 NA
ATOM     12  C   UNL     1    -115.678 -15.532  82.714  0.00  0.00    +0.130 A 
ATOM     13  C   UNL     1    -115.493 -16.057  83.986  0.00  0.00    +0.086 A 
ATOM     14  C   UNL     1    -116.555 -16.600  84.713  0.00  0.00    +0.036 A 
ATOM     15  C   UNL     1    -116.316 -17.117  85.986  0.00  0.00    +0.097 A 
ATOM     24  C   UNL     1    -115.016 -17.066  86.488  0.00  0.00    +0.379 A 
ATOM     27  N   UNL     1    -114.013 -16.538  85.761  0.00  0.00    -0.145 N 
ATOM     28  C   UNL     1    -112.641 -16.506  86.327  0.00  0.00    +0.445 C 
ATOM     29  C   UNL     1    -114.220 -16.035  84.532  0.00  0.00    +0.319 A 
ATOM     30  N   UNL     1    -113.193 -15.514  83.836  0.00  0.00    -0.152 NA
ENDROOT
BRANCH  15  16
ATOM     16  C   UNL     1    -117.351 -17.675  86.750  0.00  0.00    +0.028 A 
ATOM     17  C   UNL     1    -117.923 -16.972  87.809  0.00  0.00    +0.050 A 
ATOM     18  C   UNL     1    -118.945 -17.540  88.567  0.00  0.00    +0.021 A 
ATOM     19  C   UNL     1    -119.413 -18.817  88.279  0.00  0.00    +0.003 A 
ATOM     20  C   UNL     1    -118.849 -19.526  87.225  0.00  0.00    +0.021 A 
ATOM     21 CL   UNL     1    -117.369 -15.397  88.186  0.00  0.00    -0.083 Cl
ATOM     22  C   UNL     1    -117.828 -18.959  86.470  0.00  0.00    +0.050 A 
ATOM     23 CL   UNL     1    -117.166 -19.874  85.187  0.00  0.00    -0.083 Cl
ENDBRANCH  15  16
BRANCH   8   7
ATOM      3  C   UNL     1    -108.770 -14.313  81.365  0.00  0.00    +0.009 A 
ATOM      4  C   UNL     1    -108.267 -14.481  82.650  0.00  0.00    +0.015 A 
ATOM      5  C   UNL     1    -109.154 -14.654  83.703  0.00  0.00    +0.003 A 
ATOM      6  C   UNL     1    -110.524 -14.660  83.470  0.00  0.00    +0.023 A 
ATOM      7  C   UNL     1    -111.041 -14.501  82.181  0.00  0.00    +0.035 A 
ATOM     31  C   UNL     1    -110.141 -14.317  81.141  0.00  0.00    +0.038 A 
BRANCH   3   1
ATOM      1  S   UNL     1    -107.703 -14.097  80.033  0.00  0.00    -0.129 S 
ATOM      2  C   UNL     1    -107.274 -15.786  79.675  0.00  0.00    +0.090 C 
ENDBRANCH   3   1
ENDBRANCH   8   7
BRANCH  24  25
ATOM     25  O   UNL     1    -114.757 -17.508  87.609  0.00  0.00    -0.459 OA
ATOM     26  H   UNL     1    -114.049 -18.279  87.527  0.00  0.00    +0.298 HD
ENDBRANCH  24  25
TORSDOF 4
