REMARK  Name = 4aze_ligand
REMARK  3 active torsions:
REMARK  status: ('A' for Active; 'I' for Inactive)
REMARK    1  A    between atoms: CAF_6  and  NAG_7
REMARK    2  A    between atoms: CAJ_10  and  CAN_14
REMARK    3  A    between atoms: CAN_14  and  CAO_15
REMARK                            x       y       z     vdW  Elec       q    Type
REMARK                         _______ _______ _______ _____ _____    ______ ____
ROOT
ATOM      3  N   UNL     1     -38.379 -21.687  24.636  0.00  0.00    -0.234 N 
ATOM      4  H   UNL     1     -38.942 -22.325  24.056  0.00  0.00    +0.227 HD
ATOM      5  C   UNL     1     -37.867 -22.141  25.772  0.00  0.00    +0.190 C 
ATOM      6  N   UNL     1     -37.926 -23.415  26.107  0.00  0.00    -0.265 NA
ATOM      7  C   UNL     1     -37.308 -23.517  27.265  0.00  0.00    +0.246 C 
ATOM      8  O   UNL     1     -37.176 -24.561  27.902  0.00  0.00    -0.309 OA
ATOM      9  C   UNL     1     -36.841 -22.276  27.649  0.00  0.00    +0.132 C 
ATOM     20  N   UNL     1     -37.215 -21.433  26.694  0.00  0.00    -0.222 NA
ENDROOT
BRANCH   3   2
ATOM      1  C   UNL     1     -38.264 -19.367  25.083  0.00  0.00    +0.019 A 
ATOM      2  C   UNL     1     -38.192 -20.440  24.219  0.00  0.00    +0.072 A 
ATOM     21  C   UNL     1     -37.934 -20.203  22.871  0.00  0.00    +0.019 A 
ATOM     22  C   UNL     1     -37.745 -18.910  22.376  0.00  0.00    -0.011 A 
ATOM     23  C   UNL     1     -37.816 -17.839  23.240  0.00  0.00    -0.020 A 
ATOM     24  C   UNL     1     -38.066 -18.087  24.579  0.00  0.00    -0.011 A 
ENDBRANCH   3   2
BRANCH   9  10
ATOM     10  C   UNL     1     -36.151 -22.129  28.858  0.00  0.00    +0.195 C 
BRANCH  10  11
ATOM     11  C   UNL     1     -35.601 -20.934  29.348  0.00  0.00    -0.039 A 
ATOM     12  C   UNL     1     -34.801 -21.020  30.482  0.00  0.00    -0.031 A 
ATOM     13  C   UNL     1     -34.213 -19.883  31.009  0.00  0.00    +0.003 A 
ATOM     14  C   UNL     1     -34.440 -18.656  30.420  0.00  0.00    +0.117 A 
ATOM     15  O   UNL     1     -34.000 -17.417  30.743  0.00  0.00    -0.295 OA
ATOM     16  C   UNL     1     -34.145 -16.684  29.501  0.00  0.00    +0.380 C 
ATOM     17  O   UNL     1     -35.308 -17.264  28.909  0.00  0.00    -0.292 OA
ATOM     18  C   UNL     1     -35.248 -18.564  29.296  0.00  0.00    +0.118 A 
ATOM     19  C   UNL     1     -35.835 -19.694  28.768  0.00  0.00    +0.011 A 
ENDBRANCH  10  11
ENDBRANCH   9  10
TORSDOF 3
