REMARK  Name = 501
REMARK  0 active torsions:
REMARK  status: ('A' for Active; 'I' for Inactive)
REMARK                            x       y       z     vdW  Elec       q    Type
REMARK                         _______ _______ _______ _____ _____    ______ ____
ROOT
ATOM      1  O   UNL     1      11.000   5.131  24.277  0.00  0.00    -0.279 OA
ATOM      2  C   UNL     1      12.000   5.257  25.122  0.00  0.00    +0.279 C 
ENDROOT
TORSDOF 0
