REMARK  Name = 1xkk_ligand
REMARK  11 active torsions:
REMARK  status: ('A' for Active; 'I' for Inactive)
REMARK    1  A    between atoms: C1_1  and  S2_2
REMARK    2  A    between atoms: S2_2  and  C5_5
REMARK    3  A    between atoms: C5_5  and  C6_6
REMARK    4  A    between atoms: C6_6  and  N7_7
REMARK    5  A    between atoms: N7_7  and  C8_8
REMARK    6  A    between atoms: C8_8  and  C9_9
REMARK    7  A    between atoms: C12_12  and  C14_14
REMARK    8  A    between atoms: N22_22  and  C23_23
REMARK    9  A    between atoms: C26_26  and  O27_27
REMARK   10  A    between atoms: O27_27  and  C28_28
REMARK   11  A    between atoms: C28_28  and  C29_29
REMARK                            x       y       z     vdW  Elec       q    Type
REMARK                         _______ _______ _______ _____ _____    ______ ____
ROOT
ATOM     12  C   UNL     1      16.176  32.058  35.407  0.00  0.00    +0.008 A 
ATOM     13  C   UNL     1      16.220  32.545  36.731  0.00  0.00    +0.023 A 
ATOM     14  C   UNL     1      15.053  32.959  37.349  0.00  0.00    +0.052 A 
ATOM     15  C   UNL     1      15.077  33.452  38.668  0.00  0.00    +0.158 A 
ATOM     16  N   UNL     1      16.282  33.527  39.366  0.00  0.00    -0.252 N 
ATOM     17  H   UNL     1      17.162  33.345  38.863  0.00  0.00    +0.220 HD
ATOM     34  N   UNL     1      13.899  33.863  39.260  0.00  0.00    -0.255 NA
ATOM     35  C   UNL     1      12.708  33.790  38.568  0.00  0.00    +0.162 A 
ATOM     36  N   UNL     1      12.683  33.305  37.276  0.00  0.00    -0.296 NA
ATOM     37  C   UNL     1      13.849  32.890  36.664  0.00  0.00    +0.041 A 
ATOM     38  C   UNL     1      13.807  32.402  35.359  0.00  0.00    +0.020 A 
ATOM     39  C   UNL     1      14.958  31.986  34.735  0.00  0.00    +0.015 A 
ENDROOT
BRANCH  16  18
ATOM     18  C   UNL     1      16.332  33.843  40.735  0.00  0.00    +0.059 A 
ATOM     19  C   UNL     1      15.607  33.098  41.660  0.00  0.00    +0.022 A 
ATOM     20  C   UNL     1      15.665  33.415  42.999  0.00  0.00    +0.060 A 
ATOM     21 CL   UNL     1      14.784  32.514  44.128  0.00  0.00    -0.081 Cl
ATOM     22  C   UNL     1      16.428  34.457  43.438  0.00  0.00    +0.098 A 
ATOM     32  C   UNL     1      17.164  35.215  42.535  0.00  0.00    +0.012 A 
ATOM     33  C   UNL     1      17.118  34.909  41.178  0.00  0.00    +0.008 A 
BRANCH  22  23
ATOM     23  O   UNL     1      16.446  34.747  44.828  0.00  0.00    -0.311 OA
BRANCH  23  24
ATOM     24  C   UNL     1      17.065  36.002  45.143  0.00  0.00    +0.257 C 
BRANCH  24  25
ATOM     25  C   UNL     1      16.085  37.181  44.984  0.00  0.00    -0.015 A 
ATOM     26  C   UNL     1      14.772  36.966  44.573  0.00  0.00    +0.030 A 
ATOM     27  C   UNL     1      13.916  38.036  44.429  0.00  0.00    +0.126 A 
ATOM     28  F   UNL     1      12.679  37.837  44.035  0.00  0.00    -0.185 F 
ATOM     29  C   UNL     1      14.354  39.312  44.693  0.00  0.00    +0.019 A 
ATOM     30  C   UNL     1      15.653  39.527  45.102  0.00  0.00    -0.011 A 
ATOM     31  C   UNL     1      16.519  38.462  45.246  0.00  0.00    -0.010 A 
ENDBRANCH  24  25
ENDBRANCH  23  24
ENDBRANCH  22  23
ENDBRANCH  16  18
BRANCH  12  11
ATOM      9  C   UNL     1      19.416  31.208  34.223  0.00  0.00    +0.147 A 
ATOM     10  O   UNL     1      18.655  31.653  35.363  0.00  0.00    -0.252 OA
ATOM     11  C   UNL     1      17.409  31.645  34.731  0.00  0.00    +0.113 A 
ATOM     40  C   UNL     1      17.445  31.237  33.421  0.00  0.00    -0.028 A 
ATOM     41  C   UNL     1      18.674  30.977  33.121  0.00  0.00    -0.028 A 
BRANCH   9   8
ATOM      8  C   UNL     1      20.914  31.019  34.265  0.00  0.00    +0.240 C 
BRANCH   8   5
ATOM      5  N   UNL     1      21.569  32.184  33.665  0.00  0.00    +0.244 N 
ATOM      6  H   UNL     1      22.344  32.468  34.243  0.00  0.00    +0.203 HD
ATOM      7  H   UNL     1      20.907  32.941  33.594  0.00  0.00    +0.203 HD
BRANCH   5   4
ATOM      4  C   UNL     1      22.061  31.836  32.324  0.00  0.00    +0.154 C 
BRANCH   4   3
ATOM      3  C   UNL     1      23.587  31.980  32.291  0.00  0.00    +0.216 C 
BRANCH   3   2
ATOM      1  C   UNL     1      22.604  34.487  31.141  0.00  0.00    +0.194 C 
ATOM      2  S   UNL     1      24.036  33.465  31.350  0.00  0.00    -0.029 S 
ATOM     42  O   UNL     1      24.543  33.077  30.053  0.00  0.00    -0.174 OA
ATOM     43  O   UNL     1      25.053  34.204  32.067  0.00  0.00    -0.174 OA
ENDBRANCH   3   2
ENDBRANCH   4   3
ENDBRANCH   5   4
ENDBRANCH   8   5
ENDBRANCH   9   8
ENDBRANCH  12  11
TORSDOF 10
