REMARK  Name = 7CQ
REMARK  5 active torsions:
REMARK  status: ('A' for Active; 'I' for Inactive)
REMARK    1  A    between atoms: N12_1  and  C13_2
REMARK    2  A    between atoms: N12_1  and  S02_9
REMARK    3  A    between atoms: C15_3  and  N16_20
REMARK    4  A    between atoms: S02_9  and  C03_10
REMARK    5  A    between atoms: C04_11  and  O05_12
REMARK                            x       y       z     vdW  Elec       q    Type
REMARK                         _______ _______ _______ _____ _____    ______ ____
ROOT
ATOM      1  N   UNL     1     -10.414  -9.530   1.798  0.00  0.00    -0.096 NA
ENDROOT
BRANCH   1  14
ATOM     14  C   UNL     1     -11.435  -8.641   1.662  0.00  0.00    +0.092 A 
ATOM     15  C   UNL     1     -12.546  -8.783   2.509  0.00  0.00    +0.018 A 
ATOM     16  C   UNL     1     -13.622  -7.897   2.406  0.00  0.00    +0.003 A 
ATOM     17  C   UNL     1     -13.592  -6.861   1.468  0.00  0.00    +0.015 A 
ATOM     18  C   UNL     1     -12.494  -6.681   0.614  0.00  0.00    +0.055 A 
ATOM     25  C   UNL     1     -11.426  -7.594   0.737  0.00  0.00    +0.033 A 
BRANCH  18  19
ATOM     19  N   UNL     1     -12.407  -5.675  -0.332  0.00  0.00    -0.259 N 
ATOM     20  C   UNL     1     -13.380  -4.822  -0.733  0.00  0.00    +0.229 C 
ATOM     21  O   UNL     1     -14.556  -4.781  -0.319  0.00  0.00    -0.275 OA
ATOM     22  C   UNL     1     -12.924  -3.891  -1.761  0.00  0.00    +0.087 C 
ATOM     23  C   UNL     1     -11.401  -4.061  -1.762  0.00  0.00    +0.032 C 
ATOM     24  C   UNL     1     -11.190  -5.415  -1.056  0.00  0.00    +0.099 C 
ENDBRANCH  18  19
ENDBRANCH   1  14
BRANCH   1   2
ATOM      2  S   UNL     1      -8.848  -8.958   2.133  0.00  0.00    +0.096 S 
ATOM     12  O   UNL     1      -7.877 -10.198   2.290  0.00  0.00    -0.148 OA
ATOM     13  O   UNL     1      -8.336  -7.941   1.021  0.00  0.00    -0.148 OA
BRANCH   2   3
ATOM      3  C   UNL     1      -8.988  -8.054   3.622  0.00  0.00    +0.161 A 
ATOM      4  C   UNL     1      -9.522  -8.656   4.767  0.00  0.00    +0.158 A 
ATOM      5  C   UNL     1      -9.620  -7.907   5.951  0.00  0.00    +0.039 A 
ATOM      6  C   UNL     1      -9.180  -6.575   5.954  0.00  0.00    +0.010 A 
ATOM      7  C   UNL     1      -8.647  -6.010   4.799  0.00  0.00    +0.036 A 
ATOM      8 BR   UNL     1      -8.063  -4.268   4.811  0.00  0.00    -0.049 Br
ATOM     11  C   UNL     1      -8.556  -6.732   3.617  0.00  0.00    +0.030 A 
BRANCH   4   9
ATOM      9  O   UNL     1      -9.926  -9.949   4.668  0.00  0.00    -0.470 OA
ATOM     10  C   UNL     1     -10.244 -10.662   5.882  0.00  0.00    +0.253 C 
ENDBRANCH   4   9
ENDBRANCH   2   3
ENDBRANCH   1   2
TORSDOF 5
