REMARK  Name = 6S1H
REMARK  1 active torsions:
REMARK  status: ('A' for Active; 'I' for Inactive)
REMARK    1  A    between atoms: C5_10  and  C6_11
REMARK                            x       y       z     vdW  Elec       q    Type
REMARK                         _______ _______ _______ _____ _____    ______ ____
ROOT
ATOM      1  C   UNL     1      16.400 -55.571  37.416  0.00  0.00    -0.130 A 
ATOM      2  C   UNL     1      16.502 -54.359  38.099  0.00  0.00    +0.000 A 
ATOM      3  C   UNL     1      15.634 -54.171  39.186  0.00  0.00    +0.550 A 
ATOM      4  N   UNL     1      14.716 -55.036  39.626  0.00  0.00    -0.730 NA
ATOM      5  C   UNL     1      14.642 -56.184  38.932  0.00  0.00    +0.250 A 
ATOM      6  N   UNL     1      15.896 -52.946  39.740  0.00  0.00    -0.600 NA
ATOM      7  C   UNL     1      16.909 -52.351  39.030  0.00  0.00    -0.050 A 
ATOM      8  C   UNL     1      17.339 -53.164  38.020  0.00  0.00    +0.050 A 
ATOM     18  C   UNL     1      15.449 -56.490  37.844  0.00  0.00    -0.130 A 
ENDROOT
BRANCH   8   9
ATOM      9  C   UNL     1      18.421 -52.858  37.076  0.00  0.00    +0.100 A 
ATOM     10  N   UNL     1      18.640 -53.751  36.102  0.00  0.00    -0.480 NA
ATOM     11  C   UNL     1      19.650 -53.477  35.248  0.00  0.00    +0.810 A 
ATOM     12  N   UNL     1      20.460 -52.403  35.304  0.00  0.00    -0.760 NA
ATOM     13  C   UNL     1      20.190 -51.534  36.289  0.00  0.00    +0.250 A 
ATOM     14  N   UNL     1      19.816 -54.323  34.214  0.00  0.00    -0.250 N 
ATOM     15  C   UNL     1      19.041 -55.545  34.115  0.00  0.00    -0.050 C 
ATOM     16  C   UNL     1      20.765 -54.047  33.146  0.00  0.00    -0.050 C 
ATOM     17  C   UNL     1      19.170 -51.699  37.195  0.00  0.00    -0.130 A 
ENDBRANCH   8   9
TORSDOF 1
