REMARK  Name = 2hzi_ligand
REMARK  4 active torsions:
REMARK  status: ('A' for Active; 'I' for Inactive)
REMARK    1  A    between atoms: C13_3  and  N11_22
REMARK    2  A    between atoms: C19_6  and  C09_24
REMARK    3  A    between atoms: C27_8  and  N08_16
REMARK    4  A    between atoms: C34_11  and  C29_13
REMARK                            x       y       z     vdW  Elec       q    Type
REMARK                         _______ _______ _______ _____ _____    ______ ____
ROOT
ATOM      1  C   UNL     1      18.718  14.507   3.584  0.00  0.00    +0.042 A 
ATOM      2  C   UNL     1      17.506  13.853   3.414  0.00  0.00    +0.051 A 
ATOM      3  C   UNL     1      16.392  14.407   3.986  0.00  0.00    +0.165 A 
ATOM      4  N   UNL     1      16.441  15.494   4.744  0.00  0.00    -0.197 N 
ATOM      5  C   UNL     1      15.153  16.002   5.311  0.00  0.00    +0.230 C 
ATOM      6  C   UNL     1      17.605  16.133   4.930  0.00  0.00    +0.228 A 
ATOM      7  O   UNL     1      17.586  17.153   5.621  0.00  0.00    -0.393 OA
ATOM      8  N   UNL     1      15.183  13.830   3.831  0.00  0.00    -0.231 NA
ATOM      9  C   UNL     1      15.136  12.713   3.087  0.00  0.00    +0.197 A 
ATOM     10  N   UNL     1      16.163  12.126   2.521  0.00  0.00    -0.262 NA
ATOM     11  N   UNL     1      13.988  12.055   2.867  0.00  0.00    -0.246 N 
ATOM     12  H   UNL     1      14.070  11.126   2.429  0.00  0.00    +0.219 HD
ATOM     21  C   UNL     1      17.384  12.685   2.640  0.00  0.00    +0.107 A 
ATOM     22  C   UNL     1      18.791  15.681   4.335  0.00  0.00    +0.055 A 
ENDROOT
BRANCH  11  13
ATOM     13  C   UNL     1      12.721  12.478   3.158  0.00  0.00    +0.056 A 
ATOM     14  C   UNL     1      12.282  13.403   4.121  0.00  0.00    +0.001 A 
ATOM     15  C   UNL     1      10.927  13.709   4.343  0.00  0.00    +0.012 A 
ATOM     16  C   UNL     1       9.942  13.081   3.623  0.00  0.00    +0.121 A 
ATOM     17  C   UNL     1      10.339  12.155   2.688  0.00  0.00    -0.021 A 
ATOM     18  C   UNL     1       9.222  11.461   1.955  0.00  0.00    +0.082 C 
ATOM     19  F   UNL     1       8.671  13.363   3.887  0.00  0.00    -0.198 F 
ATOM     20  C   UNL     1      11.693  11.786   2.486  0.00  0.00    +0.008 A 
ENDBRANCH  11  13
BRANCH  22  23
ATOM     23  C   UNL     1      20.129  16.320   4.503  0.00  0.00    +0.010 A 
ATOM     24  C   UNL     1      20.538  17.263   3.544  0.00  0.00    +0.045 A 
ATOM     25 CL   UNL     1      19.697  17.581   2.047  0.00  0.00    -0.072 Cl
ATOM     26  C   UNL     1      21.711  18.023   3.711  0.00  0.00    +0.011 A 
ATOM     27  C   UNL     1      22.456  17.838   4.911  0.00  0.00    -0.004 A 
ATOM     28  C   UNL     1      22.052  16.867   5.863  0.00  0.00    +0.011 A 
ATOM     29  C   UNL     1      20.867  16.145   5.645  0.00  0.00    +0.045 A 
ATOM     30 CL   UNL     1      20.377  14.917   6.850  0.00  0.00    -0.072 Cl
ENDBRANCH  22  23
TORSDOF 2
