REMARK  Name = 579
REMARK  6 active torsions:
REMARK  status: ('A' for Active; 'I' for Inactive)
REMARK    1  A    between atoms: C2_2  and  C3_4
REMARK    2  A    between atoms: C4_5  and  C27_20
REMARK    3  A    between atoms: C7_7  and  C8_8
REMARK    4  A    between atoms: C11_9  and  N10_23
REMARK    5  A    between atoms: C13_11  and  S18_29
REMARK    6  A    between atoms: N21_24  and  S18_29
REMARK                            x       y       z     vdW  Elec       q    Type
REMARK                         _______ _______ _______ _____ _____    ______ ____
ROOT
ATOM      7  C   UNL     1      16.286  -6.376  -5.571  0.00  0.00    +0.075 A 
ATOM      8  C   UNL     1      17.217  -6.349  -4.535  0.00  0.00    +0.019 A 
ATOM      9  C   UNL     1      17.870  -5.161  -4.227  0.00  0.00    +0.032 A 
ATOM     10  C   UNL     1      17.584  -3.984  -4.927  0.00  0.00    +0.159 A 
ATOM     11  F   UNL     1      18.249  -2.868  -4.568  0.00  0.00    -0.203 F 
ATOM     12  C   UNL     1      16.638  -3.963  -5.956  0.00  0.00    +0.151 A 
ATOM     22  C   UNL     1      16.003  -5.168  -6.270  0.00  0.00    +0.039 A 
ENDROOT
BRANCH   7   6
ATOM      5  C   UNL     1      15.096  -7.858  -7.022  0.00  0.00    +0.286 C 
ATOM      6  N   UNL     1      15.729  -7.602  -5.870  0.00  0.00    -0.174 NA
ATOM     23  O   UNL     1      14.986  -7.017  -7.885  0.00  0.00    -0.266 OA
BRANCH   5   4
ATOM      3  C   UNL     1      14.844 -10.531  -6.947  0.00  0.00    +0.004 A 
ATOM      4  C   UNL     1      14.484  -9.163  -7.418  0.00  0.00    +0.132 A 
ATOM     24  N   UNL     1      13.525  -9.239  -8.358  0.00  0.00    -0.245 NA
ATOM     25  C   UNL     1      13.148 -10.505  -8.568  0.00  0.00    +0.062 A 
ATOM     26  C   UNL     1      12.113 -10.948  -9.561  0.00  0.00    +0.052 C 
ATOM     27  C   UNL     1      13.986 -11.350  -7.688  0.00  0.00    +0.046 A 
BRANCH  27  28
ATOM     28  C   UNL     1      13.877 -12.830  -7.679  0.00  0.00    +0.174 C 
ATOM     29  C   UNL     1      15.095 -13.611  -7.268  0.00  0.00    +0.077 C 
ATOM     30  O   UNL     1      12.874 -13.403  -8.071  0.00  0.00    -0.291 OA
ENDBRANCH  27  28
BRANCH   3   2
ATOM      1  C   UNL     1      15.190 -11.404  -4.652  0.00  0.00    +0.005 C 
ATOM      2  C   UNL     1      15.873 -10.938  -5.909  0.00  0.00    +0.028 C 
ENDBRANCH   3   2
ENDBRANCH   5   4
ENDBRANCH   7   6
BRANCH  12  13
ATOM     13  S   UNL     1      16.288  -2.601  -6.802  0.00  0.00    +0.066 S 
ATOM     14  O   UNL     1      16.236  -1.463  -5.905  0.00  0.00    -0.153 OA
ATOM     15  O   UNL     1      15.007  -2.726  -7.453  0.00  0.00    -0.153 OA
BRANCH  13  16
ATOM     16  N   UNL     1      17.432  -2.453  -7.798  0.00  0.00    -0.150 NA
ATOM     17  C   UNL     1      18.615  -1.685  -7.406  0.00  0.00    +0.128 C 
ATOM     18  C   UNL     1      19.219  -1.018  -8.645  0.00  0.00    +0.161 C 
ATOM     19  O   UNL     1      19.298  -1.931  -9.749  0.00  0.00    -0.351 OA
ATOM     20  C   UNL     1      17.990  -2.316 -10.167  0.00  0.00    +0.161 C 
ATOM     21  C   UNL     1      17.345  -3.158  -9.077  0.00  0.00    +0.128 C 
ENDBRANCH  13  16
ENDBRANCH  12  13
TORSDOF 6
