REMARK  Name = 5DLS
REMARK  14 active torsions:
REMARK  status: ('A' for Active; 'I' for Inactive)
REMARK    1  A    between atoms: C_1  and  N_27
REMARK    2  A    between atoms: C_3  and  C_11
REMARK    3  A    between atoms: C_5  and  O_20
REMARK    4  A    between atoms: C_6  and  N_15
REMARK    5  A    between atoms: C_7  and  C_28
REMARK    6  A    between atoms: C_8  and  N_15
REMARK    7  A    between atoms: C_9  and  C_17
REMARK    8  A    between atoms: C_9  and  O_20
REMARK    9  A    between atoms: N_15  and  C_16
REMARK   10  A    between atoms: C_16  and  C_17
REMARK   11  A    between atoms: C_17  and  C_18
REMARK   12  A    between atoms: C_17  and  C_19
REMARK   13  A    between atoms: N_33  and  C_34
REMARK   14  A    between atoms: C_34  and  C_35
REMARK                            x       y       z     vdW  Elec       q    Type
REMARK                         _______ _______ _______ _____ _____    ______ ____
ROOT
ATOM      1  C   UNL     1       5.870  -4.046  18.087  0.00  0.00    +0.051 C 
ATOM     18  C   UNL     1       4.532  -4.360  18.351  0.00  0.00    +0.040 C 
ATOM     19  C   UNL     1       3.792  -3.596  19.232  0.00  0.00    +0.066 C 
ATOM     20  C   UNL     1       4.384  -2.507  19.882  0.00  0.00    +0.258 C 
ATOM     21  N   UNL     1       5.695  -2.172  19.619  0.00  0.00    -0.327 N 
ATOM     22  H   UNL     1       6.135  -1.308  20.072  0.00  0.00    +0.168 HD
ATOM     23  O   UNL     1       3.762  -1.791  20.700  0.00  0.00    -0.267 OA
ATOM     42  C   UNL     1       6.442  -2.975  18.753  0.00  0.00    +0.109 C 
ENDROOT
BRANCH  19  24
ATOM     24  C   UNL     1       2.435  -3.833  19.479  0.00  0.00    +0.077 A 
ATOM     25  N   UNL     1       1.652  -2.943  20.123  0.00  0.00    -0.247 NA
ATOM     26  C   UNL     1       0.424  -3.405  20.180  0.00  0.00    +0.072 A 
ATOM     27  C   UNL     1      -0.707  -2.863  20.771  0.00  0.00    +0.032 A 
ATOM     28  C   UNL     1      -1.891  -3.561  20.695  0.00  0.00    +0.048 A 
ATOM     29  C   UNL     1      -1.926  -4.787  20.064  0.00  0.00    +0.121 A 
ATOM     39  C   UNL     1      -0.786  -5.345  19.477  0.00  0.00    +0.055 A 
ATOM     40  C   UNL     1       0.405  -4.629  19.533  0.00  0.00    +0.006 A 
ATOM     41  C   UNL     1       1.662  -4.855  19.090  0.00  0.00    +0.038 A 
BRANCH  29  30
ATOM     30  O   UNL     1      -3.147  -5.380  20.042  0.00  0.00    -0.491 OA
BRANCH  30  31
ATOM     31  C   UNL     1      -3.049  -6.738  19.593  0.00  0.00    +0.236 C 
BRANCH  31  32
ATOM     32  C   UNL     1      -4.017  -7.474  20.498  0.00  0.00    +0.012 C 
ATOM     33  C   UNL     1      -5.217  -6.566  20.886  0.00  0.00    +0.015 C 
ATOM     34  C   UNL     1      -3.203  -7.898  21.741  0.00  0.00    +0.015 C 
BRANCH  32  35
ATOM     35  C   UNL     1      -4.503  -8.695  19.710  0.00  0.00    +0.093 C 
BRANCH  35  36
ATOM     36  N   UNL     1      -4.885  -8.302  18.338  0.00  0.00    -0.308 NA
ATOM     37  C   UNL     1      -4.370  -9.259  17.338  0.00  0.00    +0.104 C 
ATOM     38  C   UNL     1      -6.337  -8.054  18.184  0.00  0.00    +0.104 C 
ENDBRANCH  35  36
ENDBRANCH  32  35
ENDBRANCH  31  32
ENDBRANCH  30  31
ENDBRANCH  29  30
ENDBRANCH  19  24
BRANCH   1   2
ATOM      2  N   UNL     1       6.591  -4.810  17.234  0.00  0.00    -0.280 N 
ATOM      3  H   UNL     1       6.201  -5.788  17.044  0.00  0.00    +0.155 HD
ATOM      4  C   UNL     1       7.759  -4.497  16.578  0.00  0.00    +0.251 C 
ATOM      5  O   UNL     1       8.350  -3.408  16.694  0.00  0.00    -0.270 OA
BRANCH   4   6
ATOM      6  C   UNL     1       8.433  -5.600  15.767  0.00  0.00    +0.074 A 
ATOM      7  C   UNL     1       9.746  -5.726  15.412  0.00  0.00    +0.147 A 
ATOM      8  N   UNL     1       9.872  -6.910  14.713  0.00  0.00    -0.179 NA
ATOM      9  N   UNL     1       8.551  -7.520  14.715  0.00  0.00    -0.266 N 
ATOM     17  C   UNL     1       7.730  -6.676  15.348  0.00  0.00    +0.121 A 
BRANCH   9  10
ATOM     10  C   UNL     1       8.047  -8.776  14.145  0.00  0.00    +0.178 C 
BRANCH  10  11
ATOM     11  C   UNL     1       8.635  -9.941  14.934  0.00  0.00    -0.026 A 
ATOM     12  C   UNL     1       9.649 -10.743  14.376  0.00  0.00    +0.005 A 
ATOM     13  C   UNL     1      10.182 -11.798  15.133  0.00  0.00    +0.000 A 
ATOM     14  C   UNL     1       9.706 -12.042  16.439  0.00  0.00    +0.000 A 
ATOM     15  C   UNL     1       8.693 -11.255  17.004  0.00  0.00    +0.000 A 
ATOM     16  C   UNL     1       8.159 -10.199  16.241  0.00  0.00    +0.005 A 
ENDBRANCH  10  11
ENDBRANCH   9  10
ENDBRANCH   4   6
ENDBRANCH   1   2
TORSDOF 10
