REMARK  Name = 1pmv_ligand
REMARK  0 active torsions:
REMARK  status: ('A' for Active; 'I' for Inactive)
REMARK                            x       y       z     vdW  Elec       q    Type
REMARK                         _______ _______ _______ _____ _____    ______ ____
ROOT
ATOM      1  C   UNL     1      22.016  31.290  21.128  0.00  0.00    +0.006 A 
ATOM      2  C   UNL     1      22.746  30.233  21.735  0.00  0.00    +0.004 A 
ATOM      3  C   UNL     1      22.366  28.883  21.485  0.00  0.00    +0.021 A 
ATOM      4  C   UNL     1      21.262  28.580  20.629  0.00  0.00    +0.037 A 
ATOM      5  C   UNL     1      20.891  27.138  20.399  0.00  0.00    +0.152 A 
ATOM      6  O   UNL     1      21.522  26.216  20.930  0.00  0.00    -0.375 OA
ATOM      7  C   UNL     1      19.741  26.848  19.498  0.00  0.00    +0.029 A 
ATOM      8  C   UNL     1      19.270  25.531  19.179  0.00  0.00    +0.008 A 
ATOM      9  C   UNL     1      18.149  25.389  18.305  0.00  0.00    -0.002 A 
ATOM     10  C   UNL     1      17.497  26.544  17.753  0.00  0.00    +0.034 A 
ATOM     11  C   UNL     1      17.980  27.811  18.086  0.00  0.00    +0.097 A 
ATOM     12  N   UNL     1      17.637  29.107  17.770  0.00  0.00    -0.205 N 
ATOM     13  H   UNL     1      16.851  29.337  17.145  0.00  0.00    +0.251 HD
ATOM     14  N   UNL     1      18.449  30.098  18.371  0.00  0.00    -0.187 NA
ATOM     15  C   UNL     1      19.357  29.372  19.111  0.00  0.00    +0.074 A 
ATOM     16  C   UNL     1      19.057  28.006  18.917  0.00  0.00    +0.034 A 
ATOM     17  C   UNL     1      20.529  29.681  20.012  0.00  0.00    +0.008 A 
ATOM     18  C   UNL     1      20.912  31.009  20.271  0.00  0.00    +0.012 A 
ENDROOT
TORSDOF 0
