REMARK  Name = 6Q4K
REMARK  4 active torsions:
REMARK  status: ('A' for Active; 'I' for Inactive)
REMARK    1  A    between atoms: C4_1  and  C3_13
REMARK    2  A    between atoms: C8_7  and  C9_8
REMARK    3  A    between atoms: C10_9  and  N1_12
REMARK    4  A    between atoms: C1_15  and  C2_17
REMARK                            x       y       z     vdW  Elec       q    Type
REMARK                         _______ _______ _______ _____ _____    ______ ____
ROOT
ATOM      1  C   UNL     1      25.334  -6.447 -18.757  0.00  0.00    +0.000 A 
ATOM      2  C   UNL     1      25.249  -6.458 -17.368  0.00  0.00    -0.130 A 
ATOM      3  C   UNL     1      24.415  -7.345 -16.719  0.00  0.00    +0.000 A 
ATOM     14  C   UNL     1      23.677  -8.276 -17.450  0.00  0.00    -0.130 A 
ATOM     15  C   UNL     1      23.802  -8.328 -18.825  0.00  0.00    -0.130 A 
ATOM     21  C   UNL     1      24.614  -7.408 -19.477  0.00  0.00    -0.130 A 
ENDROOT
BRANCH   3   4
ATOM      4  C   UNL     1      24.318  -7.263 -15.233  0.00  0.00    +0.600 C 
ATOM      5  O   UNL     1      25.323  -7.256 -14.525  0.00  0.00    -0.550 OA
ATOM      6  N   UNL     1      23.077  -7.141 -14.747  0.00  0.00    -0.350 NA
BRANCH   6   7
ATOM      7  C   UNL     1      22.706  -6.959 -13.413  0.00  0.00    +0.050 A 
ATOM      8  C   UNL     1      21.376  -7.178 -13.124  0.00  0.00    -0.130 A 
ATOM      9  C   UNL     1      20.909  -7.027 -11.835  0.00  0.00    -0.130 A 
ATOM     10  C   UNL     1      21.763  -6.571 -10.858  0.00  0.00    +0.200 A 
ATOM     11 CL   UNL     1      21.156  -6.322  -9.259  0.00  0.00    -0.200 Cl
ATOM     12  C   UNL     1      23.081  -6.305 -11.130  0.00  0.00    -0.130 A 
ATOM     13  C   UNL     1      23.548  -6.474 -12.422  0.00  0.00    -0.130 A 
ENDBRANCH   6   7
ENDBRANCH   3   4
BRANCH   1  16
ATOM     16  C   UNL     1      26.161  -5.416 -19.393  0.00  0.00    -0.100 C 
ATOM     17  C   UNL     1      26.063  -4.936 -20.586  0.00  0.00    -0.100 C 
BRANCH  17  18
ATOM     18  C   UNL     1      26.870  -3.786 -21.059  0.00  0.00    +0.200 C 
ATOM     19  O   UNL     1      27.169  -3.783 -22.236  0.00  0.00    -0.600 OA
ATOM     20  O   UNL     1      27.179  -2.884 -20.243  0.00  0.00    -0.600 OA
ENDBRANCH  17  18
ENDBRANCH   1  16
TORSDOF 4
