REMARK  Name = 1urw_ligand
REMARK  10 active torsions:
REMARK  status: ('A' for Active; 'I' for Inactive)
REMARK    1  A    between atoms: C7_4  and  C10_9
REMARK    2  A    between atoms: C17_11  and  N16_21
REMARK    3  A    between atoms: C20_17  and  S23_23
REMARK    4  A    between atoms: S23_23  and  N24_24
REMARK    5  A    between atoms: N24_24  and  C25_25
REMARK    6  A    between atoms: C25_25  and  C26_26
REMARK    7  A    between atoms: C26_26  and  C27_27
REMARK    8  A    between atoms: C27_27  and  N28_28
REMARK    9  A    between atoms: N28_28  and  C29_29
REMARK   10  A    between atoms: N28_28  and  C30_30
REMARK                            x       y       z     vdW  Elec       q    Type
REMARK                         _______ _______ _______ _____ _____    ______ ____
ROOT
ATOM      1  C   UNL     1       8.602 -11.835  11.702  0.00  0.00    +0.023 A 
ATOM      2  C   UNL     1       7.817 -11.656  10.539  0.00  0.00    +0.019 A 
ATOM      3  C   UNL     1       8.055 -10.526   9.714  0.00  0.00    +0.099 A 
ATOM     16  C   UNL     1       9.061  -9.584  10.016  0.00  0.00    +0.019 A 
ATOM     17  C   UNL     1       9.837  -9.766  11.172  0.00  0.00    +0.023 A 
ATOM     18  C   UNL     1       9.615 -10.891  12.037  0.00  0.00    +0.072 A 
ENDROOT
BRANCH  18  19
ATOM     19  N   UNL     1      10.363 -11.109  13.254  0.00  0.00    -0.233 N 
ATOM     20  H   UNL     1      10.079 -11.972  13.740  0.00  0.00    +0.224 HD
ATOM     21  C   UNL     1      11.413 -10.407  13.951  0.00  0.00    +0.236 A 
ATOM     22  N   UNL     1      11.609 -10.605  15.259  0.00  0.00    -0.213 NA
ATOM     23  C   UNL     1      12.590  -9.916  15.870  0.00  0.00    +0.152 A 
ATOM     24  C   UNL     1      13.407  -8.997  15.156  0.00  0.00    +0.119 A 
ATOM     25  C   UNL     1      13.136  -8.836  13.748  0.00  0.00    +0.119 A 
ATOM     36  N   UNL     1      12.128  -9.563  13.189  0.00  0.00    -0.228 NA
BRANCH  25  26
ATOM     26  C   UNL     1      13.906  -7.933  12.949  0.00  0.00    +0.172 C 
ATOM     27  N   UNL     1      15.146  -7.346  13.281  0.00  0.00    -0.206 N 
ATOM     28  N   UNL     1      15.946  -7.292  14.455  0.00  0.00    -0.230 NA
ATOM     29  C   UNL     1      17.062  -6.574  14.479  0.00  0.00    +0.148 C 
ATOM     30  C   UNL     1      17.451  -5.804  13.389  0.00  0.00    +0.085 C 
ATOM     31  C   UNL     1      16.705  -5.711  12.219  0.00  0.00    +0.128 C 
ATOM     32  C   UNL     1      15.394  -6.560  12.154  0.00  0.00    +0.209 C 
ATOM     33  N   UNL     1      14.556  -6.599  11.075  0.00  0.00    -0.181 N 
ATOM     34  H   UNL     1      14.611  -6.126  10.162  0.00  0.00    +0.278 HD
ATOM     35  C   UNL     1      13.596  -7.485  11.597  0.00  0.00    +0.344 C 
ENDBRANCH  25  26
ENDBRANCH  18  19
BRANCH   3   4
ATOM      4  S   UNL     1       7.060 -10.282   8.309  0.00  0.00    +0.064 S 
ATOM      5  O   UNL     1       6.525 -11.665   7.757  0.00  0.00    -0.152 OA
ATOM      6  O   UNL     1       5.842  -9.340   8.693  0.00  0.00    -0.152 OA
BRANCH   4   7
ATOM      7  N   UNL     1       8.012  -9.477   7.096  0.00  0.00    -0.248 NA
ATOM      8  H   UNL     1       7.935  -8.504   6.877  0.00  0.00    +0.167 HD
BRANCH   7   9
ATOM      9  C   UNL     1       8.950 -10.407   6.428  0.00  0.00    +0.127 C 
BRANCH   9  10
ATOM     10  C   UNL     1       9.292  -9.920   5.014  0.00  0.00    +0.071 C 
BRANCH  10  11
ATOM     11  C   UNL     1       8.042  -9.812   4.091  0.00  0.00    +0.132 C 
BRANCH  11  12
ATOM     12  N   UNL     1       8.274  -9.663   2.608  0.00  0.00    +0.231 N 
ATOM     13  H   UNL     1       7.392  -9.365   2.222  0.00  0.00    +0.203 HD
ATOM     14  C   UNL     1       9.270  -8.586   2.280  0.00  0.00    +0.190 C 
ATOM     15  C   UNL     1       8.627 -10.929   1.908  0.00  0.00    +0.190 C 
ENDBRANCH  11  12
ENDBRANCH  10  11
ENDBRANCH   9  10
ENDBRANCH   7   9
ENDBRANCH   4   7
ENDBRANCH   3   4
TORSDOF 8
