REMARK  Name = 3uzp_ligand
REMARK  3 active torsions:
REMARK  status: ('A' for Active; 'I' for Inactive)
REMARK    1  A    between atoms: C7_1  and  C13_11
REMARK    2  A    between atoms: N2_2  and  C15_14
REMARK    3  A    between atoms: C9_5  and  C5_23
REMARK                            x       y       z     vdW  Elec       q    Type
REMARK                         _______ _______ _______ _____ _____    ______ ____
ROOT
ATOM      1  C   UNL     1       4.235   2.751  18.761  0.00  0.00    +0.115 A 
ATOM     11  C   UNL     1       5.478   2.473  19.595  0.00  0.00    +0.046 A 
ATOM     19  N   UNL     1       5.541   3.378  20.608  0.00  0.00    -0.303 NA
ATOM     20  C   UNL     1       4.466   4.152  20.412  0.00  0.00    +0.240 A 
ATOM     21  N   UNL     1       3.665   3.849  19.353  0.00  0.00    -0.232 N 
ENDROOT
BRANCH   1   2
ATOM      2  C   UNL     1       3.646   1.991  17.569  0.00  0.00    +0.071 A 
ATOM      3  N   UNL     1       2.820   2.652  16.603  0.00  0.00    -0.258 NA
ATOM      4  C   UNL     1       2.239   1.959  15.563  0.00  0.00    +0.179 A 
ATOM      5  N   UNL     1       1.391   2.611  14.678  0.00  0.00    -0.304 N 
ATOM      6  H   UNL     1       1.195   3.615  14.798  0.00  0.00    +0.182 HD
ATOM      7  H   UNL     1       0.958   2.091  13.902  0.00  0.00    +0.182 HD
ATOM      8  N   UNL     1       2.441   0.596  15.407  0.00  0.00    -0.263 NA
ATOM      9  C   UNL     1       3.222  -0.105  16.287  0.00  0.00    +0.094 A 
ATOM     10  C   UNL     1       3.838   0.562  17.383  0.00  0.00    +0.043 A 
ENDBRANCH   1   2
BRANCH  11  12
ATOM     12  C   UNL     1       6.579   1.453  19.382  0.00  0.00    -0.021 A 
ATOM     13  C   UNL     1       7.141   1.371  18.019  0.00  0.00    +0.001 A 
ATOM     14  C   UNL     1       8.189   0.431  17.695  0.00  0.00    +0.031 A 
ATOM     15  C   UNL     1       8.669  -0.420  18.743  0.00  0.00    +0.131 A 
ATOM     16  F   UNL     1       9.640  -1.263  18.398  0.00  0.00    -0.184 F 
ATOM     17  C   UNL     1       8.134  -0.366  20.118  0.00  0.00    +0.031 A 
ATOM     18  C   UNL     1       7.079   0.584  20.427  0.00  0.00    +0.001 A 
ENDBRANCH  11  12
BRANCH  21  22
ATOM     22  C   UNL     1       2.488   4.585  18.970  0.00  0.00    +0.137 C 
ATOM     23  C   UNL     1       2.885   5.679  17.982  0.00  0.00    +0.037 C 
ATOM     24  C   UNL     1       1.704   6.501  17.504  0.00  0.00    +0.003 C 
ATOM     25  C   UNL     1       0.864   7.054  18.680  0.00  0.00    +0.000 C 
ATOM     26  C   UNL     1       0.498   5.986  19.731  0.00  0.00    +0.003 C 
ATOM     27  C   UNL     1       1.682   5.137  20.141  0.00  0.00    +0.037 C 
ENDBRANCH  21  22
TORSDOF 3
