REMARK  Name = 4enx_ligand
REMARK  4 active torsions:
REMARK  status: ('A' for Active; 'I' for Inactive)
REMARK    1  A    between atoms: N22_2  and  C18_4
REMARK    2  A    between atoms: C17_5  and  O25_6
REMARK    3  A    between atoms: C14_10  and  C13_11
REMARK    4  A    between atoms: N7_18  and  C2_19
REMARK                            x       y       z     vdW  Elec       q    Type
REMARK                         _______ _______ _______ _____ _____    ______ ____
ROOT
ATOM      6  C   UNL     1     -40.883  -2.504  -2.273  0.00  0.00    +0.230 C 
ATOM      7  C   UNL     1     -39.618  -2.660  -1.836  0.00  0.00    +0.261 C 
ATOM      8  S   UNL     1     -38.920  -2.155  -0.236  0.00  0.00    +0.187 S 
ATOM      9  C   UNL     1     -37.265  -2.755  -0.644  0.00  0.00    +0.341 C 
ATOM     10  N   UNL     1     -36.346  -2.605   0.255  0.00  0.00    -0.158 NA
ATOM     18  N   UNL     1     -37.236  -3.319  -1.942  0.00  0.00    -0.135 N 
ATOM     19  H   UNL     1     -36.391  -3.712  -2.356  0.00  0.00    +0.281 HD
ATOM     20  C   UNL     1     -38.539  -3.289  -2.649  0.00  0.00    +0.345 C 
ATOM     21  O   UNL     1     -38.626  -3.747  -3.762  0.00  0.00    -0.342 OA
ENDROOT
BRANCH  10  11
ATOM     11  C   UNL     1     -36.463  -2.030   1.573  0.00  0.00    +0.115 A 
ATOM     12  C   UNL     1     -36.997  -2.777   2.629  0.00  0.00    +0.071 A 
ATOM     13  C   UNL     1     -37.070  -2.203   3.898  0.00  0.00    +0.036 A 
ATOM     14  C   UNL     1     -36.603  -0.909   4.134  0.00  0.00    +0.047 A 
ATOM     15  C   UNL     1     -36.051  -0.164   3.099  0.00  0.00    +0.051 A 
ATOM     16  C   UNL     1     -35.980  -0.729   1.832  0.00  0.00    +0.096 A 
ATOM     17 CL   UNL     1     -35.305   0.217   0.583  0.00  0.00    -0.045 Cl
ENDBRANCH  10  11
BRANCH   6   5
ATOM      3  C   UNL     1     -43.330  -1.554   0.440  0.00  0.00    +0.173 A 
ATOM      4  C   UNL     1     -42.149  -1.973  -0.172  0.00  0.00    +0.138 A 
ATOM      5  C   UNL     1     -42.093  -2.054  -1.563  0.00  0.00    +0.079 A 
ATOM     22  C   UNL     1     -43.230  -1.729  -2.320  0.00  0.00    +0.102 A 
ATOM     23  C   UNL     1     -44.404  -1.314  -1.717  0.00  0.00    +0.113 A 
ATOM     24  C   UNL     1     -44.466  -1.219  -0.321  0.00  0.00    +0.192 A 
BRANCH   3   2
ATOM      1  O   UNL     1     -44.489  -1.292   2.476  0.00  0.00    -0.489 OA
ATOM      2  N   UNL     1     -43.404  -1.461   1.949  0.00  0.00    -0.202 N 
ATOM     27  O   UNL     1     -42.366  -1.575   2.573  0.00  0.00    -0.489 OA
ENDBRANCH   3   2
BRANCH  24  25
ATOM     25  O   UNL     1     -45.570  -0.825   0.349  0.00  0.00    -0.280 OA
ATOM     26  H   UNL     1     -45.855  -1.529   0.936  0.00  0.00    +0.281 HD
ENDBRANCH  24  25
ENDBRANCH   6   5
TORSDOF 4
