REMARK  Name = 4FTM
REMARK  5 active torsions:
REMARK  status: ('A' for Active; 'I' for Inactive)
REMARK    1  A    between atoms: O_1  and  C_2
REMARK    2  A    between atoms: C_3  and  O_4
REMARK    3  A    between atoms: O_4  and  C_5
REMARK    4  A    between atoms: C_7  and  C_10
REMARK    5  A    between atoms: C_10  and  C_11
REMARK                            x       y       z     vdW  Elec       q    Type
REMARK                         _______ _______ _______ _____ _____    ______ ____
ROOT
ATOM      8  C   UNL     1      12.648  -3.036  10.810  0.00  0.00    +0.009 C 
ATOM      9  C   UNL     1      13.914  -2.932  10.176  0.00  0.00    +0.057 A 
ATOM     10  N   UNL     1      14.303  -1.899   9.383  0.00  0.00    -0.300 N 
ATOM     11  H   UNL     1      13.764  -1.101   9.079  0.00  0.00    +0.187 HD
ATOM     12  N   UNL     1      15.607  -2.006   8.981  0.00  0.00    -0.299 N 
ATOM     13  H   UNL     1      16.148  -1.328   8.354  0.00  0.00    +0.187 HD
ATOM     14  C   UNL     1      16.064  -3.132   9.534  0.00  0.00    +0.068 A 
ATOM     15  C   UNL     1      17.319  -3.844   9.697  0.00  0.00    +0.004 A 
ATOM     16  C   UNL     1      18.612  -3.603   9.235  0.00  0.00    +0.010 A 
ATOM     17  C   UNL     1      19.659  -4.405   9.670  0.00  0.00    +0.001 A 
ATOM     18  C   UNL     1      19.420  -5.445  10.552  0.00  0.00    +0.000 A 
ATOM     19  C   UNL     1      18.131  -5.702  10.991  0.00  0.00    +0.005 A 
ATOM     20  C   UNL     1      17.074  -4.908  10.562  0.00  0.00    -0.034 A 
ATOM     21  C   UNL     1      15.611  -5.004  10.875  0.00  0.00    +0.075 C 
ATOM     22  C   UNL     1      15.046  -3.781  10.288  0.00  0.00    +0.007 A 
ENDROOT
BRANCH   8   7
ATOM      7  C   UNL     1      12.230  -4.010  11.614  0.00  0.00    +0.055 C 
BRANCH   7   6
ATOM      3  C   UNL     1       8.581  -4.182  13.809  0.00  0.00    +0.159 A 
ATOM      4  C   UNL     1       9.299  -5.335  13.503  0.00  0.00    +0.049 A 
ATOM      5  C   UNL     1      10.532  -5.247  12.886  0.00  0.00    +0.008 A 
ATOM      6  C   UNL     1      11.061  -4.010  12.514  0.00  0.00    -0.036 A 
ATOM     23  C   UNL     1      10.348  -2.846  12.838  0.00  0.00    +0.053 A 
ATOM     24  C   UNL     1       9.121  -2.929  13.492  0.00  0.00    +0.162 A 
BRANCH   3   1
ATOM      1  O   UNL     1       7.396  -4.263  14.474  0.00  0.00    -0.503 OA
ATOM      2  H   UNL     1       7.079  -3.346  14.683  0.00  0.00    +0.292 HD
ENDBRANCH   3   1
BRANCH  24  25
ATOM     25  O   UNL     1       8.353  -1.868  13.902  0.00  0.00    -0.491 OA
ATOM     26  C   UNL     1       8.824  -0.546  13.659  0.00  0.00    +0.277 C 
ENDBRANCH  24  25
ENDBRANCH   7   6
ENDBRANCH   8   7
TORSDOF 4
