REMARK  Name = 6NSS
REMARK  4 active torsions:
REMARK  status: ('A' for Active; 'I' for Inactive)
REMARK    1  A    between atoms: C16_9  and  N17_27
REMARK    2  A    between atoms: C18_10  and  C20_29
REMARK    3  A    between atoms: C9_23  and  C10_24
REMARK    4  A    between atoms: C20_29  and  N21_30
REMARK                            x       y       z     vdW  Elec       q    Type
REMARK                         _______ _______ _______ _____ _____    ______ ____
ROOT
ATOM      8  N   UNL     1      -9.890  11.761 -13.827  0.00  0.00    -0.350 NA
ATOM      9  C   UNL     1      -9.421  10.673 -13.183  0.00  0.00    +0.600 C 
ATOM     25  O   UNL     1      -8.613  10.730 -12.258  0.00  0.00    -0.550 OA
ENDROOT
BRANCH   8   7
ATOM      1  C   UNL     1     -10.024  17.549 -11.832  0.00  0.00    -0.150 C 
ATOM      2  C   UNL     1     -10.611  16.199 -12.069  0.00  0.00    +0.380 A 
ATOM      3  N   UNL     1     -11.871  15.989 -11.689  0.00  0.00    -0.760 NA
ATOM      4  C   UNL     1     -12.460  14.792 -11.895  0.00  0.00    +0.250 A 
ATOM      5  C   UNL     1     -11.838  13.758 -12.452  0.00  0.00    -0.030 A 
ATOM      6  N   UNL     1     -10.533  13.922 -12.869  0.00  0.00    -0.300 N 
ATOM      7  C   UNL     1      -9.613  13.065 -13.464  0.00  0.00    +0.100 A 
ATOM     26  C   UNL     1      -8.456  13.808 -13.626  0.00  0.00    +0.150 A 
ATOM     33  N   UNL     1      -8.626  15.078 -13.112  0.00  0.00    -0.300 NA
ATOM     34  C   UNL     1      -9.872  15.134 -12.666  0.00  0.00    +0.300 A 
BRANCH  26  27
ATOM     27  C   UNL     1      -7.183  13.394 -14.230  0.00  0.00    +0.000 A 
ATOM     28  C   UNL     1      -7.159  12.546 -15.341  0.00  0.00    -0.130 A 
ATOM     29  C   UNL     1      -5.941  12.125 -15.866  0.00  0.00    -0.130 A 
ATOM     30  C   UNL     1      -4.758  12.595 -15.342  0.00  0.00    -0.130 A 
ATOM     31  C   UNL     1      -4.769  13.532 -14.323  0.00  0.00    -0.130 A 
ATOM     32  C   UNL     1      -5.971  13.874 -13.727  0.00  0.00    -0.130 A 
ENDBRANCH  26  27
ENDBRANCH   8   7
BRANCH   9  10
ATOM     10  C   UNL     1     -10.017   9.345 -13.673  0.00  0.00    +0.000 C 
BRANCH  10  11
ATOM     11  N   UNL     1      -9.098   8.203 -13.483  0.00  0.00    -0.200 N 
ATOM     12  C   UNL     1      -8.209   7.835 -14.519  0.00  0.00    +0.050 A 
ATOM     13  C   UNL     1      -7.720   6.524 -14.566  0.00  0.00    +0.185 A 
ATOM     14  C   UNL     1      -6.860   6.112 -15.595  0.00  0.00    -0.130 A 
ATOM     15  C   UNL     1      -6.466   7.035 -16.546  0.00  0.00    -0.130 A 
ATOM     16  C   UNL     1      -6.988   8.320 -16.531  0.00  0.00    -0.130 A 
ATOM     17  O   UNL     1      -8.091   5.603 -13.579  0.00  0.00    -0.370 OA
ATOM     18  C   UNL     1      -8.796   6.033 -12.463  0.00  0.00    +0.185 A 
ATOM     19  C   UNL     1      -9.019   5.150 -11.437  0.00  0.00    -0.130 A 
ATOM     20  C   UNL     1      -9.783   5.523 -10.357  0.00  0.00    -0.130 A 
ATOM     21  C   UNL     1     -10.289   6.793 -10.273  0.00  0.00    -0.130 A 
ATOM     22  C   UNL     1     -10.057   7.693 -11.275  0.00  0.00    -0.130 A 
ATOM     23  C   UNL     1      -7.851   8.734 -15.508  0.00  0.00    -0.130 A 
ATOM     24  C   UNL     1      -9.301   7.324 -12.393  0.00  0.00    +0.050 A 
ENDBRANCH  10  11
ENDBRANCH   9  10
TORSDOF 4
