REMARK  Name = 3d9v_ligand
REMARK  4 active torsions:
REMARK  status: ('A' for Active; 'I' for Inactive)
REMARK    1  A    between atoms: S5_2  and  N21_4
REMARK    2  A    between atoms: S5_2  and  C5_12
REMARK    3  A    between atoms: C22_5  and  C2M_6
REMARK    4  A    between atoms: C4_14  and  CM_15
REMARK                            x       y       z     vdW  Elec       q    Type
REMARK                         _______ _______ _______ _____ _____    ______ ____
ROOT
ATOM      1  O   UNL     1      53.487 101.247  30.068  0.00  0.00    -0.150 OA
ATOM      2  S   UNL     1      52.248 101.900  30.406  0.00  0.00    +0.073 S 
ATOM     24  O   UNL     1      51.190 101.248  31.140  0.00  0.00    -0.150 OA
ENDROOT
BRANCH   2   3
ATOM      3  C   UNL     1      51.561 102.413  28.834  0.00  0.00    +0.123 A 
ATOM      4  C   UNL     1      51.294 103.787  28.622  0.00  0.00    +0.035 A 
ATOM      5  C   UNL     1      50.767 104.277  27.388  0.00  0.00    +0.009 A 
ATOM      6  C   UNL     1      50.496 103.416  26.328  0.00  0.00    +0.016 A 
ATOM      7  C   UNL     1      50.740 102.004  26.473  0.00  0.00    +0.004 A 
ATOM      8  C   UNL     1      50.469 101.095  25.402  0.00  0.00    +0.089 A 
ATOM      9  N   UNL     1      50.722  99.775  25.550  0.00  0.00    -0.309 NA
ATOM     10  C   UNL     1      51.205  99.228  26.689  0.00  0.00    +0.076 A 
ATOM     11  C   UNL     1      51.512  99.972  27.805  0.00  0.00    -0.011 A 
ATOM     12  C   UNL     1      52.045  99.186  29.009  0.00  0.00    +0.103 C 
ATOM     13  C   UNL     1      51.279 101.451  27.752  0.00  0.00    +0.029 A 
ENDBRANCH   2   3
BRANCH   2  14
ATOM     14  N   UNL     1      52.704 103.252  31.279  0.00  0.00    -0.226 NA
ATOM     15  C   UNL     1      51.687 103.922  32.207  0.00  0.00    +0.131 C 
ATOM     16  C   UNL     1      52.080 103.583  33.588  0.00  0.00    +0.071 C 
ATOM     17  C   UNL     1      53.115 104.542  34.174  0.00  0.00    +0.131 C 
ATOM     18  N   UNL     1      54.381 104.129  33.621  0.00  0.00    +0.228 N 
ATOM     19  H   UNL     1      54.391 103.123  33.553  0.00  0.00    +0.201 HD
ATOM     20  H   UNL     1      55.118 104.432  34.239  0.00  0.00    +0.201 HD
ATOM     21  C   UNL     1      54.627 104.703  32.266  0.00  0.00    +0.153 C 
ATOM     22  C   UNL     1      54.083 103.744  31.180  0.00  0.00    +0.134 C 
ATOM     23  C   UNL     1      54.411 104.348  29.806  0.00  0.00    +0.035 C 
ENDBRANCH   2  14
TORSDOF 2
