REMARK  Name = 4ehg_ligand
REMARK  10 active torsions:
REMARK  status: ('A' for Active; 'I' for Inactive)
REMARK    1  A    between atoms: C8_8  and  N10_10
REMARK    2  A    between atoms: N10_10  and  C27_27
REMARK    3  A    between atoms: N11_11  and  C12_12
REMARK    4  A    between atoms: C14_14  and  N20_20
REMARK    5  A    between atoms: N20_20  and  S21_21
REMARK    6  A    between atoms: S21_21  and  C22_22
REMARK    7  A    between atoms: C22_22  and  C25_25
REMARK    8  A    between atoms: C25_25  and  C26_26
REMARK    9  A    between atoms: C27_27  and  C28_28
REMARK   10  A    between atoms: C28_28  and  O29_29
REMARK                            x       y       z     vdW  Elec       q    Type
REMARK                         _______ _______ _______ _____ _____    ______ ____
ROOT
ATOM      1  O   UNL     1      -5.718  17.893   6.703  0.00  0.00    -0.378 OA
ATOM      2  C   UNL     1      -6.719  18.431   7.162  0.00  0.00    +0.322 C 
ATOM      3  N   UNL     1      -6.797  19.738   7.408  0.00  0.00    -0.216 N 
ATOM      4  H   UNL     1      -7.656  20.059   7.806  0.00  0.00    +0.224 HD
ATOM     21  N   UNL     1      -7.830  17.762   7.473  0.00  0.00    -0.195 N 
ATOM     22  H   UNL     1      -7.780  16.776   7.312  0.00  0.00    +0.235 HD
ATOM     23  C   UNL     1      -9.070  18.212   7.993  0.00  0.00    +0.141 A 
ATOM     24  C   UNL     1      -9.989  17.195   8.335  0.00  0.00    +0.076 A 
ATOM     25  C   UNL     1     -11.252  17.551   8.854  0.00  0.00    +0.109 A 
ATOM     32  N   UNL     1     -11.559  18.854   9.011  0.00  0.00    -0.273 NA
ATOM     33  C   UNL     1     -10.628  19.758   8.653  0.00  0.00    +0.157 A 
ATOM     34  N   UNL     1      -9.405  19.506   8.152  0.00  0.00    -0.269 NA
ENDROOT
BRANCH   3   5
ATOM      5  C   UNL     1      -5.808  20.732   7.174  0.00  0.00    +0.119 A 
ATOM      6  C   UNL     1      -5.269  21.529   8.206  0.00  0.00    +0.132 A 
ATOM      7  F   UNL     1      -5.671  21.355   9.476  0.00  0.00    -0.208 F 
ATOM      8  C   UNL     1      -4.306  22.517   7.928  0.00  0.00    -0.011 A 
ATOM      9  C   UNL     1      -3.885  22.717   6.598  0.00  0.00    -0.029 A 
ATOM     10  C   UNL     1      -4.384  21.902   5.561  0.00  0.00    +0.079 A 
ATOM     19  C   UNL     1      -5.372  20.937   5.850  0.00  0.00    +0.163 A 
ATOM     20  F   UNL     1      -5.895  20.166   4.867  0.00  0.00    -0.209 F 
BRANCH  10  11
ATOM     11  N   UNL     1      -4.040  22.124   4.289  0.00  0.00    -0.197 N 
ATOM     12  H   UNL     1      -4.340  21.432   3.632  0.00  0.00    +0.212 HD
BRANCH  11  13
ATOM     13  S   UNL     1      -3.148  23.445   3.628  0.00  0.00    +0.059 S 
ATOM     14  O   UNL     1      -3.123  23.262   2.175  0.00  0.00    -0.150 OA
ATOM     15  O   UNL     1      -1.900  23.489   4.398  0.00  0.00    -0.150 OA
BRANCH  13  16
ATOM     16  C   UNL     1      -4.160  24.948   3.955  0.00  0.00    +0.194 C 
BRANCH  16  17
ATOM     17  C   UNL     1      -5.156  25.207   2.821  0.00  0.00    +0.022 C 
ATOM     18  C   UNL     1      -6.618  25.160   3.340  0.00  0.00    +0.005 C 
ENDBRANCH  16  17
ENDBRANCH  13  16
ENDBRANCH  11  13
ENDBRANCH  10  11
ENDBRANCH   3   5
BRANCH  25  26
ATOM     26  N   UNL     1     -12.166  16.608   9.201  0.00  0.00    -0.303 N 
ATOM     27  H   UNL     1     -12.684  16.757  10.079  0.00  0.00    +0.183 HD
BRANCH  26  28
ATOM     28  C   UNL     1     -12.504  15.306   8.379  0.00  0.00    +0.160 C 
BRANCH  28  29
ATOM     29  C   UNL     1     -12.011  14.106   9.595  0.00  0.00    +0.180 C 
BRANCH  29  30
ATOM     30  O   UNL     1     -13.356  13.413   9.756  0.00  0.00    -0.393 OA
ATOM     31  H   UNL     1     -13.277  12.714  10.395  0.00  0.00    +0.209 HD
ENDBRANCH  29  30
ENDBRANCH  28  29
ENDBRANCH  26  28
ENDBRANCH  25  26
TORSDOF 9
