REMARK  Name = AE6W
REMARK  5 active torsions:
REMARK  status: ('A' for Active; 'I' for Inactive)
REMARK    1  A    between atoms: C4_1  and  C3_10
REMARK    2  A    between atoms: C5_2  and  C6_3
REMARK    3  A    between atoms: C7_5  and  C8_6
REMARK    4  A    between atoms: C2_11  and  C1_12
REMARK    5  A    between atoms: C1_12  and  C_14
REMARK                            x       y       z     vdW  Elec       q    Type
REMARK                         _______ _______ _______ _____ _____    ______ ____
ROOT
ATOM      1 BR   UNL     1      36.200  33.782  78.043  0.00  0.00    +0.000 Br
ENDROOT
TORSDOF 0
