REMARK  Name = 4u43_ligand
REMARK  1 active torsions:
REMARK  status: ('A' for Active; 'I' for Inactive)
REMARK    1  A    between atoms: C3_8  and  N7_12
REMARK                            x       y       z     vdW  Elec       q    Type
REMARK                         _______ _______ _______ _____ _____    ______ ____
ROOT
ATOM      7  N   UNL     1      25.960  24.393  -7.803  0.00  0.00    -0.238 N 
ATOM      8  H   UNL     1      25.055  24.341  -7.314  0.00  0.00    +0.222 HD
ATOM      9  C   UNL     1      26.903  25.384  -7.359  0.00  0.00    +0.175 A 
ATOM     10  N   UNL     1      28.159  25.610  -8.046  0.00  0.00    -0.270 NA
ATOM     11  C   UNL     1      29.072  26.679  -7.751  0.00  0.00    +0.186 A 
ATOM     12  N   UNL     1      28.794  27.470  -6.694  0.00  0.00    -0.164 NA
ATOM     13  N   UNL     1      27.591  27.288  -5.952  0.00  0.00    -0.165 N 
ATOM     14  C   UNL     1      27.143  27.956  -4.922  0.00  0.00    +0.135 A 
ATOM     15  C   UNL     1      25.887  27.462  -4.466  0.00  0.00    -0.042 A 
ATOM     16  C   UNL     1      25.612  26.383  -5.358  0.00  0.00    -0.029 A 
ATOM     17  C   UNL     1      26.649  26.264  -6.276  0.00  0.00    +0.149 A 
ENDROOT
BRANCH   7   6
ATOM      1  C   UNL     1      25.071  22.607  -9.196  0.00  0.00    +0.110 A 
ATOM      2  N   UNL     1      25.256  21.672 -10.257  0.00  0.00    -0.308 NA
ATOM      3  C   UNL     1      26.466  21.485 -11.003  0.00  0.00    +0.072 A 
ATOM      4  C   UNL     1      27.605  22.282 -10.717  0.00  0.00    +0.025 A 
ATOM      5  C   UNL     1      27.466  23.280  -9.681  0.00  0.00    +0.048 A 
ATOM      6  C   UNL     1      26.191  23.466  -8.886  0.00  0.00    +0.095 A 
ENDBRANCH   7   6
TORSDOF 1
