REMARK  Name = 3odk_ligand
REMARK  2 active torsions:
REMARK  status: ('A' for Active; 'I' for Inactive)
REMARK    1  A    between atoms: C7_6  and  C4_7
REMARK    2  A    between atoms: C1_9  and  C6_10
REMARK                            x       y       z     vdW  Elec       q    Type
REMARK                         _______ _______ _______ _____ _____    ______ ____
ROOT
ATOM      3  C   UNL     1      38.952 -16.637  11.813  0.00  0.00    +0.063 A 
ATOM      4  N   UNL     1      38.074 -16.604  10.807  0.00  0.00    -0.199 NA
ATOM      5  N   UNL     1      37.957 -15.445  10.389  0.00  0.00    -0.205 N 
ATOM      6  H   UNL     1      37.358 -15.142   9.621  0.00  0.00    +0.261 HD
ATOM      7  C   UNL     1      38.750 -14.663  11.117  0.00  0.00    +0.120 A 
ATOM     11  C   UNL     1      39.394 -15.393  12.035  0.00  0.00    +0.021 A 
ENDROOT
BRANCH   3   2
ATOM      1  C   UNL     1      39.182 -19.024  11.851  0.00  0.00    +0.043 A 
ATOM      2  C   UNL     1      39.269 -17.799  12.505  0.00  0.00    +0.057 A 
ATOM     12  N   UNL     1      39.614 -17.740  13.807  0.00  0.00    -0.293 NA
ATOM     13  C   UNL     1      39.903 -18.850  14.476  0.00  0.00    +0.091 A 
ATOM     14  C   UNL     1      39.835 -20.100  13.868  0.00  0.00    +0.034 A 
ATOM     15  C   UNL     1      39.467 -20.190  12.536  0.00  0.00    +0.030 A 
ENDBRANCH   3   2
BRANCH   7   8
ATOM      8  C   UNL     1      38.877 -13.152  10.883  0.00  0.00    +0.093 C 
ATOM      9  O   UNL     1      39.078 -12.384  11.827  0.00  0.00    -0.558 OA
ATOM     10  O   UNL     1      38.790 -12.695   9.740  0.00  0.00    -0.558 OA
ENDBRANCH   7   8
TORSDOF 2
