REMARK  Name = 6HP9
REMARK  6 active torsions:
REMARK  status: ('A' for Active; 'I' for Inactive)
REMARK    1  A    between atoms: N1_1  and  C6_5
REMARK    2  A    between atoms: N3_2  and  C17_11
REMARK    3  A    between atoms: N3_2  and  C18_24
REMARK    4  A    between atoms: C4_3  and  C3_28
REMARK    5  A    between atoms: N_16  and  C1_19
REMARK    6  A    between atoms: C_17  and  C12_21
REMARK                            x       y       z     vdW  Elec       q    Type
REMARK                         _______ _______ _______ _____ _____    ______ ____
ROOT
ATOM     16  N   UNL     1      35.864   3.704 -39.796  0.00  0.00    -0.350 NA
ATOM     17  C   UNL     1      35.999   2.664 -38.940  0.00  0.00    +0.600 C 
ATOM     34  O   UNL     1      35.171   2.405 -38.071  0.00  0.00    -0.550 OA
ENDROOT
BRANCH  17  18
ATOM     18  C   UNL     1      37.205   1.797 -39.123  0.00  0.00    +0.000 A 
ATOM     19  C   UNL     1      38.443   2.251 -39.577  0.00  0.00    -0.130 A 
ATOM     20  C   UNL     1      39.546   1.411 -39.574  0.00  0.00    -0.130 A 
ATOM     21  C   UNL     1      39.421   0.095 -39.136  0.00  0.00    +0.000 A 
ATOM     22  C   UNL     1      40.463  -0.983 -39.000  0.00  0.00    -0.100 C 
ATOM     23  C   UNL     1      39.753  -2.070 -38.189  0.00  0.00    +0.050 C 
ATOM     24  C   UNL     1      38.262  -1.852 -38.446  0.00  0.00    -0.100 C 
ATOM     32  C   UNL     1      38.184  -0.378 -38.731  0.00  0.00    +0.000 A 
ATOM     33  C   UNL     1      37.087   0.471 -38.713  0.00  0.00    -0.130 A 
BRANCH  23  25
ATOM     25  N   UNL     1      39.985  -1.943 -36.757  0.00  0.00    -0.400 NA
BRANCH  25  26
ATOM     26  C   UNL     1      39.594  -2.909 -35.838  0.00  0.00    +0.050 A 
ATOM     27  C   UNL     1      39.031  -4.137 -36.171  0.00  0.00    +0.250 A 
ATOM     28  N   UNL     1      38.665  -5.049 -35.268  0.00  0.00    -0.760 NA
ATOM     29  C   UNL     1      38.876  -4.716 -33.998  0.00  0.00    +0.630 A 
ATOM     30  N   UNL     1      39.413  -3.589 -33.545  0.00  0.00    -0.760 NA
ATOM     31  C   UNL     1      39.771  -2.702 -34.474  0.00  0.00    +0.250 A 
ENDBRANCH  25  26
ENDBRANCH  23  25
ENDBRANCH  17  18
BRANCH  16   9
ATOM      7  C   UNL     1      33.666   6.457 -40.857  0.00  0.00    +0.000 A 
ATOM      8  C   UNL     1      34.700   5.525 -40.845  0.00  0.00    -0.130 A 
ATOM      9  C   UNL     1      34.931   4.767 -39.705  0.00  0.00    +0.050 A 
ATOM     10  C   UNL     1      34.145   4.967 -38.571  0.00  0.00    -0.130 A 
ATOM     11  C   UNL     1      33.122   5.913 -38.584  0.00  0.00    +0.000 A 
ATOM     35  C   UNL     1      32.872   6.659 -39.729  0.00  0.00    -0.130 A 
BRANCH   7   1
ATOM      1  N   UNL     1      33.400   7.194 -42.053  0.00  0.00    -0.200 N 
ATOM      2  C   UNL     1      32.221   7.753 -42.440  0.00  0.00    +0.100 A 
ATOM      3  N   UNL     1      32.290   8.297 -43.634  0.00  0.00    -0.200 NA
ATOM      4  C   UNL     1      33.632   8.072 -44.069  0.00  0.00    +0.100 A 
ATOM      5  C   UNL     1      34.127   8.495 -45.421  0.00  0.00    -0.150 C 
ATOM      6  C   UNL     1      34.294   7.408 -43.084  0.00  0.00    +0.000 A 
ENDBRANCH   7   1
BRANCH  11  12
ATOM     12  C   UNL     1      32.320   6.150 -37.342  0.00  0.00    +0.900 C 
ATOM     13  F   UNL     1      31.393   5.226 -37.132  0.00  0.00    -0.300 F 
ATOM     14  F   UNL     1      33.089   6.170 -36.244  0.00  0.00    -0.300 F 
ATOM     15  F   UNL     1      31.653   7.293 -37.358  0.00  0.00    -0.300 F 
ENDBRANCH  11  12
ENDBRANCH  16   9
TORSDOF 6
