REMARK  Name = 1wbs_ligand
REMARK  6 active torsions:
REMARK  status: ('A' for Active; 'I' for Inactive)
REMARK    1  A    between atoms: C4_4  and  N29_28
REMARK    2  A    between atoms: C6_6  and  C8_8
REMARK    3  A    between atoms: N10_10  and  C11_11
REMARK    4  A    between atoms: C18_17  and  C19_18
REMARK    5  A    between atoms: C19_18  and  C20_19
REMARK    6  A    between atoms: C20_19  and  C21_20
REMARK                            x       y       z     vdW  Elec       q    Type
REMARK                         _______ _______ _______ _____ _____    ______ ____
ROOT
ATOM      8  C   UNL     1       6.807  12.769  33.956  0.00  0.00    +0.048 A 
ATOM      9  C   UNL     1       5.613  12.713  33.262  0.00  0.00    -0.019 A 
ATOM     10  C   UNL     1       5.471  11.779  32.217  0.00  0.00    -0.036 A 
ATOM     11  C   UNL     1       4.371  11.452  31.307  0.00  0.00    -0.049 A 
ATOM     20  C   UNL     1       4.803  10.460  30.502  0.00  0.00    +0.092 A 
ATOM     21  N   UNL     1       6.100  10.127  30.813  0.00  0.00    -0.295 N 
ATOM     22  H   UNL     1       6.658   9.399  30.344  0.00  0.00    +0.219 HD
ATOM     23  C   UNL     1       6.535  10.923  31.854  0.00  0.00    +0.048 A 
ATOM     24  C   UNL     1       7.729  11.001  32.553  0.00  0.00    -0.001 A 
ATOM     25  C   UNL     1       7.860  11.917  33.582  0.00  0.00    -0.007 A 
ENDROOT
BRANCH   8   6
ATOM      5  C   UNL     1       6.227  13.811  36.122  0.00  0.00    +0.225 C 
ATOM      6  N   UNL     1       7.009  13.681  35.011  0.00  0.00    -0.241 N 
ATOM      7  H   UNL     1       7.799  14.290  34.939  0.00  0.00    +0.221 HD
ATOM     26  O   UNL     1       5.239  13.131  36.343  0.00  0.00    -0.375 OA
BRANCH   5   4
ATOM      1  F   UNL     1       8.318  17.993  37.445  0.00  0.00    -0.186 F 
ATOM      2  C   UNL     1       7.697  16.847  37.791  0.00  0.00    +0.126 A 
ATOM      3  C   UNL     1       7.295  15.976  36.794  0.00  0.00    +0.033 A 
ATOM      4  C   UNL     1       6.651  14.793  37.156  0.00  0.00    +0.042 A 
ATOM     27  C   UNL     1       6.423  14.508  38.510  0.00  0.00    +0.025 A 
ATOM     28  C   UNL     1       6.800  15.392  39.529  0.00  0.00    +0.044 A 
ATOM     35  C   UNL     1       7.469  16.554  39.131  0.00  0.00    +0.046 A 
BRANCH  28  29
ATOM     29  N   UNL     1       6.592  15.076  40.908  0.00  0.00    -0.304 N 
ATOM     30  C   UNL     1       6.320  16.201  41.831  0.00  0.00    +0.157 C 
ATOM     31  C   UNL     1       6.389  15.708  43.281  0.00  0.00    +0.183 C 
ATOM     32  O   UNL     1       5.474  14.629  43.495  0.00  0.00    -0.376 OA
ATOM     33  C   UNL     1       5.833  13.530  42.641  0.00  0.00    +0.183 C 
ATOM     34  C   UNL     1       5.680  13.952  41.182  0.00  0.00    +0.157 C 
ENDBRANCH  28  29
ENDBRANCH   5   4
ENDBRANCH   8   6
BRANCH  11  12
ATOM     12  C   UNL     1       3.011  12.106  31.305  0.00  0.00    +0.048 C 
BRANCH  12  13
ATOM     13  C   UNL     1       2.204  11.629  32.514  0.00  0.00    +0.086 C 
BRANCH  13  14
ATOM     14  C   UNL     1       1.753  10.199  32.349  0.00  0.00    -0.022 A 
ATOM     15  C   UNL     1       2.377   9.175  33.056  0.00  0.00    +0.033 A 
ATOM     16  C   UNL     1       1.941   7.870  32.889  0.00  0.00    +0.083 A 
ATOM     17  N   UNL     1       0.939   7.584  32.077  0.00  0.00    -0.307 NA
ATOM     18  C   UNL     1       0.319   8.532  31.385  0.00  0.00    +0.083 A 
ATOM     19  C   UNL     1       0.699   9.862  31.503  0.00  0.00    +0.033 A 
ENDBRANCH  13  14
ENDBRANCH  12  13
ENDBRANCH  11  12
TORSDOF 6
