REMARK  Name = 3efw_ligand
REMARK  8 active torsions:
REMARK  status: ('A' for Active; 'I' for Inactive)
REMARK    1  A    between atoms: C5_4  and  C2_20
REMARK    2  A    between atoms: C10_8  and  N4_16
REMARK    3  A    between atoms: C17_11  and  C16_24
REMARK    4  A    between atoms: C9_21  and  O1_22
REMARK    5  A    between atoms: O1_22  and  C11_23
REMARK    6  A    between atoms: C14_26  and  N5_27
REMARK    7  A    between atoms: N6_30  and  C19_31
REMARK    8  A    between atoms: C23_32  and  C25_33
REMARK                            x       y       z     vdW  Elec       q    Type
REMARK                         _______ _______ _______ _____ _____    ______ ____
ROOT
ATOM      9  C   UNL     1      64.487  25.248   3.709  0.00  0.00    +0.109 A 
ATOM     10  C   UNL     1      65.486  24.724   2.885  0.00  0.00    +0.004 A 
ATOM     11  C   UNL     1      65.478  23.375   2.524  0.00  0.00    -0.012 A 
ATOM     12  C   UNL     1      64.466  22.531   2.985  0.00  0.00    +0.051 A 
ATOM     29  C   UNL     1      63.462  23.061   3.803  0.00  0.00    -0.005 A 
ATOM     30  C   UNL     1      63.460  24.410   4.164  0.00  0.00    -0.023 A 
ATOM     31  C   UNL     1      62.333  24.937   5.070  0.00  0.00    +0.076 C 
ENDROOT
BRANCH  12  13
ATOM     13  N   UNL     1      64.425  21.221   2.659  0.00  0.00    -0.221 N 
ATOM     14  H   UNL     1      63.653  20.892   2.115  0.00  0.00    +0.223 HD
ATOM     15  C   UNL     1      65.366  20.339   3.027  0.00  0.00    +0.315 C 
ATOM     16  N   UNL     1      65.164  19.072   2.618  0.00  0.00    -0.209 N 
ATOM     17  H   UNL     1      64.341  18.915   2.072  0.00  0.00    +0.226 HD
ATOM     28  O   UNL     1      66.351  20.687   3.684  0.00  0.00    -0.381 OA
BRANCH  16  18
ATOM     18  C   UNL     1      65.934  17.985   2.852  0.00  0.00    +0.096 A 
ATOM     19  C   UNL     1      65.502  16.738   2.373  0.00  0.00    +0.058 A 
ATOM     20  C   UNL     1      66.248  15.570   2.597  0.00  0.00    +0.033 A 
ATOM     25  C   UNL     1      67.439  15.660   3.319  0.00  0.00    +0.029 A 
ATOM     26  C   UNL     1      67.872  16.893   3.807  0.00  0.00    +0.023 A 
ATOM     27  C   UNL     1      67.123  18.046   3.580  0.00  0.00    +0.064 A 
BRANCH  20  21
ATOM     21  C   UNL     1      65.787  14.190   2.058  0.00  0.00    +0.373 C 
ATOM     22  F   UNL     1      66.228  13.230   2.883  0.00  0.00    -0.221 F 
ATOM     23  F   UNL     1      66.280  13.988   0.830  0.00  0.00    -0.221 F 
ATOM     24  F   UNL     1      64.460  14.108   1.976  0.00  0.00    -0.221 F 
ENDBRANCH  20  21
ENDBRANCH  16  18
ENDBRANCH  12  13
BRANCH   9   8
ATOM      8  O   UNL     1      64.527  26.581   4.025  0.00  0.00    -0.247 OA
BRANCH   8   7
ATOM      6  C   UNL     1      65.266  28.312   5.506  0.00  0.00    +0.065 A 
ATOM      7  C   UNL     1      65.074  26.953   5.223  0.00  0.00    +0.200 A 
ATOM     32  N   UNL     1      65.414  26.024   6.132  0.00  0.00    -0.266 NA
ATOM     33  C   UNL     1      65.940  26.353   7.306  0.00  0.00    +0.085 A 
ATOM     34  C   UNL     1      66.157  27.686   7.646  0.00  0.00    +0.021 A 
ATOM     35  C   UNL     1      65.818  28.677   6.732  0.00  0.00    +0.037 A 
BRANCH   6   2
ATOM      1  N   UNL     1      64.440  30.479   5.073  0.00  0.00    -0.253 NA
ATOM      2  C   UNL     1      64.930  29.324   4.603  0.00  0.00    +0.057 A 
ATOM      3  C   UNL     1      65.112  29.185   3.222  0.00  0.00    +0.046 A 
ATOM      4  C   UNL     1      64.766  30.238   2.383  0.00  0.00    +0.100 A 
ATOM      5  N   UNL     1      64.275  31.347   2.912  0.00  0.00    -0.258 NA
ATOM     36  C   UNL     1      64.108  31.482   4.241  0.00  0.00    +0.187 A 
ATOM     37  N   UNL     1      63.613  32.624   4.733  0.00  0.00    -0.293 N 
ATOM     38  H   UNL     1      63.213  33.319   4.086  0.00  0.00    +0.186 HD
ATOM     39  C   UNL     1      63.627  32.912   6.186  0.00  0.00    +0.166 C 
ENDBRANCH   6   2
ENDBRANCH   8   7
ENDBRANCH   9   8
TORSDOF 6
