REMARK  Name = 5CF5
REMARK  9 active torsions:
REMARK  status: ('A' for Active; 'I' for Inactive)
REMARK    1  A    between atoms: C_1  and  C_9
REMARK    2  A    between atoms: C_2  and  C_3
REMARK    3  A    between atoms: C_3  and  N_20
REMARK    4  A    between atoms: C_4  and  N_23
REMARK    5  A    between atoms: C_5  and  N_23
REMARK    6  A    between atoms: C_13  and  N_22
REMARK    7  A    between atoms: N_18  and  C_21
REMARK    8  A    between atoms: C_29  and  C_31
REMARK    9  A    between atoms: C_30  and  C_32
REMARK                            x       y       z     vdW  Elec       q    Type
REMARK                         _______ _______ _______ _____ _____    ______ ____
ROOT
ATOM     10  C   UNL     1      -1.983  47.441  -0.597  0.00  0.00    +0.107 A 
ATOM     11  N   UNL     1      -1.712  46.805   0.610  0.00  0.00    -0.321 N 
ATOM     12  C   UNL     1      -2.803  46.036   0.941  0.00  0.00    +0.146 A 
ATOM     13  N   UNL     1      -2.874  45.295   2.055  0.00  0.00    -0.208 NA
ATOM     14  C   UNL     1      -4.011  44.623   2.277  0.00  0.00    +0.185 A 
ATOM     23  C   UNL     1      -5.058  44.645   1.320  0.00  0.00    +0.134 A 
ATOM     24  N   UNL     1      -6.250  43.938   1.304  0.00  0.00    -0.232 NA
ATOM     25  C   UNL     1      -6.809  44.290   0.171  0.00  0.00    +0.200 A 
ATOM     26  N   UNL     1      -6.091  45.191  -0.552  0.00  0.00    -0.333 N 
ATOM     27  C   UNL     1      -6.471  45.755  -1.844  0.00  0.00    +0.150 C 
ATOM     28  C   UNL     1      -4.945  45.431   0.176  0.00  0.00    +0.083 A 
ATOM     29  C   UNL     1      -3.772  46.191  -0.061  0.00  0.00    +0.045 A 
ATOM     32  C   UNL     1      -3.232  47.085  -1.023  0.00  0.00    +0.044 A 
ENDROOT
BRANCH  14  15
ATOM     15  N   UNL     1      -4.201  44.019   3.514  0.00  0.00    -0.201 NA
ATOM     16  C   UNL     1      -3.321  44.053   4.557  0.00  0.00    +0.191 C 
ATOM     17  S   UNL     1      -1.831  44.936   4.557  0.00  0.00    -0.072 S 
ATOM     18  C   UNL     1      -1.625  44.542   6.234  0.00  0.00    +0.079 C 
ATOM     19  C   UNL     1      -0.474  45.124   7.009  0.00  0.00    +0.031 C 
ATOM     20  C   UNL     1      -2.674  43.777   6.650  0.00  0.00    +0.036 C 
ATOM     21  C   UNL     1      -2.846  43.179   8.008  0.00  0.00    +0.062 C 
ATOM     22  N   UNL     1      -3.632  43.497   5.697  0.00  0.00    -0.230 NA
ENDBRANCH  14  15
BRANCH  10   1
ATOM      1  C   UNL     1      -0.973  48.317  -1.231  0.00  0.00    +0.264 C 
ATOM      2  O   UNL     1      -0.374  49.124  -0.523  0.00  0.00    -0.268 OA
ATOM      3  N   UNL     1      -0.807  48.273  -2.574  0.00  0.00    -0.290 N 
BRANCH   3   4
ATOM      4  C   UNL     1      -1.203  47.143  -3.463  0.00  0.00    +0.077 C 
ATOM      5  C   UNL     1      -0.149  46.482  -4.281  0.00  0.00    +0.024 C 
ATOM      6  C   UNL     1      -0.778  45.753  -3.141  0.00  0.00    +0.024 C 
ENDBRANCH   3   4
BRANCH   3   7
ATOM      7  C   UNL     1      -0.069  49.395  -3.202  0.00  0.00    +0.077 C 
ATOM      8  C   UNL     1      -0.482  50.795  -2.902  0.00  0.00    +0.024 C 
ATOM      9  C   UNL     1      -0.749  50.208  -4.250  0.00  0.00    +0.024 C 
ENDBRANCH   3   7
ENDBRANCH  10   1
BRANCH  11  30
ATOM     30  C   UNL     1      -0.479  46.864   1.421  0.00  0.00    +0.121 C 
ATOM     31  C   UNL     1       0.529  45.844   0.971  0.00  0.00    +0.027 C 
ENDBRANCH  11  30
TORSDOF 5
