REMARK  Name = 3LFB
REMARK  7 active torsions:
REMARK  status: ('A' for Active; 'I' for Inactive)
REMARK    1  A    between atoms: C_1  and  C_25
REMARK    2  A    between atoms: C_2  and  C_25
REMARK    3  A    between atoms: C_3  and  C_25
REMARK    4  A    between atoms: C_11  and  C_18
REMARK    5  A    between atoms: N_14  and  C_22
REMARK    6  A    between atoms: C_20  and  N_24
REMARK    7  A    between atoms: C_21  and  C_25
REMARK                            x       y       z     vdW  Elec       q    Type
REMARK                         _______ _______ _______ _____ _____    ______ ____
ROOT
ATOM      3  C   UNL     1      15.980  -8.183 -17.559  0.00  0.00    +0.071 A 
ATOM      4  N   UNL     1      16.244  -8.251 -16.258  0.00  0.00    -0.169 NA
ATOM      5  N   UNL     1      17.270  -7.592 -16.045  0.00  0.00    -0.218 N 
ATOM      6  C   UNL     1      17.718  -7.059 -17.182  0.00  0.00    +0.130 A 
ATOM     25  C   UNL     1      16.908  -7.445 -18.170  0.00  0.00    +0.069 A 
ENDROOT
BRANCH   6   7
ATOM      7  N   UNL     1      18.826  -6.311 -17.299  0.00  0.00    -0.254 N 
ATOM      8  H   UNL     1      19.559  -6.407 -16.526  0.00  0.00    +0.158 HD
ATOM      9  C   UNL     1      19.101  -5.456 -18.291  0.00  0.00    +0.311 C 
ATOM     10  N   UNL     1      20.309  -4.873 -18.206  0.00  0.00    -0.248 N 
ATOM     11  H   UNL     1      20.898  -5.106 -17.344  0.00  0.00    +0.158 HD
ATOM     12  C   UNL     1      20.852  -4.022 -19.102  0.00  0.00    +0.166 A 
ATOM     13  S   UNL     1      20.073  -3.017 -20.240  0.00  0.00    -0.060 S 
ATOM     14  C   UNL     1      21.525  -2.399 -20.881  0.00  0.00    +0.068 A 
ATOM     15  C   UNL     1      22.540  -2.981 -20.218  0.00  0.00    +0.120 A 
ATOM     16  N   UNL     1      22.178  -3.860 -19.256  0.00  0.00    -0.233 NA
ATOM     17  O   UNL     1      18.299  -5.230 -19.201  0.00  0.00    -0.252 OA
ENDBRANCH   6   7
BRANCH   5  18
ATOM     18  C   UNL     1      17.838  -7.469 -14.837  0.00  0.00    +0.067 A 
ATOM     19  C   UNL     1      18.113  -8.636 -14.114  0.00  0.00    +0.028 A 
ATOM     20  C   UNL     1      18.699  -8.566 -12.852  0.00  0.00    +0.005 A 
ATOM     21  C   UNL     1      19.030  -7.321 -12.305  0.00  0.00    -0.050 A 
ATOM     22  C   UNL     1      19.681  -7.246 -10.913  0.00  0.00    +0.044 C 
ATOM     23  C   UNL     1      18.758  -6.153 -13.026  0.00  0.00    +0.005 A 
ATOM     24  C   UNL     1      18.158  -6.227 -14.287  0.00  0.00    +0.028 A 
ENDBRANCH   5  18
BRANCH   3   2
ATOM      1  C   UNL     1      14.047  -7.905 -19.143  0.00  0.00    +0.017 C 
ATOM      2  C   UNL     1      14.785  -8.871 -18.220  0.00  0.00    +0.006 C 
ATOM     26  C   UNL     1      13.824  -9.334 -17.130  0.00  0.00    +0.017 C 
ATOM     27  C   UNL     1      15.291 -10.073 -19.018  0.00  0.00    +0.017 C 
ENDBRANCH   3   2
TORSDOF 3
