REMARK  Name = 3QRT
REMARK  10 active torsions:
REMARK  status: ('A' for Active; 'I' for Inactive)
REMARK    1  A    between atoms: N_3  and  C_14
REMARK    2  A    between atoms: N_4  and  S_28
REMARK    3  A    between atoms: C_7  and  C_13
REMARK    4  A    between atoms: C_10  and  C_12
REMARK    5  A    between atoms: C_12  and  C_21
REMARK    6  A    between atoms: C_12  and  C_22
REMARK    7  A    between atoms: C_12  and  C_23
REMARK    8  A    between atoms: C_14  and  C_15
REMARK    9  A    between atoms: C_18  and  S_28
REMARK   10  A    between atoms: C_23  and  C_24
REMARK                            x       y       z     vdW  Elec       q    Type
REMARK                         _______ _______ _______ _____ _____    ______ ____
ROOT
ATOM      3  C   UNL     1      92.311  47.096 -11.813  0.00  0.00    +0.265 C 
ATOM      4  O   UNL     1      92.786  46.900 -10.700  0.00  0.00    -0.268 OA
ATOM      5  N   UNL     1      91.236  47.965 -11.972  0.00  0.00    -0.306 N 
ATOM      6  H   UNL     1      90.844  48.100 -12.958  0.00  0.00    +0.149 HD
ENDROOT
BRANCH   3   2
ATOM      1  N   UNL     1      92.474  46.897 -14.186  0.00  0.00    -0.169 NA
ATOM      2  C   UNL     1      92.825  46.505 -12.936  0.00  0.00    +0.150 A 
ATOM     20  C   UNL     1      93.779  45.443 -12.984  0.00  0.00    +0.006 A 
ATOM     21  C   UNL     1      94.493  44.648 -11.918  0.00  0.00    +0.043 C 
ATOM     22  C   UNL     1      95.144  43.352 -12.534  0.00  0.00    -0.000 C 
ATOM     28  C   UNL     1      95.870  43.620 -13.903  0.00  0.00    +0.010 C 
ATOM     29  C   UNL     1      94.917  44.240 -14.969  0.00  0.00    +0.055 C 
ATOM     30  C   UNL     1      93.992  45.234 -14.341  0.00  0.00    +0.040 A 
ATOM     31  N   UNL     1      93.202  46.107 -15.009  0.00  0.00    -0.281 N 
ATOM     32  H   UNL     1      93.158  46.166 -16.076  0.00  0.00    +0.189 HD
BRANCH  22  23
ATOM     23  C   UNL     1      96.135  42.708 -11.501  0.00  0.00    -0.032 C 
ATOM     26  C   UNL     1      96.787  41.482 -12.121  0.00  0.00    +0.011 C 
ATOM     27  C   UNL     1      97.249  43.676 -11.084  0.00  0.00    +0.011 C 
BRANCH  23  24
ATOM     24  C   UNL     1      95.366  42.297 -10.244  0.00  0.00    +0.003 C 
ATOM     25  C   UNL     1      94.212  41.333 -10.558  0.00  0.00    +0.004 C 
ENDBRANCH  23  24
ENDBRANCH  22  23
ENDBRANCH   3   2
BRANCH   5   7
ATOM      7  C   UNL     1      90.603  48.711 -10.870  0.00  0.00    +0.140 C 
BRANCH   7   8
ATOM      8  C   UNL     1      89.653  47.903 -10.027  0.00  0.00    -0.030 A 
ATOM      9  C   UNL     1      89.419  46.517 -10.261  0.00  0.00    +0.007 A 
ATOM     10  C   UNL     1      88.531  45.811  -9.431  0.00  0.00    +0.029 A 
ATOM     11  C   UNL     1      87.884  46.493  -8.376  0.00  0.00    +0.105 A 
ATOM     18  C   UNL     1      88.110  47.862  -8.139  0.00  0.00    +0.029 A 
ATOM     19  C   UNL     1      88.998  48.566  -8.970  0.00  0.00    +0.007 A 
BRANCH  11  12
ATOM     12  S   UNL     1      86.784  45.613  -7.347  0.00  0.00    +0.056 S 
ATOM     13  O   UNL     1      85.953  44.797  -8.176  0.00  0.00    -0.153 OA
ATOM     14  O   UNL     1      85.983  46.574  -6.584  0.00  0.00    -0.153 OA
BRANCH  12  15
ATOM     15  N   UNL     1      87.681  44.661  -6.279  0.00  0.00    -0.203 NA
ATOM     16  H   UNL     1      88.285  43.974  -6.834  0.00  0.00    +0.144 HD
ATOM     17  H   UNL     1      88.310  45.289  -5.683  0.00  0.00    +0.144 HD
ENDBRANCH  12  15
ENDBRANCH  11  12
ENDBRANCH   7   8
ENDBRANCH   5   7
TORSDOF 7
