REMARK  Name = 99K
REMARK  3 active torsions:
REMARK  status: ('A' for Active; 'I' for Inactive)
REMARK    1  A    between atoms: C11_3  and  N10_16
REMARK    2  A    between atoms: C14_5  and  C18_8
REMARK    3  A    between atoms: N2_9  and  C4_10
REMARK                            x       y       z     vdW  Elec       q    Type
REMARK                         _______ _______ _______ _____ _____    ______ ____
ROOT
ATOM      7  C   UNL     1      24.390  -2.655 -54.173  0.00  0.00    +0.164 A 
ATOM      8  C   UNL     1      25.360  -3.127 -53.268  0.00  0.00    +0.091 A 
ATOM      9 CL   UNL     1      26.401  -2.059 -52.341  0.00  0.00    -0.079 Cl
ATOM     10  C   UNL     1      25.543  -4.506 -53.091  0.00  0.00    +0.020 A 
ATOM     11  C   UNL     1      24.733  -5.426 -53.766  0.00  0.00    +0.091 A 
ATOM     16  C   UNL     1      23.754  -4.908 -54.627  0.00  0.00    +0.104 A 
ATOM     17  N   UNL     1      23.603  -3.574 -54.780  0.00  0.00    -0.227 NA
ENDROOT
BRANCH   7   6
ATOM      4  C   UNL     1      23.969   0.771 -55.561  0.00  0.00    +0.176 A 
ATOM      5  C   UNL     1      23.738  -0.624 -55.430  0.00  0.00    +0.176 A 
ATOM      6  N   UNL     1      24.172  -1.318 -54.331  0.00  0.00    -0.173 NA
ATOM     18  N   UNL     1      23.043  -1.244 -56.416  0.00  0.00    -0.226 NA
ATOM     19  C   UNL     1      22.569  -0.611 -57.514  0.00  0.00    +0.101 A 
ATOM     20  C   UNL     1      22.785   0.756 -57.711  0.00  0.00    +0.022 A 
ATOM     21  C   UNL     1      23.491   1.434 -56.717  0.00  0.00    +0.029 A 
BRANCH   4   2
ATOM      1  O   UNL     1      25.071   0.945 -53.400  0.00  0.00    -0.126 OA
ATOM      2  N   UNL     1      24.623   1.500 -54.612  0.00  0.00    +0.060 N 
ATOM      3  O   UNL     1      24.788   2.696 -54.758  0.00  0.00    -0.126 OA
ENDBRANCH   4   2
ENDBRANCH   7   6
BRANCH  11  12
ATOM     12  C   UNL     1      24.961  -6.931 -53.577  0.00  0.00    +0.420 C 
ATOM     13  F   UNL     1      25.163  -7.265 -52.276  0.00  0.00    -0.166 F 
ATOM     14  F   UNL     1      23.930  -7.665 -54.049  0.00  0.00    -0.166 F 
ATOM     15  F   UNL     1      26.055  -7.292 -54.274  0.00  0.00    -0.166 F 
ENDBRANCH  11  12
TORSDOF 3
