REMARK  Name = 4ejn_ligand
REMARK  9 active torsions:
REMARK  status: ('A' for Active; 'I' for Inactive)
REMARK    1  A    between atoms: C21_2  and  C22_3
REMARK    2  A    between atoms: N5_4  and  C17_5
REMARK    3  A    between atoms: C15_10  and  C3_11
REMARK    4  A    between atoms: C6_18  and  C23_19
REMARK    5  A    between atoms: C24_20  and  N7_21
REMARK    6  A    between atoms: N3_26  and  C7_27
REMARK    7  A    between atoms: C10_32  and  C13_33
REMARK    8  A    between atoms: C13_33  and  N4_34
REMARK    9  A    between atoms: C14_35  and  C28_37
REMARK                            x       y       z     vdW  Elec       q    Type
REMARK                         _______ _______ _______ _____ _____    ______ ____
ROOT
ATOM      8  C   UNL     1      38.069  44.353  20.265  0.00  0.00    +0.034 A 
ATOM      9  N   UNL     1      37.283  44.338  19.174  0.00  0.00    -0.276 NA
ATOM     10  C   UNL     1      37.628  45.011  18.049  0.00  0.00    +0.170 A 
ATOM     11  N   UNL     1      37.101  45.146  16.841  0.00  0.00    -0.180 N 
ATOM     30  C   UNL     1      37.816  45.940  16.013  0.00  0.00    +0.164 A 
ATOM     40  N   UNL     1      38.927  46.314  16.715  0.00  0.00    -0.297 NA
ATOM     41  C   UNL     1      38.878  45.779  17.970  0.00  0.00    +0.061 A 
ATOM     42  C   UNL     1      39.694  45.784  19.107  0.00  0.00    +0.026 A 
ATOM     43  C   UNL     1      39.283  45.068  20.248  0.00  0.00    +0.020 A 
ENDROOT
BRANCH   8   7
ATOM      5  C   UNL     1      37.386  43.370  23.885  0.00  0.00    +0.068 A 
ATOM      6  C   UNL     1      37.809  44.084  22.758  0.00  0.00    +0.019 A 
ATOM      7  C   UNL     1      37.611  43.585  21.467  0.00  0.00    -0.020 A 
ATOM     44  C   UNL     1      36.966  42.353  21.304  0.00  0.00    -0.016 A 
ATOM     45  C   UNL     1      36.544  41.632  22.424  0.00  0.00    -0.015 A 
ATOM     46  C   UNL     1      36.752  42.129  23.716  0.00  0.00    +0.012 A 
BRANCH   5   3
ATOM      1  O   UNL     1      37.406  46.100  24.755  0.00  0.00    -0.385 OA
ATOM      2  C   UNL     1      37.608  45.147  25.514  0.00  0.00    +0.200 C 
ATOM      3  N   UNL     1      37.578  43.852  25.151  0.00  0.00    -0.234 N 
ATOM      4  H   UNL     1      37.711  43.163  25.891  0.00  0.00    +0.226 HD
ATOM     47  C   UNL     1      37.911  45.359  26.972  0.00  0.00    +0.173 C 
ENDBRANCH   5   3
ENDBRANCH   8   7
BRANCH  11  12
ATOM     12  C   UNL     1      35.878  44.616  16.613  0.00  0.00    +0.090 A 
ATOM     13  C   UNL     1      35.515  43.287  16.920  0.00  0.00    +0.020 A 
ATOM     14  C   UNL     1      34.225  42.806  16.736  0.00  0.00    -0.009 A 
ATOM     15  C   UNL     1      33.221  43.648  16.248  0.00  0.00    -0.029 A 
ATOM     28  C   UNL     1      33.531  44.958  15.929  0.00  0.00    -0.009 A 
ATOM     29  C   UNL     1      34.828  45.428  16.136  0.00  0.00    +0.020 A 
BRANCH  15  16
ATOM     16  C   UNL     1      31.808  43.145  16.025  0.00  0.00    +0.194 C 
BRANCH  16  17
ATOM     17  N   UNL     1      31.414  42.284  17.125  0.00  0.00    -0.276 N 
ATOM     18  H   UNL     1      31.885  42.337  18.028  0.00  0.00    +0.187 HD
ATOM     19  C   UNL     1      30.425  41.427  16.921  0.00  0.00    +0.206 C 
ATOM     27  O   UNL     1      29.670  41.577  15.977  0.00  0.00    -0.385 OA
BRANCH  19  20
ATOM     20  C   UNL     1      30.205  40.253  17.816  0.00  0.00    +0.048 A 
ATOM     21  C   UNL     1      28.887  39.887  18.106  0.00  0.00    +0.017 A 
ATOM     22  C   UNL     1      28.625  38.796  18.930  0.00  0.00    +0.004 A 
ATOM     23  C   UNL     1      29.678  38.052  19.445  0.00  0.00    +0.040 A 
ATOM     24  C   UNL     1      30.988  38.408  19.150  0.00  0.00    +0.138 A 
ATOM     25  F   UNL     1      31.986  37.669  19.679  0.00  0.00    -0.182 F 
ATOM     26  C   UNL     1      31.270  39.511  18.330  0.00  0.00    +0.057 A 
ENDBRANCH  19  20
ENDBRANCH  16  17
ENDBRANCH  15  16
ENDBRANCH  11  12
BRANCH  30  31
ATOM     31  C   UNL     1      37.472  46.321  14.611  0.00  0.00    +0.085 A 
ATOM     32  C   UNL     1      36.844  45.409  13.748  0.00  0.00    +0.039 A 
ATOM     33  C   UNL     1      36.525  45.802  12.454  0.00  0.00    +0.018 A 
ATOM     34  C   UNL     1      36.845  47.096  12.014  0.00  0.00    +0.081 A 
ATOM     35  N   UNL     1      37.459  47.982  12.831  0.00  0.00    -0.278 NA
ATOM     36  C   UNL     1      37.794  47.685  14.098  0.00  0.00    +0.131 A 
BRANCH  36  37
ATOM     37  N   UNL     1      38.403  48.618  14.895  0.00  0.00    -0.317 N 
ATOM     38  H   UNL     1      38.615  49.545  14.525  0.00  0.00    +0.180 HD
ATOM     39  H   UNL     1      38.645  48.386  15.858  0.00  0.00    +0.180 HD
ENDBRANCH  36  37
ENDBRANCH  30  31
TORSDOF 8
