REMARK  Name = 3bv2_ligand
REMARK  9 active torsions:
REMARK  status: ('A' for Active; 'I' for Inactive)
REMARK    1  A    between atoms: C16_3  and  C14_26
REMARK    2  A    between atoms: C15_4  and  C14_26
REMARK    3  A    between atoms: C23_8  and  N22_27
REMARK    4  A    between atoms: C24_9  and  C29_31
REMARK    5  A    between atoms: C11_10  and  C8_21
REMARK    6  A    between atoms: C27_12  and  N30_32
REMARK    7  A    between atoms: C33_13  and  C31_33
REMARK    8  A    between atoms: C7_20  and  C10_23
REMARK    9  A    between atoms: N13_25  and  C14_26
REMARK                            x       y       z     vdW  Elec       q    Type
REMARK                         _______ _______ _______ _____ _____    ______ ____
ROOT
ATOM     11  C   UNL     1      -2.450  -1.514  22.898  0.00  0.00    +0.043 A 
ATOM     12  C   UNL     1      -2.315  -0.164  23.368  0.00  0.00    +0.163 A 
ATOM     13  N   UNL     1      -2.511   0.768  22.415  0.00  0.00    -0.165 N 
ATOM     14  C   UNL     1      -2.779   0.006  21.237  0.00  0.00    +0.154 A 
ATOM     15  C   UNL     1      -3.010   0.787  20.114  0.00  0.00    +0.167 A 
ATOM     16  N   UNL     1      -3.330   0.151  18.959  0.00  0.00    -0.252 N 
ATOM     17  H   UNL     1      -3.289  -0.878  18.955  0.00  0.00    +0.218 HD
ATOM     41  N   UNL     1      -2.899   2.127  20.087  0.00  0.00    -0.278 NA
ATOM     42  C   UNL     1      -2.454   2.843  21.175  0.00  0.00    +0.179 A 
ATOM     43  N   UNL     1      -2.459   2.254  22.402  0.00  0.00    -0.169 NA
ATOM     44  C   UNL     1      -2.713  -1.473  21.509  0.00  0.00    -0.021 A 
ATOM     45  C   UNL     1      -2.858  -2.661  20.502  0.00  0.00    +0.059 C 
ENDROOT
BRANCH  16  18
ATOM     18  C   UNL     1      -3.696   0.760  17.822  0.00  0.00    +0.057 A 
ATOM     19  C   UNL     1      -2.715   1.385  17.061  0.00  0.00    +0.017 A 
ATOM     20  C   UNL     1      -3.138   1.992  15.797  0.00  0.00    +0.050 A 
ATOM     37  C   UNL     1      -4.502   1.994  15.315  0.00  0.00    -0.019 A 
ATOM     38  C   UNL     1      -5.535   1.421  16.045  0.00  0.00    -0.033 A 
ATOM     39  C   UNL     1      -5.158   0.755  17.361  0.00  0.00    -0.035 A 
ATOM     40  C   UNL     1      -6.342   0.067  18.116  0.00  0.00    +0.063 C 
BRANCH  20  21
ATOM     21  N   UNL     1      -2.214   2.662  14.974  0.00  0.00    -0.238 N 
ATOM     22  H   UNL     1      -2.551   3.417  14.411  0.00  0.00    +0.223 HD
ATOM     23  C   UNL     1      -0.842   2.337  14.891  0.00  0.00    +0.237 C 
ATOM     24  O   UNL     1      -0.169   1.572  15.607  0.00  0.00    -0.369 OA
BRANCH  23  25
ATOM     25  C   UNL     1      -0.141   3.077  13.862  0.00  0.00    +0.063 A 
ATOM     26  C   UNL     1      -0.615   4.331  13.323  0.00  0.00    +0.036 A 
ATOM     27  C   UNL     1       0.256   4.796  12.383  0.00  0.00    +0.080 A 
ATOM     28  N   UNL     1       1.466   4.255  11.960  0.00  0.00    -0.281 NA
ATOM     29  C   UNL     1       1.902   3.108  12.460  0.00  0.00    +0.119 A 
ATOM     30  N   UNL     1       3.115   2.508  12.090  0.00  0.00    -0.289 N 
ATOM     31  C   UNL     1       4.253   3.314  11.562  0.00  0.00    +0.162 C 
ATOM     32  C   UNL     1       5.392   2.426  11.060  0.00  0.00    +0.184 C 
ATOM     33  O   UNL     1       5.599   1.224  11.860  0.00  0.00    -0.376 OA
ATOM     34  C   UNL     1       4.505   0.433  12.123  0.00  0.00    +0.184 C 
ATOM     35  C   UNL     1       3.480   1.266  12.853  0.00  0.00    +0.162 C 
ATOM     36  C   UNL     1       1.067   2.478  13.442  0.00  0.00    +0.070 A 
ENDBRANCH  23  25
ENDBRANCH  20  21
ENDBRANCH  16  18
BRANCH  11   9
ATOM      7  N   UNL     1      -1.684  -2.003  24.962  0.00  0.00    -0.277 N 
ATOM      8  H   UNL     1      -1.413  -1.040  24.952  0.00  0.00    +0.187 HD
ATOM      9  C   UNL     1      -2.282  -2.524  23.762  0.00  0.00    +0.183 C 
ATOM     10  O   UNL     1      -2.568  -3.696  23.482  0.00  0.00    -0.399 OA
BRANCH   7   6
ATOM      6  C   UNL     1      -1.419  -2.794  26.273  0.00  0.00    +0.143 C 
ATOM     46  C   UNL     1      -0.228  -3.662  26.675  0.00  0.00    +0.050 C 
BRANCH   6   5
ATOM      1  C   UNL     1      -4.621  -2.390  28.199  0.00  0.00    -0.009 A 
ATOM      2  C   UNL     1      -5.104  -3.734  28.212  0.00  0.00    -0.013 A 
ATOM      3  C   UNL     1      -4.395  -4.798  27.587  0.00  0.00    -0.009 A 
ATOM      4  C   UNL     1      -3.165  -4.468  26.936  0.00  0.00    -0.003 A 
ATOM      5  C   UNL     1      -2.675  -3.116  26.923  0.00  0.00    -0.018 A 
ATOM     47  C   UNL     1      -3.394  -2.064  27.553  0.00  0.00    -0.003 A 
ENDBRANCH   6   5
ENDBRANCH   7   6
ENDBRANCH  11   9
TORSDOF 6
