REMARK  Name = 1fgi_ligand
REMARK  5 active torsions:
REMARK  status: ('A' for Active; 'I' for Inactive)
REMARK    1  A    between atoms: C10_25  and  C2'_27
REMARK    2  A    between atoms: C3'_28  and  C12_32
REMARK    3  A    between atoms: C4'_29  and  C11_31
REMARK    4  A    between atoms: C12_32  and  C13_33
REMARK    5  A    between atoms: C13_33  and  C14_34
REMARK                            x       y       z     vdW  Elec       q    Type
REMARK                         _______ _______ _______ _____ _____    ______ ____
ROOT
ATOM      1  H   UNL     1       5.056   1.374  20.404  0.00  0.00    +0.224 HD
ATOM      2  N   UNL     1       5.732   2.150  20.440  0.00  0.00    -0.240 N 
ATOM      3  C   UNL     1       6.513   2.473  21.517  0.00  0.00    +0.211 C 
ATOM      4  O   UNL     1       6.448   1.820  22.556  0.00  0.00    -0.387 OA
ATOM      5  C   UNL     1       7.309   3.536  21.227  0.00  0.00    +0.036 C 
ATOM      6  C   UNL     1       6.985   3.922  19.882  0.00  0.00    -0.005 A 
ATOM      7  C   UNL     1       7.441   4.933  19.022  0.00  0.00    -0.021 A 
ATOM      8  C   UNL     1       6.897   5.014  17.734  0.00  0.00    -0.034 A 
ATOM      9  C   UNL     1       5.911   4.099  17.301  0.00  0.00    -0.026 A 
ATOM     10  C   UNL     1       5.448   3.103  18.122  0.00  0.00    +0.003 A 
ATOM     11  C   UNL     1       8.361   4.193  22.103  0.00  0.00    +0.040 C 
ATOM     24  C   UNL     1       5.994   3.025  19.418  0.00  0.00    +0.067 A 
ENDROOT
BRANCH  11  12
ATOM     12  C   UNL     1       8.924   3.703  23.405  0.00  0.00    +0.061 A 
ATOM     13  C   UNL     1       9.988   4.257  24.049  0.00  0.00    -0.034 A 
ATOM     14  C   UNL     1      10.199   3.500  25.175  0.00  0.00    -0.045 A 
ATOM     15  C   UNL     1       9.211   2.546  25.187  0.00  0.00    +0.108 A 
ATOM     16  C   UNL     1      11.289   3.721  26.233  0.00  0.00    +0.048 C 
ATOM     22  N   UNL     1       8.447   2.674  24.108  0.00  0.00    -0.291 N 
ATOM     23  H   UNL     1       7.637   2.088  23.860  0.00  0.00    +0.226 HD
BRANCH  13  17
ATOM     17  C   UNL     1      10.812   5.424  23.535  0.00  0.00    +0.064 C 
BRANCH  17  18
ATOM     18  C   UNL     1      11.712   4.987  22.430  0.00  0.00    +0.097 C 
BRANCH  18  19
ATOM     19  C   UNL     1      12.473   6.113  21.716  0.00  0.00    +0.036 C 
ATOM     20  O   UNL     1      11.937   7.249  21.571  0.00  0.00    -0.569 OA
ATOM     21  O   UNL     1      13.610   5.815  21.260  0.00  0.00    -0.569 OA
ENDBRANCH  18  19
ENDBRANCH  17  18
ENDBRANCH  13  17
ENDBRANCH  11  12
TORSDOF 4
