REMARK  Name = 4AW0
REMARK  7 active torsions:
REMARK  status: ('A' for Active; 'I' for Inactive)
REMARK    1  A    between atoms: C_2  and  C_3
REMARK    2  A    between atoms: C_2  and  C_10
REMARK    3  A    between atoms: C_10  and  C_11
REMARK    4  A    between atoms: C_11  and  C_12
REMARK    5  A    between atoms: C_11  and  C_19
REMARK    6  A    between atoms: C_12  and  C_13
REMARK    7  A    between atoms: C_12  and  C_16
REMARK                            x       y       z     vdW  Elec       q    Type
REMARK                         _______ _______ _______ _____ _____    ______ ____
ROOT
ATOM      4  C   UNL     1      -9.847  37.816  -9.308  0.00  0.00    +0.041 C 
ENDROOT
BRANCH   4   5
ATOM      5  C   UNL     1     -10.253  36.388  -9.432  0.00  0.00    -0.043 A 
ATOM      6  C   UNL     1      -9.766  35.599 -10.472  0.00  0.00    +0.004 A 
ATOM      7  C   UNL     1     -10.129  34.260 -10.604  0.00  0.00    +0.000 A 
ATOM      8  C   UNL     1     -10.985  33.667  -9.678  0.00  0.00    +0.000 A 
ATOM      9  C   UNL     1     -11.469  34.453  -8.630  0.00  0.00    +0.000 A 
ATOM     10  C   UNL     1     -11.093  35.793  -8.491  0.00  0.00    +0.004 A 
ENDBRANCH   4   5
BRANCH   4   3
ATOM      3  C   UNL     1     -10.668  38.710 -10.252  0.00  0.00    +0.088 C 
BRANCH   3   2
ATOM      1  O   UNL     1     -12.494  38.535  -8.734  0.00  0.00    -0.292 OA
ATOM      2  C   UNL     1     -12.140  38.709  -9.893  0.00  0.00    +0.164 C 
BRANCH   2  18
ATOM     18  C   UNL     1     -13.166  38.849 -10.978  0.00  0.00    +0.018 A 
ATOM     19  C   UNL     1     -14.443  38.346 -10.781  0.00  0.00    +0.013 A 
ATOM     20  C   UNL     1     -15.404  38.432 -11.776  0.00  0.00    +0.021 A 
ATOM     21  C   UNL     1     -15.075  39.035 -12.979  0.00  0.00    +0.041 A 
ATOM     22 CL   UNL     1     -16.330  39.121 -14.256  0.00  0.00    -0.084 Cl
ATOM     23  C   UNL     1     -13.798  39.542 -13.191  0.00  0.00    +0.021 A 
ATOM     24  C   UNL     1     -12.834  39.440 -12.192  0.00  0.00    +0.013 A 
ENDBRANCH   2  18
ENDBRANCH   3   2
ENDBRANCH   4   3
BRANCH   4  11
ATOM     11  C   UNL     1      -8.349  37.986  -9.609  0.00  0.00    +0.088 C 
BRANCH  11  12
ATOM     12  C   UNL     1      -7.493  36.922  -8.990  0.00  0.00    +0.051 C 
ATOM     13  O   UNL     1      -6.503  36.504  -9.641  0.00  0.00    -0.549 OA
ATOM     14  O   UNL     1      -7.782  36.523  -7.832  0.00  0.00    -0.549 OA
ENDBRANCH  11  12
BRANCH  11  15
ATOM     15  C   UNL     1      -7.828  39.317  -9.151  0.00  0.00    +0.051 C 
ATOM     16  O   UNL     1      -8.521  40.027  -8.400  0.00  0.00    -0.549 OA
ATOM     17  O   UNL     1      -6.690  39.661  -9.535  0.00  0.00    -0.549 OA
ENDBRANCH  11  15
ENDBRANCH   4  11
TORSDOF 7
