REMARK  Name = 4YJP
REMARK  8 active torsions:
REMARK  status: ('A' for Active; 'I' for Inactive)
REMARK    1  A    between atoms: O_1  and  C_2
REMARK    2  A    between atoms: C_2  and  C_3
REMARK    3  A    between atoms: C_3  and  N_4
REMARK    4  A    between atoms: N_4  and  C_5
REMARK    5  A    between atoms: N_4  and  C_23
REMARK    6  A    between atoms: N_10  and  C_11
REMARK    7  A    between atoms: S_17  and  O_18
REMARK    8  A    between atoms: S_17  and  O_19
REMARK                            x       y       z     vdW  Elec       q    Type
REMARK                         _______ _______ _______ _____ _____    ______ ____
ROOT
ATOM     16  C   UNL     1      43.981 -40.775  32.705  0.00  0.00    +0.131 A 
ATOM     17  N   UNL     1      44.097 -41.308  33.920  0.00  0.00    -0.197 NA
ATOM     18  C   UNL     1      45.268 -41.896  34.214  0.00  0.00    +0.230 A 
ATOM     19  N   UNL     1      45.468 -42.453  35.430  0.00  0.00    -0.213 NA
ATOM     34  N   UNL     1      46.328 -41.987  33.396  0.00  0.00    -0.331 N 
ATOM     35  H   UNL     1      47.227 -42.493  33.680  0.00  0.00    +0.168 HD
ATOM     36  C   UNL     1      46.183 -41.400  32.198  0.00  0.00    +0.089 A 
ATOM     37  C   UNL     1      45.025 -40.789  31.783  0.00  0.00    +0.061 A 
ENDROOT
BRANCH  19  20
ATOM     20  C   UNL     1      44.636 -42.573  36.553  0.00  0.00    +0.070 A 
ATOM     21  C   UNL     1      43.494 -41.821  36.724  0.00  0.00    +0.054 A 
ATOM     22  C   UNL     1      42.721 -41.963  37.867  0.00  0.00    +0.082 A 
ATOM     23  S   UNL     1      41.262 -41.067  38.211  0.00  0.00    -0.108 S 
ATOM     28  N   UNL     1      40.902 -41.988  39.533  0.00  0.00    -0.210 NA
ATOM     29  H   UNL     1      39.952 -41.979  40.025  0.00  0.00    +0.146 HD
ATOM     30  C   UNL     1      42.037 -42.824  39.959  0.00  0.00    +0.140 C 
ATOM     31  C   UNL     1      43.051 -42.866  38.843  0.00  0.00    -0.008 A 
ATOM     32  C   UNL     1      44.199 -43.630  38.660  0.00  0.00    +0.009 A 
ATOM     33  C   UNL     1      44.984 -43.492  37.531  0.00  0.00    +0.028 A 
BRANCH  23  24
ATOM     24  O   UNL     1      40.255 -41.278  37.221  0.00  0.00    -0.280 OA
ATOM     25  H   UNL     1      40.233 -42.293  36.954  0.00  0.00    +0.242 HD
ENDBRANCH  23  24
BRANCH  23  26
ATOM     26  O   UNL     1      41.546 -39.715  38.571  0.00  0.00    -0.280 OA
ATOM     27  H   UNL     1      40.709 -39.296  39.047  0.00  0.00    +0.242 HD
ENDBRANCH  23  26
ENDBRANCH  19  20
BRANCH  16   5
ATOM      5  N   UNL     1      42.749 -40.195  32.389  0.00  0.00    -0.282 N 
BRANCH   5   6
ATOM      6  C   UNL     1      42.490 -39.588  31.122  0.00  0.00    +0.046 A 
ATOM      7  C   UNL     1      42.987 -38.293  30.918  0.00  0.00    +0.041 A 
ATOM      8  C   UNL     1      43.764 -37.359  31.630  0.00  0.00    +0.144 A 
ATOM      9  N   UNL     1      43.969 -36.267  30.928  0.00  0.00    -0.181 NA
ATOM     10  N   UNL     1      43.330 -36.460  29.739  0.00  0.00    -0.277 N 
ATOM     11  H   UNL     1      43.301 -35.738  28.950  0.00  0.00    +0.189 HD
ATOM     12  C   UNL     1      42.736 -37.676  29.676  0.00  0.00    +0.068 A 
ATOM     13  C   UNL     1      41.986 -38.283  28.680  0.00  0.00    +0.028 A 
ATOM     14  C   UNL     1      41.482 -39.548  28.923  0.00  0.00    +0.004 A 
ATOM     15  C   UNL     1      41.743 -40.201  30.121  0.00  0.00    +0.024 A 
ENDBRANCH   5   6
BRANCH   5   4
ATOM      4  C   UNL     1      41.621 -40.310  33.320  0.00  0.00    +0.140 C 
BRANCH   4   3
ATOM      3  C   UNL     1      41.672 -39.253  34.385  0.00  0.00    +0.175 C 
BRANCH   3   1
ATOM      1  O   UNL     1      41.335 -37.993  33.840  0.00  0.00    -0.393 OA
ATOM      2  H   UNL     1      42.016 -37.747  33.079  0.00  0.00    +0.209 HD
ENDBRANCH   3   1
ENDBRANCH   4   3
ENDBRANCH   5   4
ENDBRANCH  16   5
TORSDOF 8
