REMARK  Name = 4F7S
REMARK  4 active torsions:
REMARK  status: ('A' for Active; 'I' for Inactive)
REMARK    1  A    between atoms: N_1  and  C_2
REMARK    2  A    between atoms: N_1  and  C_12
REMARK    3  A    between atoms: C_12  and  C_13
REMARK    4  A    between atoms: C_13  and  C_14
REMARK                            x       y       z     vdW  Elec       q    Type
REMARK                         _______ _______ _______ _____ _____    ______ ____
ROOT
ATOM      1  N   UNL     1       5.820  58.369  51.601  0.00  0.00    -0.328 N 
ATOM      2  H   UNL     1       5.214  58.175  52.461  0.00  0.00    +0.147 HD
ENDROOT
BRANCH   1  11
ATOM     11  C   UNL     1       6.914  59.278  51.666  0.00  0.00    +0.130 A 
ATOM     12  N   UNL     1       7.637  59.568  50.514  0.00  0.00    -0.220 NA
ATOM     13  C   UNL     1       8.710  60.441  50.514  0.00  0.00    +0.224 A 
ATOM     14  N   UNL     1       9.097  61.047  51.690  0.00  0.00    -0.235 NA
ATOM     15  C   UNL     1       8.388  60.772  52.850  0.00  0.00    +0.076 A 
ATOM     16  C   UNL     1       8.799  61.396  54.014  0.00  0.00    +0.028 A 
ATOM     17  C   UNL     1       8.137  61.171  55.212  0.00  0.00    +0.002 A 
ATOM     18  C   UNL     1       7.054  60.311  55.252  0.00  0.00    +0.001 A 
ATOM     19  C   UNL     1       6.630  59.672  54.091  0.00  0.00    +0.013 A 
ATOM     20  C   UNL     1       7.289  59.892  52.868  0.00  0.00    +0.040 A 
ENDBRANCH   1  11
BRANCH   1   3
ATOM      3  C   UNL     1       5.545  57.701  50.311  0.00  0.00    +0.107 C 
BRANCH   3   4
ATOM      4  C   UNL     1       6.527  56.540  50.102  0.00  0.00    +0.054 C 
BRANCH   4   5
ATOM      5  C   UNL     1       6.030  55.473  49.137  0.00  0.00    -0.046 A 
ATOM      6  C   UNL     1       6.456  54.157  49.328  0.00  0.00    +0.003 A 
ATOM      7  C   UNL     1       6.037  53.150  48.466  0.00  0.00    +0.000 A 
ATOM      8  C   UNL     1       5.182  53.442  47.404  0.00  0.00    +0.000 A 
ATOM      9  C   UNL     1       4.754  54.750  47.194  0.00  0.00    +0.000 A 
ATOM     10  C   UNL     1       5.176  55.764  48.057  0.00  0.00    +0.003 A 
ENDBRANCH   4   5
ENDBRANCH   3   4
ENDBRANCH   1   3
TORSDOF 4
