REMARK  Name = 3pa5_ligand
REMARK  4 active torsions:
REMARK  status: ('A' for Active; 'I' for Inactive)
REMARK    1  A    between atoms: C02_2  and  N06_6
REMARK    2  A    between atoms: C03_3  and  C10_10
REMARK    3  A    between atoms: C05_5  and  C19_19
REMARK    4  A    between atoms: N12_12  and  C13_13
REMARK                            x       y       z     vdW  Elec       q    Type
REMARK                         _______ _______ _______ _____ _____    ______ ____
ROOT
ATOM      1  S   UNL     1      17.589  -0.946   9.038  0.00  0.00    -0.001 S 
ATOM      2  C   UNL     1      18.724  -2.073   9.530  0.00  0.00    +0.021 A 
ATOM     10  C   UNL     1      18.195  -2.904  10.527  0.00  0.00    -0.026 A 
ATOM     11  C   UNL     1      16.859  -2.589  10.849  0.00  0.00    +0.059 A 
ATOM     24  C   UNL     1      16.389  -1.560  10.086  0.00  0.00    +0.163 A 
ENDROOT
BRANCH   2   3
ATOM      3  C   UNL     1      20.067  -2.067   8.980  0.00  0.00    -0.029 A 
ATOM      4  C   UNL     1      20.923  -3.136   9.213  0.00  0.00    -0.008 A 
ATOM      5  C   UNL     1      22.226  -3.124   8.717  0.00  0.00    +0.005 A 
ATOM      6  C   UNL     1      22.678  -2.022   8.001  0.00  0.00    +0.033 A 
ATOM      7 CL   UNL     1      24.294  -2.010   7.369  0.00  0.00    -0.077 Cl
ATOM      8  C   UNL     1      21.832  -0.938   7.777  0.00  0.00    +0.005 A 
ATOM      9  C   UNL     1      20.548  -0.953   8.274  0.00  0.00    -0.008 A 
ENDBRANCH   2   3
BRANCH  24  25
ATOM     25  N   UNL     1      15.117  -1.014  10.186  0.00  0.00    -0.189 N 
ATOM     26  H   UNL     1      14.470  -1.446  10.846  0.00  0.00    +0.244 HD
ATOM     27  C   UNL     1      14.672   0.038   9.482  0.00  0.00    +0.299 C 
ATOM     28  O   UNL     1      15.317   0.645   8.603  0.00  0.00    -0.385 OA
ATOM     29  N   UNL     1      13.384   0.381   9.794  0.00  0.00    -0.279 N 
ATOM     30  H   UNL     1      12.880  -0.133  10.517  0.00  0.00    +0.182 HD
ATOM     31  H   UNL     1      12.928   1.150   9.303  0.00  0.00    +0.182 HD
ENDBRANCH  24  25
BRANCH  11  12
ATOM     12  C   UNL     1      15.987  -3.212  11.827  0.00  0.00    +0.172 C 
ATOM     13  N   UNL     1      16.534  -4.249  12.544  0.00  0.00    -0.285 N 
ATOM     14  H   UNL     1      17.476  -4.575  12.328  0.00  0.00    +0.183 HD
ATOM     23  O   UNL     1      14.851  -2.840  11.922  0.00  0.00    -0.409 OA
BRANCH  13  15
ATOM     15  C   UNL     1      15.762  -4.894  13.628  0.00  0.00    +0.141 C 
ATOM     16  C   UNL     1      16.303  -6.279  13.959  0.00  0.00    +0.038 C 
ATOM     17  C   UNL     1      15.749  -6.804  15.320  0.00  0.00    +0.053 C 
ATOM     18  C   UNL     1      16.032  -5.827  16.470  0.00  0.00    +0.129 C 
ATOM     19  N   UNL     1      15.552  -4.476  16.166  0.00  0.00    +0.229 N 
ATOM     20  H   UNL     1      15.848  -3.850  16.915  0.00  0.00    +0.201 HD
ATOM     21  H   UNL     1      14.536  -4.503  16.086  0.00  0.00    +0.201 HD
ATOM     22  C   UNL     1      16.118  -3.977  14.878  0.00  0.00    +0.157 C 
ENDBRANCH  13  15
ENDBRANCH  11  12
TORSDOF 4
