REMARK  Name = 5JKG
REMARK  9 active torsions:
REMARK  status: ('A' for Active; 'I' for Inactive)
REMARK    1  A    between atoms: C_2  and  C_7
REMARK    2  A    between atoms: C_2  and  C_10
REMARK    3  A    between atoms: C_2  and  O_23
REMARK    4  A    between atoms: C_4  and  O_23
REMARK    5  A    between atoms: C_5  and  C_11
REMARK    6  A    between atoms: C_11  and  C_13
REMARK    7  A    between atoms: C_12  and  C_13
REMARK    8  A    between atoms: C_14  and  N_20
REMARK    9  A    between atoms: C_14  and  C_26
REMARK                            x       y       z     vdW  Elec       q    Type
REMARK                         _______ _______ _______ _____ _____    ______ ____
ROOT
ATOM      1  C   UNL     1     -40.247 -14.102 379.949  0.00  0.00    +0.026 A 
ATOM      2  C   UNL     1     -39.385 -14.681 378.957  0.00  0.00    +0.057 A 
ATOM      3  C   UNL     1     -38.162 -14.068 378.625  0.00  0.00    +0.122 A 
ATOM     15  C   UNL     1     -37.759 -12.850 379.283  0.00  0.00    +0.048 A 
ATOM     16  C   UNL     1     -38.608 -12.270 380.262  0.00  0.00    +0.031 A 
ATOM     17  C   UNL     1     -41.561 -14.412 380.547  0.00  0.00    +0.071 A 
ATOM     18  N   UNL     1     -41.821 -13.446 381.441  0.00  0.00    -0.178 NA
ATOM     19  N   UNL     1     -40.846 -12.578 381.469  0.00  0.00    -0.277 N 
ATOM     20  H   UNL     1     -40.831 -11.718 382.106  0.00  0.00    +0.189 HD
ATOM     31  C   UNL     1     -39.843 -12.896 380.587  0.00  0.00    +0.066 A 
ENDROOT
BRANCH   3   4
ATOM      4  O   UNL     1     -37.295 -14.653 377.621  0.00  0.00    -0.484 OA
BRANCH   4   5
ATOM      5  C   UNL     1     -37.655 -15.881 377.061  0.00  0.00    +0.203 C 
ATOM      6  C   UNL     1     -36.431 -16.460 376.435  0.00  0.00    +0.057 C 
BRANCH   5   7
ATOM      7  C   UNL     1     -38.730 -15.778 375.960  0.00  0.00    +0.032 A 
ATOM      8  C   UNL     1     -39.727 -16.767 375.860  0.00  0.00    +0.067 A 
ATOM      9 CL   UNL     1     -39.699 -18.086 377.017  0.00  0.00    -0.082 Cl
ATOM     10  C   UNL     1     -40.708 -16.706 374.876  0.00  0.00    +0.131 A 
ATOM     11  N   UNL     1     -40.702 -15.685 374.006  0.00  0.00    -0.260 NA
ATOM     12  C   UNL     1     -39.786 -14.712 374.048  0.00  0.00    +0.131 A 
ATOM     13  C   UNL     1     -38.781 -14.712 374.998  0.00  0.00    +0.067 A 
ATOM     14 CL   UNL     1     -37.589 -13.424 375.035  0.00  0.00    -0.082 Cl
ENDBRANCH   5   7
ENDBRANCH   4   5
ENDBRANCH   3   4
BRANCH  17  21
ATOM     21  C   UNL     1     -42.526 -15.605 380.268  0.00  0.00    +0.062 C 
BRANCH  21  22
ATOM     22  C   UNL     1     -42.049 -16.539 379.175  0.00  0.00    +0.044 C 
BRANCH  22  23
ATOM     23  C   UNL     1     -43.074 -17.627 378.874  0.00  0.00    -0.010 A 
ATOM     24  C   UNL     1     -42.904 -18.718 377.962  0.00  0.00    +0.138 A 
ATOM     25  N   UNL     1     -44.030 -19.411 378.015  0.00  0.00    -0.179 NA
ATOM     26  N   UNL     1     -44.887 -18.892 378.846  0.00  0.00    -0.264 N 
ATOM     30  C   UNL     1     -44.371 -17.788 379.420  0.00  0.00    +0.112 A 
BRANCH  26  27
ATOM     27  C   UNL     1     -46.195 -19.454 379.100  0.00  0.00    +0.214 C 
BRANCH  27  28
ATOM     28  C   UNL     1     -46.035 -20.928 379.374  0.00  0.00    +0.246 C 
ATOM     29  O   UNL     1     -45.103 -21.317 380.034  0.00  0.00    -0.299 OA
ENDBRANCH  27  28
ENDBRANCH  26  27
ENDBRANCH  22  23
ENDBRANCH  21  22
ENDBRANCH  17  21
TORSDOF 8
