REMARK  Name = 5JFS
REMARK  8 active torsions:
REMARK  status: ('A' for Active; 'I' for Inactive)
REMARK    1  A    between atoms: C_2  and  C_3
REMARK    2  A    between atoms: C_3  and  C_18
REMARK    3  A    between atoms: C_6  and  N_20
REMARK    4  A    between atoms: C_12  and  N_29
REMARK    5  A    between atoms: C_13  and  C_14
REMARK    6  A    between atoms: C_14  and  C_15
REMARK    7  A    between atoms: C_14  and  N_16
REMARK    8  A    between atoms: N_22  and  C_23
REMARK                            x       y       z     vdW  Elec       q    Type
REMARK                         _______ _______ _______ _____ _____    ______ ____
ROOT
ATOM     17  C   UNL     1      20.940  43.095  -2.325  0.00  0.00    +0.027 A 
ATOM     18  C   UNL     1      20.899  41.723  -2.568  0.00  0.00    +0.055 A 
ATOM     19  C   UNL     1      21.794  40.827  -1.993  0.00  0.00    +0.127 A 
ATOM     34  N   UNL     1      22.930  41.236  -1.459  0.00  0.00    -0.240 NA
ATOM     35  C   UNL     1      23.085  42.572  -1.242  0.00  0.00    +0.113 A 
ATOM     36  C   UNL     1      22.100  43.486  -1.596  0.00  0.00    +0.031 A 
ENDROOT
BRANCH  19  20
ATOM     20  N   UNL     1      21.684  39.445  -1.976  0.00  0.00    -0.254 N 
ATOM     21  H   UNL     1      22.609  38.913  -1.889  0.00  0.00    +0.158 HD
ATOM     22  C   UNL     1      20.577  38.671  -2.053  0.00  0.00    +0.309 C 
ATOM     23  N   UNL     1      20.713  37.322  -2.048  0.00  0.00    -0.267 N 
ATOM     24  H   UNL     1      21.693  36.893  -2.084  0.00  0.00    +0.157 HD
ATOM     33  O   UNL     1      19.470  39.254  -1.904  0.00  0.00    -0.252 OA
BRANCH  23  25
ATOM     25  C   UNL     1      19.574  36.463  -1.995  0.00  0.00    +0.070 A 
ATOM     26  C   UNL     1      18.342  36.713  -2.576  0.00  0.00    +0.029 A 
ATOM     27  C   UNL     1      17.259  35.816  -2.369  0.00  0.00    +0.040 A 
ATOM     28  C   UNL     1      17.509  34.676  -1.587  0.00  0.00    +0.126 A 
ATOM     29  C   UNL     1      18.713  34.407  -1.000  0.00  0.00    +0.078 A 
ATOM     30  F   UNL     1      16.461  33.806  -1.380  0.00  0.00    -0.205 F 
ATOM     31  C   UNL     1      19.786  35.318  -1.206  0.00  0.00    +0.147 A 
ATOM     32  F   UNL     1      20.969  35.069  -0.622  0.00  0.00    -0.203 F 
ENDBRANCH  23  25
ENDBRANCH  19  20
BRANCH  17  16
ATOM     16  C   UNL     1      19.865  43.924  -2.808  0.00  0.00    +0.196 C 
ATOM     37  O   UNL     1      19.075  43.473  -3.639  0.00  0.00    -0.287 OA
BRANCH  16  15
ATOM      1  C   UNL     1      20.019  45.616  -0.919  0.00  0.00    +0.100 A 
ATOM      2  N   UNL     1      19.498  46.805  -0.618  0.00  0.00    -0.329 N 
ATOM      3  C   UNL     1      18.683  47.241  -1.603  0.00  0.00    +0.147 A 
ATOM      4  N   UNL     1      17.971  48.358  -1.723  0.00  0.00    -0.218 NA
ATOM      5  C   UNL     1      17.209  48.578  -2.827  0.00  0.00    +0.225 A 
ATOM      6  N   UNL     1      17.163  47.678  -3.827  0.00  0.00    -0.220 NA
ATOM      7  C   UNL     1      17.857  46.510  -3.793  0.00  0.00    +0.129 A 
ATOM     11  C   UNL     1      18.672  46.266  -2.649  0.00  0.00    +0.069 A 
ATOM     15  C   UNL     1      19.606  45.218  -2.253  0.00  0.00    +0.052 A 
BRANCH   7   8
ATOM      8  N   UNL     1      17.794  45.570  -4.808  0.00  0.00    -0.343 N 
ATOM      9  H   UNL     1      17.183  45.751  -5.668  0.00  0.00    +0.144 HD
ATOM     10  H   UNL     1      18.356  44.663  -4.733  0.00  0.00    +0.144 HD
ENDBRANCH   7   8
BRANCH   2  12
ATOM     12  C   UNL     1      19.675  47.628   0.611  0.00  0.00    +0.083 C 
ATOM     13  C   UNL     1      21.142  47.911   0.970  0.00  0.00    +0.030 C 
ATOM     14  C   UNL     1      18.745  47.108   1.703  0.00  0.00    +0.030 C 
ENDBRANCH   2  12
ENDBRANCH  16  15
ENDBRANCH  17  16
TORSDOF 6
