REMARK  Name = 5K76
REMARK  3 active torsions:
REMARK  status: ('A' for Active; 'I' for Inactive)
REMARK    1  A    between atoms: C_6  and  C_7
REMARK    2  A    between atoms: C_13  and  N_16
REMARK    3  A    between atoms: N_23  and  C_24
REMARK                            x       y       z     vdW  Elec       q    Type
REMARK                         _______ _______ _______ _____ _____    ______ ____
ROOT
ATOM      1  C   UNL     1     -15.818 -43.674  -8.648  0.00  0.00    +0.117 A 
ATOM      2  N   UNL     1     -16.417 -43.425  -7.447  0.00  0.00    -0.237 NA
ATOM      3  C   UNL     1     -17.772 -43.481  -7.603  0.00  0.00    +0.143 A 
ATOM      4  N   UNL     1     -18.691 -43.318  -6.637  0.00  0.00    -0.330 N 
ATOM      5  H   UNL     1     -18.444 -43.110  -5.617  0.00  0.00    +0.168 HD
ATOM      6  C   UNL     1     -19.947 -43.443  -7.082  0.00  0.00    +0.200 A 
ATOM      7  N   UNL     1     -20.374 -43.692  -8.327  0.00  0.00    -0.218 NA
ATOM      8  C   UNL     1     -19.420 -43.836  -9.275  0.00  0.00    +0.161 A 
ATOM      9  N   UNL     1     -19.834 -43.927 -10.549  0.00  0.00    -0.262 NA
ATOM     22  C   UNL     1     -18.036 -43.763  -8.957  0.00  0.00    +0.066 A 
ATOM     23  C   UNL     1     -16.760 -43.896  -9.606  0.00  0.00    -0.012 A 
ENDROOT
BRANCH   9  10
ATOM     10  C   UNL     1     -21.231 -44.039 -10.946  0.00  0.00    +0.108 C 
ATOM     11  C   UNL     1     -21.821 -42.706 -11.396  0.00  0.00    +0.028 C 
ATOM     12  C   UNL     1     -23.301 -42.843 -11.784  0.00  0.00    +0.021 C 
ATOM     13  C   UNL     1     -23.493 -43.964 -12.816  0.00  0.00    +0.057 C 
ATOM     20  C   UNL     1     -22.869 -45.289 -12.376  0.00  0.00    +0.021 C 
ATOM     21  C   UNL     1     -21.398 -45.093 -12.024  0.00  0.00    +0.028 C 
BRANCH  13  14
ATOM     14  N   UNL     1     -24.901 -44.172 -13.215  0.00  0.00    -0.295 NA
ATOM     15  C   UNL     1     -25.868 -43.977 -12.119  0.00  0.00    +0.113 C 
ATOM     16  C   UNL     1     -27.239 -44.422 -12.571  0.00  0.00    +0.175 C 
ATOM     17  O   UNL     1     -27.648 -43.745 -13.765  0.00  0.00    -0.377 OA
ATOM     18  C   UNL     1     -26.709 -43.960 -14.823  0.00  0.00    +0.175 C 
ATOM     19  C   UNL     1     -25.329 -43.485 -14.441  0.00  0.00    +0.113 C 
ENDBRANCH  13  14
ENDBRANCH   9  10
BRANCH  23  24
ATOM     24  C   UNL     1     -16.523 -44.228 -11.059  0.00  0.00    +0.026 C 
ATOM     25  C   UNL     1     -15.194 -43.676 -11.603  0.00  0.00    +0.036 C 
ATOM     26  C   UNL     1     -15.000 -44.089 -13.044  0.00  0.00    +0.160 C 
ATOM     27  O   UNL     1     -15.055 -45.512 -13.188  0.00  0.00    -0.380 OA
ATOM     28  C   UNL     1     -16.339 -46.008 -12.802  0.00  0.00    +0.160 C 
ATOM     29  C   UNL     1     -16.615 -45.732 -11.343  0.00  0.00    +0.036 C 
ENDBRANCH  23  24
TORSDOF 3
