REMARK  Name = 6B16
REMARK  5 active torsions:
REMARK  status: ('A' for Active; 'I' for Inactive)
REMARK    1  A    between atoms: C_1  and  C_14
REMARK    2  A    between atoms: C_10  and  N_22
REMARK    3  A    between atoms: C_11  and  C_12
REMARK    4  A    between atoms: C_13  and  C_14
REMARK    5  A    between atoms: C_14  and  N_17
REMARK                            x       y       z     vdW  Elec       q    Type
REMARK                         _______ _______ _______ _____ _____    ______ ____
ROOT
ATOM     10  N   UNL     1      12.633 -13.977  14.313  0.00  0.00    -0.305 N 
ATOM     11  H   UNL     1      11.811 -13.350  14.038  0.00  0.00    +0.150 HD
ATOM     12  C   UNL     1      12.591 -14.690  15.499  0.00  0.00    +0.217 A 
ATOM     13  N   UNL     1      13.701 -15.258  15.946  0.00  0.00    -0.199 NA
ATOM     14  C   UNL     1      13.698 -15.957  17.076  0.00  0.00    +0.129 A 
ATOM     15  N   UNL     1      14.844 -16.560  17.578  0.00  0.00    -0.285 N 
ATOM     16  H   UNL     1      14.842 -16.804  18.620  0.00  0.00    +0.155 HD
ATOM     26  C   UNL     1      12.499 -16.072  17.791  0.00  0.00    +0.063 A 
ATOM     27  C   UNL     1      11.362 -15.465  17.291  0.00  0.00    +0.118 A 
ATOM     28  N   UNL     1      11.441 -14.789  16.155  0.00  0.00    -0.223 NA
ENDROOT
BRANCH  15  17
ATOM     17  C   UNL     1      16.007 -16.882  16.854  0.00  0.00    +0.120 A 
ATOM     18  N   UNL     1      16.959 -17.640  17.342  0.00  0.00    -0.264 N 
ATOM     19  H   UNL     1      16.964 -18.092  18.312  0.00  0.00    +0.190 HD
ATOM     20  N   UNL     1      17.965 -17.757  16.382  0.00  0.00    -0.177 NA
ATOM     21  C   UNL     1      17.605 -17.052  15.290  0.00  0.00    +0.068 A 
ATOM     25  C   UNL     1      16.394 -16.494  15.551  0.00  0.00    +0.068 A 
BRANCH  21  22
ATOM     22  C   UNL     1      18.445 -16.946  14.031  0.00  0.00    +0.040 C 
ATOM     23  C   UNL     1      18.853 -15.560  13.523  0.00  0.00    +0.010 C 
ATOM     24  C   UNL     1      17.818 -16.384  12.752  0.00  0.00    +0.010 C 
ENDBRANCH  21  22
ENDBRANCH  15  17
BRANCH  10   9
ATOM      9  C   UNL     1      13.797 -14.079  13.435  0.00  0.00    +0.119 C 
ATOM     29  C   UNL     1      13.350 -13.920  11.981  0.00  0.00    +0.034 C 
BRANCH   9   1
ATOM      1  C   UNL     1      14.782 -12.984  13.749  0.00  0.00    +0.062 A 
ATOM      2  N   UNL     1      15.929 -12.984  13.109  0.00  0.00    -0.248 NA
ATOM      3  C   UNL     1      16.849 -12.051  13.325  0.00  0.00    +0.091 A 
ATOM      4  C   UNL     1      18.181 -11.798  12.775  0.00  0.00    +0.049 A 
ATOM      5  C   UNL     1      18.652 -10.691  13.374  0.00  0.00    +0.113 A 
ATOM      6  N   UNL     1      17.729 -10.222  14.267  0.00  0.00    -0.253 NA
ATOM      7  C   UNL     1      16.611 -11.027  14.262  0.00  0.00    +0.089 A 
ATOM      8  C   UNL     1      15.397 -11.009  14.956  0.00  0.00    +0.032 A 
ATOM     30  C   UNL     1      14.473 -12.006  14.688  0.00  0.00    +0.027 A 
ENDBRANCH   9   1
ENDBRANCH  10   9
TORSDOF 4
