REMARK  Name = 4eh5_ligand
REMARK  4 active torsions:
REMARK  status: ('A' for Active; 'I' for Inactive)
REMARK    1  A    between atoms: CAO_6  and  CAK_7
REMARK    2  A    between atoms: CAK_7  and  OAM_8
REMARK    3  A    between atoms: OAM_8  and  CAN_9
REMARK    4  A    between atoms: CAN_9  and  CAP_11
REMARK                            x       y       z     vdW  Elec       q    Type
REMARK                         _______ _______ _______ _____ _____    ______ ____
ROOT
ATOM      4  O   UNL     1      -4.949  -0.508 -21.023  0.00  0.00    -0.263 OA
ENDROOT
BRANCH   4   5
ATOM      5  C   UNL     1      -4.119  -0.317 -22.093  0.00  0.00    +0.273 C 
ATOM     12  O   UNL     1      -3.889  -1.221 -22.897  0.00  0.00    -0.353 OA
BRANCH   5   6
ATOM      6  C   UNL     1      -3.514   1.064 -22.298  0.00  0.00    +0.090 A 
ATOM      7  C   UNL     1      -3.932   1.848 -23.375  0.00  0.00    +0.121 A 
ATOM      8  N   UNL     1      -3.407   3.052 -23.550  0.00  0.00    -0.290 NA
ATOM      9  C   UNL     1      -2.486   3.523 -22.718  0.00  0.00    +0.102 A 
ATOM     10  C   UNL     1      -2.027   2.804 -21.619  0.00  0.00    +0.044 A 
ATOM     11  C   UNL     1      -2.557   1.541 -21.404  0.00  0.00    +0.058 A 
ENDBRANCH   5   6
ENDBRANCH   4   5
BRANCH   4   3
ATOM      3  C   UNL     1      -4.346  -1.216 -19.915  0.00  0.00    +0.265 C 
BRANCH   3   2
ATOM      1  C   UNL     1      -4.012  -1.351 -17.539  0.00  0.00    -0.002 A 
ATOM      2  C   UNL     1      -4.810  -0.999 -18.624  0.00  0.00    -0.013 A 
ATOM     13  C   UNL     1      -6.065  -0.421 -18.423  0.00  0.00    -0.002 A 
ATOM     14  C   UNL     1      -6.526  -0.193 -17.128  0.00  0.00    -0.009 A 
ATOM     15  C   UNL     1      -5.726  -0.547 -16.040  0.00  0.00    -0.013 A 
ATOM     16  C   UNL     1      -4.475  -1.126 -16.246  0.00  0.00    -0.009 A 
ENDBRANCH   3   2
ENDBRANCH   4   3
TORSDOF 4
