REMARK  Name = 3VRZ
REMARK  6 active torsions:
REMARK  status: ('A' for Active; 'I' for Inactive)
REMARK    1  A    between atoms: C_5  and  N_6
REMARK    2  A    between atoms: C_12  and  N_13
REMARK    3  A    between atoms: C_15  and  C_16
REMARK    4  A    between atoms: C_21  and  N_22
REMARK    5  A    between atoms: N_25  and  C_26
REMARK    6  A    between atoms: C_26  and  C_27
REMARK                            x       y       z     vdW  Elec       q    Type
REMARK                         _______ _______ _______ _____ _____    ______ ____
ROOT
ATOM      7  C   UNL     1       4.511   1.624  -9.932  0.00  0.00    -0.016 A 
ATOM      8  C   UNL     1       3.556   2.477  -9.383  0.00  0.00    +0.010 A 
ATOM      9  C   UNL     1       3.342   3.733  -9.954  0.00  0.00    +0.024 A 
ATOM     10  C   UNL     1       4.087   4.155 -11.050  0.00  0.00    +0.035 A 
ATOM     24  C   UNL     1       5.063   3.313 -11.561  0.00  0.00    +0.024 A 
ATOM     25  C   UNL     1       5.277   2.067 -10.994  0.00  0.00    +0.010 A 
ENDROOT
BRANCH   7   6
ATOM      3  N   UNL     1       6.231  -1.291  -8.628  0.00  0.00    -0.324 N 
ATOM      4  C   UNL     1       4.974  -1.754  -8.462  0.00  0.00    +0.147 A 
ATOM      5  C   UNL     1       4.074  -0.788  -8.921  0.00  0.00    +0.066 A 
ATOM      6  C   UNL     1       4.851   0.287  -9.360  0.00  0.00    +0.012 A 
ATOM     26  C   UNL     1       2.709  -1.063  -8.849  0.00  0.00    +0.129 A 
ATOM     30  N   UNL     1       2.293  -2.251  -8.348  0.00  0.00    -0.220 NA
ATOM     31  C   UNL     1       3.176  -3.166  -7.919  0.00  0.00    +0.225 A 
ATOM     32  N   UNL     1       4.498  -2.931  -7.970  0.00  0.00    -0.218 NA
ATOM     33  C   UNL     1       6.182  -0.066  -9.164  0.00  0.00    +0.097 A 
BRANCH   3   2
ATOM      1  C   UNL     1       8.438  -1.070  -7.524  0.00  0.00    +0.033 C 
ATOM      2  C   UNL     1       7.494  -1.989  -8.292  0.00  0.00    +0.111 C 
ATOM     34  C   UNL     1       8.198  -2.324  -9.603  0.00  0.00    -0.006 C 
ATOM     35  C   UNL     1       9.671  -1.958  -9.465  0.00  0.00    -0.029 C 
ATOM     36  C   UNL     1       9.794  -1.070  -8.232  0.00  0.00    +0.029 C 
ENDBRANCH   3   2
BRANCH  26  27
ATOM     27  N   UNL     1       1.778  -0.170  -9.270  0.00  0.00    -0.343 N 
ATOM     28  H   UNL     1       2.084   0.774  -9.669  0.00  0.00    +0.144 HD
ATOM     29  H   UNL     1       0.738  -0.410  -9.203  0.00  0.00    +0.144 HD
ENDBRANCH  26  27
ENDBRANCH   7   6
BRANCH  10  11
ATOM     11  N   UNL     1       3.931   5.422 -11.650  0.00  0.00    -0.270 N 
ATOM     12  H   UNL     1       4.780   5.824 -12.162  0.00  0.00    +0.156 HD
ATOM     13  C   UNL     1       2.826   6.164 -11.639  0.00  0.00    +0.304 C 
ATOM     14  N   UNL     1       2.801   7.352 -12.240  0.00  0.00    -0.295 N 
ATOM     15  H   UNL     1       3.679   7.722 -12.727  0.00  0.00    +0.151 HD
ATOM     23  O   UNL     1       1.812   5.787 -11.091  0.00  0.00    -0.253 OA
BRANCH  14  16
ATOM     16  C   UNL     1       1.583   8.149 -12.236  0.00  0.00    +0.141 C 
BRANCH  16  17
ATOM     17  C   UNL     1       1.720   9.613 -12.579  0.00  0.00    -0.030 A 
ATOM     18  C   UNL     1       2.148  10.536 -11.632  0.00  0.00    +0.005 A 
ATOM     19  C   UNL     1       2.242  11.884 -11.960  0.00  0.00    +0.000 A 
ATOM     20  C   UNL     1       1.896  12.306 -13.238  0.00  0.00    +0.000 A 
ATOM     21  C   UNL     1       1.460  11.384 -14.180  0.00  0.00    +0.000 A 
ATOM     22  C   UNL     1       1.365  10.040 -13.849  0.00  0.00    +0.005 A 
ENDBRANCH  16  17
ENDBRANCH  14  16
ENDBRANCH  10  11
TORSDOF 6
