REMARK  Name = 3RPS
REMARK  4 active torsions:
REMARK  status: ('A' for Active; 'I' for Inactive)
REMARK    1  A    between atoms: O_1  and  C_6
REMARK    2  A    between atoms: C_6  and  C_7
REMARK    3  A    between atoms: C_7  and  C_8
REMARK    4  A    between atoms: C_8  and  N_17
REMARK                            x       y       z     vdW  Elec       q    Type
REMARK                         _______ _______ _______ _____ _____    ______ ____
ROOT
ATOM      6  N   UNL     1      19.478 -37.878  -8.075  0.00  0.00    -0.243 N 
ATOM      7  C   UNL     1      18.822 -38.763  -7.321  0.00  0.00    +0.105 A 
ATOM      8  C   UNL     1      19.185 -38.410  -6.035  0.00  0.00    +0.129 A 
ATOM      9  C   UNL     1      18.701 -39.111  -4.940  0.00  0.00    +0.062 A 
ATOM     10  C   UNL     1      17.839 -40.181  -5.129  0.00  0.00    +0.049 A 
ATOM     11  C   UNL     1      17.461 -40.555  -6.424  0.00  0.00    +0.049 A 
ATOM     12 BR   UNL     1      16.282 -42.031  -6.636  0.00  0.00    -0.048 Br
ATOM     13 BR   UNL     1      17.200 -41.108  -3.602  0.00  0.00    -0.048 Br
ATOM     14 BR   UNL     1      19.205 -38.608  -3.190  0.00  0.00    -0.047 Br
ATOM     15  N   UNL     1      19.999 -37.370  -6.162  0.00  0.00    -0.128 NA
ATOM     16  C   UNL     1      17.955 -39.843  -7.532  0.00  0.00    +0.060 A 
ATOM     17 BR   UNL     1      17.454 -40.332  -9.300  0.00  0.00    -0.047 Br
ATOM     18  N   UNL     1      20.130 -37.106  -7.363  0.00  0.00    -0.065 NA
ENDROOT
BRANCH   6   5
ATOM      5  C   UNL     1      19.455 -37.786  -9.549  0.00  0.00    +0.148 C 
BRANCH   5   4
ATOM      4  C   UNL     1      20.839 -37.391 -10.102  0.00  0.00    +0.051 C 
BRANCH   4   3
ATOM      3  C   UNL     1      20.794 -37.114 -11.613  0.00  0.00    +0.158 C 
BRANCH   3   1
ATOM      1  O   UNL     1      21.734 -36.089 -11.971  0.00  0.00    -0.395 OA
ATOM      2  H   UNL     1      21.500 -35.204 -11.458  0.00  0.00    +0.209 HD
ENDBRANCH   3   1
ENDBRANCH   4   3
ENDBRANCH   5   4
ENDBRANCH   6   5
TORSDOF 4
