REMARK  Name = 3vap_ligand
REMARK  10 active torsions:
REMARK  status: ('A' for Active; 'I' for Inactive)
REMARK    1  A    between atoms: C10_8  and  C9_11
REMARK    2  A    between atoms: C33_9  and  N32_35
REMARK    3  A    between atoms: C15_12  and  C18_26
REMARK    4  A    between atoms: C13_13  and  N12_36
REMARK    5  A    between atoms: C3_16  and  N12_36
REMARK    6  A    between atoms: C1_17  and  C11_24
REMARK    7  A    between atoms: C30_18  and  C29_27
REMARK    8  A    between atoms: C23_23  and  C40_25
REMARK    9  A    between atoms: C18_26  and  N19_37
REMARK   10  A    between atoms: C29_27  and  N26_31
REMARK                            x       y       z     vdW  Elec       q    Type
REMARK                         _______ _______ _______ _____ _____    ______ ____
ROOT
ATOM     12  C   UNL     1       6.408  31.167   8.141  0.00  0.00    +0.118 A 
ATOM     13  N   UNL     1       5.948  31.421   6.841  0.00  0.00    -0.278 N 
ATOM     14  C   UNL     1       6.265  30.828   5.590  0.00  0.00    +0.103 A 
ATOM     15  C   UNL     1       5.720  31.393   4.494  0.00  0.00    +0.044 A 
ATOM     16  N   UNL     1       4.970  32.537   4.540  0.00  0.00    -0.249 NA
ATOM     17  C   UNL     1       4.674  33.093   5.714  0.00  0.00    +0.220 A 
ATOM     34  C   UNL     1       6.099  30.929   3.129  0.00  0.00    +0.121 C 
ATOM     35  C   UNL     1       5.168  32.523   6.914  0.00  0.00    +0.227 A 
ATOM     36  N   UNL     1       5.083  32.869   8.178  0.00  0.00    -0.209 N 
ATOM     37  H   UNL     1       4.564  33.681   8.512  0.00  0.00    +0.263 HD
ATOM     38  C   UNL     1       5.756  32.032   8.978  0.00  0.00    +0.277 A 
ENDROOT
BRANCH  12  11
ATOM      8  N   UNL     1       9.131  28.902   8.281  0.00  0.00    -0.151 N 
ATOM      9  N   UNL     1       8.429  28.349   9.264  0.00  0.00    -0.185 NA
ATOM     10  C   UNL     1       7.338  29.123   9.382  0.00  0.00    +0.113 A 
ATOM     11  C   UNL     1       7.368  30.121   8.441  0.00  0.00    +0.074 A 
ATOM     39  C   UNL     1       8.559  29.972   7.737  0.00  0.00    +0.251 A 
BRANCH   8   7
ATOM      7  C   UNL     1      10.367  28.309   7.839  0.00  0.00    +0.383 C 
BRANCH   7   5
ATOM      3  N   UNL     1      11.054  26.384   6.570  0.00  0.00    -0.141 N 
ATOM      4  H   UNL     1      11.981  26.774   6.738  0.00  0.00    +0.340 HD
ATOM      5  C   UNL     1       9.973  27.162   6.933  0.00  0.00    +0.327 C 
ATOM      6  O   UNL     1       8.816  26.991   6.591  0.00  0.00    -0.323 OA
BRANCH   3   2
ATOM      1  C   UNL     1       9.765  24.462   5.584  0.00  0.00    +0.156 A 
ATOM      2  C   UNL     1      10.996  25.089   5.984  0.00  0.00    +0.254 A 
ATOM     40  C   UNL     1      12.244  24.379   5.752  0.00  0.00    +0.273 A 
ATOM     41  F   UNL     1      13.511  24.808   6.059  0.00  0.00    -0.125 F 
ATOM     42  C   UNL     1      12.197  23.159   5.171  0.00  0.00    +0.164 A 
ATOM     43  N   UNL     1      11.000  22.633   4.815  0.00  0.00    -0.357 N 
ATOM     44  H   UNL     1      11.017  21.718   4.366  0.00  0.00    +0.160 HD
ATOM     45  C   UNL     1       9.805  23.189   4.992  0.00  0.00    +0.115 A 
ENDBRANCH   3   2
ENDBRANCH   7   5
ENDBRANCH   8   7
ENDBRANCH  12  11
BRANCH  17  18
ATOM     18  N   UNL     1       3.811  34.178   5.882  0.00  0.00    -0.214 N 
ATOM     19  H   UNL     1       3.645  34.551   6.816  0.00  0.00    +0.238 HD
BRANCH  18  20
ATOM     20  C   UNL     1       3.203  34.730   4.833  0.00  0.00    +0.155 A 
ATOM     21  S   UNL     1       3.398  34.275   3.095  0.00  0.00    +0.027 S 
ATOM     22  N   UNL     1       2.352  35.442   2.599  0.00  0.00    -0.298 NA
ATOM     23  C   UNL     1       1.928  36.166   3.652  0.00  0.00    +0.040 A 
ATOM     33  C   UNL     1       2.394  35.826   4.961  0.00  0.00    +0.035 A 
BRANCH  23  24
ATOM     24  C   UNL     1       1.078  37.324   3.397  0.00  0.00    +0.222 C 
BRANCH  24  25
ATOM     25  N   UNL     1       1.567  38.058   2.195  0.00  0.00    +0.251 N 
ATOM     26  H   UNL     1       2.011  37.331   1.633  0.00  0.00    +0.205 HD
ATOM     27  C   UNL     1       0.464  38.660   1.387  0.00  0.00    +0.136 C 
ATOM     28  C   UNL     1       0.972  38.943  -0.022  0.00  0.00    +0.032 C 
ATOM     29  C   UNL     1       1.180  37.604  -0.790  0.00  0.00    +0.013 C 
ATOM     30  C   UNL     1       2.135  39.981   0.135  0.00  0.00    +0.013 C 
ATOM     31  C   UNL     1       3.233  39.603   1.167  0.00  0.00    +0.051 C 
ATOM     32  C   UNL     1       2.617  39.078   2.484  0.00  0.00    +0.133 C 
ENDBRANCH  24  25
ENDBRANCH  23  24
ENDBRANCH  18  20
ENDBRANCH  17  18
TORSDOF 8
