REMARK  Name = 88Z
REMARK  12 active torsions:
REMARK  status: ('A' for Active; 'I' for Inactive)
REMARK    1  A    between atoms: C1_1  and  O11_11
REMARK    2  A    between atoms: C2_2  and  O13_13
REMARK    3  A    between atoms: C10_10  and  O14_14
REMARK    4  A    between atoms: O13_13  and  C23_23
REMARK    5  A    between atoms: O14_14  and  C15_15
REMARK    6  A    between atoms: C18_18  and  N22_22
REMARK    7  A    between atoms: C23_23  and  C24_24
REMARK    8  A    between atoms: C24_24  and  C25_25
REMARK    9  A    between atoms: C25_25  and  N26_26
REMARK   10  A    between atoms: C32_32  and  C33_33
REMARK   11  A    between atoms: C33_33  and  C34_34
REMARK   12  A    between atoms: N35_35  and  C38_38
REMARK                            x       y       z     vdW  Elec       q    Type
REMARK                         _______ _______ _______ _____ _____    ______ ____
ROOT
ATOM      7  O   UNL     1      18.929  -9.539  -1.175  0.00  0.00    -0.451 OA
ENDROOT
BRANCH   7   6
ATOM      1  C   UNL     1      22.743  -8.660  -2.664  0.00  0.00    +0.173 A 
ATOM      4  C   UNL     1      21.545  -9.038  -2.141  0.00  0.00    +0.045 A 
ATOM      5  C   UNL     1      20.509  -9.500  -2.980  0.00  0.00    +0.055 A 
ATOM      6  C   UNL     1      19.167  -9.677  -2.545  0.00  0.00    +0.148 A 
ATOM     31  C   UNL     1      18.173  -9.953  -3.445  0.00  0.00    +0.058 A 
ATOM     32  C   UNL     1      18.516 -10.038  -4.784  0.00  0.00    +0.102 A 
ATOM     33  N   UNL     1      19.732  -9.854  -5.268  0.00  0.00    -0.243 NA
ATOM     34  C   UNL     1      20.730  -9.564  -4.379  0.00  0.00    +0.087 A 
ATOM     35  C   UNL     1      21.985  -9.178  -4.885  0.00  0.00    +0.059 A 
ATOM     36  C   UNL     1      22.968  -8.722  -4.061  0.00  0.00    +0.174 A 
BRANCH   1   2
ATOM      2  O   UNL     1      23.808  -8.212  -1.933  0.00  0.00    -0.468 OA
ATOM      3  C   UNL     1      23.656  -8.154  -0.518  0.00  0.00    +0.253 C 
ENDBRANCH   1   2
BRANCH  36  37
ATOM     37  O   UNL     1      24.196  -8.274  -4.453  0.00  0.00    -0.472 OA
BRANCH  37  38
ATOM     38  C   UNL     1      24.496  -8.300  -5.856  0.00  0.00    +0.207 C 
BRANCH  38  39
ATOM     39  C   UNL     1      25.739  -7.480  -6.092  0.00  0.00    +0.065 C 
BRANCH  39  40
ATOM     40  C   UNL     1      26.955  -8.033  -5.368  0.00  0.00    +0.076 C 
BRANCH  40  41
ATOM     41  N   UNL     1      28.204  -7.327  -5.683  0.00  0.00    -0.268 NA
ATOM     42  C   UNL     1      28.365  -6.132  -4.850  0.00  0.00    +0.105 C 
ATOM     43  C   UNL     1      29.653  -5.431  -5.197  0.00  0.00    +0.160 C 
ATOM     44  O   UNL     1      30.778  -6.285  -5.025  0.00  0.00    -0.351 OA
ATOM     45  C   UNL     1      30.632  -7.450  -5.829  0.00  0.00    +0.160 C 
ATOM     46  C   UNL     1      29.368  -8.198  -5.496  0.00  0.00    +0.105 C 
ENDBRANCH  40  41
ENDBRANCH  39  40
ENDBRANCH  38  39
ENDBRANCH  37  38
ENDBRANCH  36  37
ENDBRANCH   7   6
BRANCH   7   8
ATOM      8  C   UNL     1      17.629  -9.637  -0.692  0.00  0.00    +0.173 A 
ATOM      9  C   UNL     1      17.183 -10.758  -0.023  0.00  0.00    +0.176 A 
ATOM     10  C   UNL     1      15.920 -10.839   0.507  0.00  0.00    +0.049 A 
ATOM     11  C   UNL     1      15.053  -9.763   0.342  0.00  0.00    +0.076 A 
ATOM     28  C   UNL     1      15.485  -8.630  -0.331  0.00  0.00    +0.020 A 
ATOM     29  F   UNL     1      18.016 -11.818   0.083  0.00  0.00    -0.201 F 
ATOM     30  C   UNL     1      16.764  -8.566  -0.845  0.00  0.00    +0.041 A 
BRANCH  11  12
ATOM     12  N   UNL     1      13.704  -9.730   0.772  0.00  0.00    -0.179 NA
ATOM     13  C   UNL     1      12.961 -10.667   1.401  0.00  0.00    +0.253 C 
ATOM     14  O   UNL     1      13.368 -11.752   1.792  0.00  0.00    -0.273 OA
BRANCH  13  15
ATOM     15  C   UNL     1      11.521 -10.241   1.574  0.00  0.00    +0.141 C 
ATOM     16  C   UNL     1      10.884 -10.429   2.952  0.00  0.00    +0.018 C 
ATOM     17  C   UNL     1      10.460 -11.311   1.841  0.00  0.00    +0.018 C 
BRANCH  15  18
ATOM     18  C   UNL     1      11.145  -8.961   0.872  0.00  0.00    +0.253 C 
ATOM     19  N   UNL     1       9.821  -8.690   0.797  0.00  0.00    -0.179 NA
ATOM     27  O   UNL     1      12.025  -8.239   0.425  0.00  0.00    -0.273 OA
BRANCH  19  20
ATOM     20  C   UNL     1       9.206  -7.516   0.294  0.00  0.00    +0.073 A 
ATOM     21  C   UNL     1       8.028  -7.068   0.874  0.00  0.00    +0.019 A 
ATOM     22  C   UNL     1       7.433  -5.900   0.437  0.00  0.00    +0.031 A 
ATOM     23  C   UNL     1       8.032  -5.205  -0.577  0.00  0.00    +0.140 A 
ATOM     24  F   UNL     1       7.462  -4.042  -0.992  0.00  0.00    -0.204 F 
ATOM     25  C   UNL     1       9.185  -5.618  -1.183  0.00  0.00    +0.031 A 
ATOM     26  C   UNL     1       9.775  -6.788  -0.744  0.00  0.00    +0.019 A 
ENDBRANCH  19  20
ENDBRANCH  15  18
ENDBRANCH  13  15
ENDBRANCH  11  12
ENDBRANCH   7   8
TORSDOF 12
