REMARK  Name = 5K75
REMARK  5 active torsions:
REMARK  status: ('A' for Active; 'I' for Inactive)
REMARK    1  A    between atoms: C_1  and  N_15
REMARK    2  A    between atoms: C_2  and  N_15
REMARK    3  A    between atoms: C_4  and  N_17
REMARK    4  A    between atoms: C_7  and  N_17
REMARK    5  A    between atoms: N_15  and  C_20
REMARK                            x       y       z     vdW  Elec       q    Type
REMARK                         _______ _______ _______ _____ _____    ______ ____
ROOT
ATOM      9  C   UNL     1      30.221   9.348  -7.837  0.00  0.00    +0.131 A 
ATOM     10  N   UNL     1      29.843   8.328  -7.047  0.00  0.00    -0.220 NA
ATOM     11  C   UNL     1      30.357   7.118  -7.284  0.00  0.00    +0.224 A 
ATOM     12  N   UNL     1      31.211   6.772  -8.226  0.00  0.00    -0.228 NA
ATOM     13  C   UNL     1      31.582   7.814  -9.004  0.00  0.00    +0.114 A 
ATOM     14  S   UNL     1      32.741   7.657 -10.302  0.00  0.00    -0.073 S 
ATOM     15  C   UNL     1      32.561   9.342 -10.687  0.00  0.00    -0.004 A 
ATOM     16  C   UNL     1      33.286  10.194 -11.711  0.00  0.00    +0.043 C 
ATOM     17  C   UNL     1      32.803  11.625 -11.366  0.00  0.00    +0.010 C 
ATOM     18  C   UNL     1      31.657  11.482 -10.334  0.00  0.00    +0.037 C 
ATOM     19  C   UNL     1      31.729  10.025  -9.872  0.00  0.00    -0.025 A 
ATOM     20  C   UNL     1      31.139   9.131  -8.887  0.00  0.00    +0.051 A 
ENDROOT
BRANCH   9   7
ATOM      7  N   UNL     1      29.731  10.604  -7.574  0.00  0.00    -0.326 N 
ATOM      8  H   UNL     1      29.966  11.389  -8.262  0.00  0.00    +0.148 HD
BRANCH   7   6
ATOM      3  C   UNL     1      27.759  12.696  -4.330  0.00  0.00    +0.056 C 
ATOM      4  C   UNL     1      28.867  11.655  -3.993  0.00  0.00    +0.020 C 
ATOM      5  C   UNL     1      29.782  11.336  -5.197  0.00  0.00    +0.024 C 
ATOM      6  C   UNL     1      28.911  10.932  -6.415  0.00  0.00    +0.072 C 
ATOM     21  C   UNL     1      27.922  12.045  -6.787  0.00  0.00    +0.024 C 
ATOM     22  C   UNL     1      26.970  12.349  -5.625  0.00  0.00    +0.020 C 
BRANCH   3   2
ATOM      1  C   UNL     1      26.251  14.372  -3.339  0.00  0.00    +0.105 C 
ATOM      2  N   UNL     1      26.893  13.054  -3.169  0.00  0.00    -0.305 NA
ATOM     23  C   UNL     1      25.918  11.985  -2.811  0.00  0.00    +0.105 C 
ENDBRANCH   3   2
ENDBRANCH   7   6
ENDBRANCH   9   7
TORSDOF 3
