REMARK  Name = 3q96_ligand
REMARK  9 active torsions:
REMARK  status: ('A' for Active; 'I' for Inactive)
REMARK    1  A    between atoms: C5_2  and  O11_33
REMARK    2  A    between atoms: C20_9  and  C22_11
REMARK    3  A    between atoms: N33_14  and  C32_15
REMARK    4  A    between atoms: C32_15  and  C38_16
REMARK    5  A    between atoms: C32_15  and  C39_17
REMARK    6  A    between atoms: C32_15  and  C29_18
REMARK    7  A    between atoms: C27_20  and  C34_21
REMARK    8  A    between atoms: C25_25  and  N24_26
REMARK    9  A    between atoms: C12_32  and  O11_33
REMARK                            x       y       z     vdW  Elec       q    Type
REMARK                         _______ _______ _______ _____ _____    ______ ____
ROOT
ATOM     14  C   UNL     1      23.295  -5.777 -10.745  0.00  0.00    +0.103 A 
ATOM     15  C   UNL     1      23.427  -5.275  -9.448  0.00  0.00    +0.014 A 
ATOM     16  C   UNL     1      24.452  -4.378  -9.131  0.00  0.00    -0.046 A 
ATOM     17  C   UNL     1      24.549  -3.889  -7.678  0.00  0.00    +0.084 C 
ATOM     18  C   UNL     1      25.615  -2.794  -7.480  0.00  0.00    +0.121 C 
ATOM     19  C   UNL     1      26.846  -3.028  -8.363  0.00  0.00    +0.039 C 
ATOM     20  C   UNL     1      26.483  -3.000  -9.848  0.00  0.00    +0.055 C 
ATOM     42  C   UNL     1      25.341  -3.974 -10.130  0.00  0.00    -0.051 A 
ATOM     43  C   UNL     1      25.199  -4.467 -11.427  0.00  0.00    -0.023 A 
ATOM     44  C   UNL     1      24.177  -5.359 -11.743  0.00  0.00    +0.006 A 
ENDROOT
BRANCH  18  21
ATOM     21  C   UNL     1      26.059  -2.752  -6.019  0.00  0.00    +0.209 C 
ATOM     22  O   UNL     1      26.172  -3.792  -5.372  0.00  0.00    -0.385 OA
ATOM     23  N   UNL     1      26.311  -1.520  -5.561  0.00  0.00    -0.223 N 
ATOM     24  H   UNL     1      26.183  -0.751  -6.219  0.00  0.00    +0.226 HD
BRANCH  23  25
ATOM     25  C   UNL     1      26.714  -1.195  -4.326  0.00  0.00    +0.120 A 
ATOM     26  C   UNL     1      26.767   0.152  -3.954  0.00  0.00    +0.105 A 
ATOM     27  C   UNL     1      27.191   0.535  -2.678  0.00  0.00    +0.016 A 
ATOM     35  C   UNL     1      27.550  -0.454  -1.768  0.00  0.00    +0.091 A 
ATOM     36  C   UNL     1      27.498  -1.792  -2.137  0.00  0.00    +0.067 A 
ATOM     41  C   UNL     1      27.082  -2.165  -3.405  0.00  0.00    +0.108 A 
BRANCH  36  37
ATOM     37  C   UNL     1      27.888  -2.871  -1.149  0.00  0.00    +0.381 C 
ATOM     38  F   UNL     1      28.904  -3.572  -1.652  0.00  0.00    -0.219 F 
ATOM     39  F   UNL     1      26.827  -3.661  -0.956  0.00  0.00    -0.219 F 
ATOM     40  F   UNL     1      28.263  -2.292  -0.009  0.00  0.00    -0.219 F 
ENDBRANCH  36  37
BRANCH  27  28
ATOM     28  C   UNL     1      27.250   2.016  -2.250  0.00  0.00    -0.018 C 
ATOM     29  C   UNL     1      27.169   2.948  -3.464  0.00  0.00    +0.016 C 
ATOM     30  C   UNL     1      28.530   2.289  -1.454  0.00  0.00    +0.016 C 
BRANCH  28  31
ATOM     31  N   UNL     1      26.100   2.263  -1.372  0.00  0.00    +0.178 N 
ATOM     32  H   UNL     1      26.116   3.233  -1.057  0.00  0.00    +0.196 HD
ATOM     33  H   UNL     1      26.150   1.641  -0.565  0.00  0.00    +0.196 HD
ATOM     34  H   UNL     1      25.237   2.086  -1.886  0.00  0.00    +0.196 HD
ENDBRANCH  28  31
ENDBRANCH  27  28
ENDBRANCH  23  25
ENDBRANCH  18  21
BRANCH  14  13
ATOM     13  O   UNL     1      22.273  -6.630 -11.049  0.00  0.00    -0.263 OA
BRANCH  13  12
ATOM      1  C   UNL     1      21.241  -8.727 -11.292  0.00  0.00    +0.040 A 
ATOM      2  C   UNL     1      21.336 -10.117 -11.174  0.00  0.00    +0.131 A 
ATOM      3  N   UNL     1      20.243 -10.923 -11.509  0.00  0.00    -0.224 N 
ATOM      4  H   UNL     1      20.378 -11.928 -11.620  0.00  0.00    +0.228 HD
ATOM      5  C   UNL     1      18.957 -10.374 -11.697  0.00  0.00    +0.207 C 
ATOM      6  O   UNL     1      18.015 -11.122 -11.967  0.00  0.00    -0.384 OA
ATOM      7  C   UNL     1      18.706  -8.859 -11.575  0.00  0.00    +0.156 C 
ATOM      8  N   UNL     1      22.458 -10.711 -10.727  0.00  0.00    -0.307 NA
ATOM      9  C   UNL     1      23.529 -10.016 -10.380  0.00  0.00    +0.045 A 
ATOM     10  C   UNL     1      23.518  -8.628 -10.467  0.00  0.00    +0.027 A 
ATOM     11  C   UNL     1      19.969  -8.027 -11.803  0.00  0.00    +0.081 C 
ATOM     12  C   UNL     1      22.368  -7.984 -10.929  0.00  0.00    +0.123 A 
ENDBRANCH  13  12
ENDBRANCH  14  13
TORSDOF 7
