REMARK  Name = B5W
REMARK  7 active torsions:
REMARK  status: ('A' for Active; 'I' for Inactive)
REMARK    1  A    between atoms: C2_1  and  C3_2
REMARK    2  A    between atoms: C3_2  and  N_22
REMARK    3  A    between atoms: C4_3  and  C5_4
REMARK    4  A    between atoms: C4_3  and  N_22
REMARK    5  A    between atoms: C5_4  and  C6_5
REMARK    6  A    between atoms: C6_5  and  C7_23
REMARK    7  A    between atoms: C15_15  and  C16_16
REMARK                            x       y       z     vdW  Elec       q    Type
REMARK                         _______ _______ _______ _____ _____    ______ ____
ROOT
ATOM      1  C   UNL     1      -1.980 161.071 397.210  0.00  0.00    -0.004 A 
ATOM      2  C   UNL     1      -2.446 162.036 398.086  0.00  0.00    -0.003 A 
ATOM      3  C   UNL     1      -3.779 162.087 398.454  0.00  0.00    +0.001 A 
ATOM      4  C   UNL     1      -4.694 161.164 397.953  0.00  0.00    +0.011 A 
ATOM     11  C   UNL     1      -4.212 160.190 397.082  0.00  0.00    +0.057 A 
ATOM     12 CL   UNL     1      -5.287 158.998 396.429  0.00  0.00    -0.082 Cl
ATOM     24  C   UNL     1      -2.882 160.139 396.715  0.00  0.00    +0.009 A 
ENDROOT
BRANCH   4   5
ATOM      5  C   UNL     1      -6.123 161.269 398.359  0.00  0.00    +0.001 A 
ATOM      6  C   UNL     1      -6.678 160.372 399.267  0.00  0.00    +0.000 A 
ATOM      7  C   UNL     1      -8.003 160.479 399.650  0.00  0.00    +0.000 A 
ATOM      8  C   UNL     1      -8.797 161.478 399.132  0.00  0.00    +0.000 A 
ATOM      9  C   UNL     1      -8.266 162.373 398.229  0.00  0.00    +0.000 A 
ATOM     10  C   UNL     1      -6.941 162.272 397.844  0.00  0.00    +0.000 A 
ENDBRANCH   4   5
BRANCH   1  13
ATOM     13  C   UNL     1      -0.533 161.051 396.782  0.00  0.00    +0.115 C 
BRANCH  13  14
ATOM     14  N   UNL     1      -0.115 159.763 396.227  0.00  0.00    -0.213 NA
BRANCH  14  15
ATOM     15  C   UNL     1       1.340 159.608 396.207  0.00  0.00    +0.089 C 
BRANCH  15  16
ATOM     16  C   UNL     1       1.822 158.827 395.004  0.00  0.00    +0.024 C 
BRANCH  16  17
ATOM     17  C   UNL     1       3.344 158.758 394.912  0.00  0.00    +0.028 C 
BRANCH  17  18
ATOM     18  C   UNL     1       3.876 157.915 393.779  0.00  0.00    -0.022 A 
ATOM     19  C   UNL     1       4.229 156.591 393.985  0.00  0.00    -0.004 A 
ATOM     20  C   UNL     1       4.724 155.820 392.948  0.00  0.00    -0.000 A 
ATOM     21  C   UNL     1       4.873 156.362 391.691  0.00  0.00    -0.000 A 
ATOM     22  C   UNL     1       4.526 157.676 391.473  0.00  0.00    -0.000 A 
ATOM     23  C   UNL     1       4.030 158.447 392.509  0.00  0.00    -0.004 A 
ENDBRANCH  17  18
ENDBRANCH  16  17
ENDBRANCH  15  16
ENDBRANCH  14  15
ENDBRANCH  13  14
ENDBRANCH   1  13
TORSDOF 7
