REMARK  Name = 3F9M
REMARK  4 active torsions:
REMARK  status: ('A' for Active; 'I' for Inactive)
REMARK    1  A    between atoms: N_6  and  C_7
REMARK    2  A    between atoms: C_7  and  C_10
REMARK    3  A    between atoms: C_12  and  S_16
REMARK    4  A    between atoms: S_16  and  C_18
REMARK                            x       y       z     vdW  Elec       q    Type
REMARK                         _______ _______ _______ _____ _____    ______ ____
ROOT
ATOM      5  C   UNL     1      -8.724   1.990  19.817  0.00  0.00    +0.073 A 
ATOM      6  C   UNL     1      -9.810   2.535  20.496  0.00  0.00    +0.015 A 
ATOM      7  C   UNL     1     -10.284   3.791  20.168  0.00  0.00    +0.060 A 
ATOM     15  C   UNL     1      -9.668   4.502  19.143  0.00  0.00    +0.147 A 
ATOM     16  C   UNL     1      -8.579   3.961  18.469  0.00  0.00    +0.048 A 
ATOM     17  F   UNL     1     -10.100   5.732  18.780  0.00  0.00    -0.204 F 
ATOM     18  C   UNL     1      -8.104   2.700  18.789  0.00  0.00    +0.096 A 
ATOM     19  N   UNL     1      -7.047   2.199  18.097  0.00  0.00    -0.128 NA
ENDROOT
BRANCH   5   4
ATOM      4  C   UNL     1      -8.267   0.636  20.225  0.00  0.00    +0.272 C 
ATOM     20  O   UNL     1      -7.648  -0.042  19.437  0.00  0.00    -0.268 OA
BRANCH   4   3
ATOM      1  S   UNL     1      -7.578  -2.275  20.833  0.00  0.00    -0.049 S 
ATOM      2  C   UNL     1      -8.371  -1.092  21.822  0.00  0.00    +0.186 A 
ATOM      3  N   UNL     1      -8.601   0.189  21.432  0.00  0.00    -0.150 NA
ATOM     21  N   UNL     1      -8.731  -1.505  23.023  0.00  0.00    -0.221 NA
ATOM     22  C   UNL     1      -8.400  -2.812  23.211  0.00  0.00    +0.108 A 
ATOM     23  C   UNL     1      -7.761  -3.402  22.133  0.00  0.00    +0.059 A 
ENDBRANCH   4   3
ENDBRANCH   5   4
BRANCH   7   8
ATOM      8  S   UNL     1     -11.655   4.379  21.002  0.00  0.00    -0.048 S 
BRANCH   8   9
ATOM      9  C   UNL     1     -11.448   6.051  21.410  0.00  0.00    +0.176 A 
ATOM     10  N   UNL     1     -10.584   6.479  22.340  0.00  0.00    -0.219 NA
ATOM     11  C   UNL     1     -10.747   7.826  22.321  0.00  0.00    +0.120 A 
ATOM     12  C   UNL     1     -11.703   8.142  21.369  0.00  0.00    +0.098 A 
ATOM     13  N   UNL     1     -12.138   7.010  20.802  0.00  0.00    -0.303 N 
ATOM     14  C   UNL     1     -13.155   6.874  19.734  0.00  0.00    +0.133 C 
ENDBRANCH   8   9
ENDBRANCH   7   8
TORSDOF 4
