REMARK  Name = 1H2
REMARK  3 active torsions:
REMARK  status: ('A' for Active; 'I' for Inactive)
REMARK    1  A    between atoms: C5_3  and  C9_8
REMARK    2  A    between atoms: C9_8  and  C10_9
REMARK    3  A    between atoms: C3_12  and  C2_16
REMARK                            x       y       z     vdW  Elec       q    Type
REMARK                         _______ _______ _______ _____ _____    ______ ____
ROOT
ATOM      1  C   UNL     1      29.380  15.647  -0.994  0.00  0.00    -0.001 A 
ATOM      2  C   UNL     1      29.796  16.086   0.263  0.00  0.00    +0.007 A 
ATOM      3  C   UNL     1      28.985  15.975   1.356  0.00  0.00    +0.042 A 
ATOM      4  C   UNL     1      27.694  15.436   1.184  0.00  0.00    +0.196 A 
ATOM      5  O   UNL     1      26.885  15.352   2.226  0.00  0.00    -0.287 OA
ATOM      6  C   UNL     1      27.227  14.992  -0.071  0.00  0.00    +0.041 A 
ATOM     14  C   UNL     1      28.080  15.094  -1.151  0.00  0.00    +0.015 A 
ENDROOT
BRANCH   2   7
ATOM      7  C   UNL     1      31.129  16.646   0.431  0.00  0.00    +0.050 A 
ATOM      8  C   UNL     1      31.444  17.912   1.011  0.00  0.00    +0.101 A 
ATOM      9  C   UNL     1      30.461  18.828   1.696  0.00  0.00    +0.056 C 
ATOM     10  N   UNL     1      32.801  18.098   0.852  0.00  0.00    -0.082 NA
ATOM     11  O   UNL     1      33.372  16.918   0.181  0.00  0.00    -0.358 OA
ATOM     12  C   UNL     1      32.263  16.067  -0.017  0.00  0.00    +0.154 A 
ATOM     13  C   UNL     1      32.461  14.697  -0.563  0.00  0.00    +0.075 C 
ENDBRANCH   2   7
BRANCH  14  15
ATOM     15  C   UNL     1      27.593  14.674  -2.552  0.00  0.00    +0.197 C 
ATOM     16  O   UNL     1      28.610  13.855  -3.145  0.00  0.00    -0.213 OA
BRANCH  15  17
ATOM     17  C   UNL     1      27.295  15.913  -3.415  0.00  0.00    +0.012 A 
ATOM     18  C   UNL     1      26.365  16.886  -2.960  0.00  0.00    -0.002 A 
ATOM     19  C   UNL     1      26.009  17.968  -3.791  0.00  0.00    -0.000 A 
ATOM     20  C   UNL     1      26.518  18.092  -5.064  0.00  0.00    -0.000 A 
ATOM     21  C   UNL     1      27.466  17.153  -5.554  0.00  0.00    -0.000 A 
ATOM     22  C   UNL     1      27.863  16.061  -4.709  0.00  0.00    -0.002 A 
ENDBRANCH  15  17
ENDBRANCH  14  15
TORSDOF 3
