REMARK  Name = 5HIC
REMARK  8 active torsions:
REMARK  status: ('A' for Active; 'I' for Inactive)
REMARK    1  A    between atoms: C_1  and  N_14
REMARK    2  A    between atoms: C_6  and  N_14
REMARK    3  A    between atoms: C_8  and  C_10
REMARK    4  A    between atoms: C_9  and  C_10
REMARK    5  A    between atoms: C_10  and  N_11
REMARK    6  A    between atoms: C_18  and  C_20
REMARK    7  A    between atoms: N_23  and  S_25
REMARK    8  A    between atoms: S_25  and  C_28
REMARK                            x       y       z     vdW  Elec       q    Type
REMARK                         _______ _______ _______ _____ _____    ______ ____
ROOT
ATOM      1  C   UNL     1     -55.283   1.011 -24.341  0.00  0.00    +0.128 A 
ATOM      2  N   UNL     1     -54.328   0.192 -24.820  0.00  0.00    -0.212 NA
ATOM      3  C   UNL     1     -54.539  -0.553 -25.911  0.00  0.00    +0.165 A 
ATOM     15  N   UNL     1     -55.699  -0.481 -26.569  0.00  0.00    -0.235 NA
ATOM     16  C   UNL     1     -56.674   0.333 -26.168  0.00  0.00    +0.116 A 
ATOM     17  C   UNL     1     -56.504   1.107 -25.028  0.00  0.00    +0.063 A 
ENDROOT
BRANCH   3   4
ATOM      4  C   UNL     1     -53.499  -1.512 -26.368  0.00  0.00    +0.059 A 
ATOM      5  C   UNL     1     -52.545  -2.064 -25.564  0.00  0.00    +0.147 A 
ATOM      6  N   UNL     1     -51.817  -2.926 -26.299  0.00  0.00    -0.140 N 
ATOM     13  N   UNL     1     -52.344  -2.928 -27.602  0.00  0.00    -0.158 NA
ATOM     14  C   UNL     1     -53.355  -2.100 -27.645  0.00  0.00    +0.147 A 
BRANCH   6   7
ATOM      7  S   UNL     1     -50.529  -3.829 -25.725  0.00  0.00    +0.072 S 
ATOM     11  O   UNL     1     -49.919  -2.999 -24.738  0.00  0.00    -0.151 OA
ATOM     12  O   UNL     1     -49.841  -4.202 -26.915  0.00  0.00    -0.151 OA
BRANCH   7   8
ATOM      8  C   UNL     1     -51.278  -5.292 -24.938  0.00  0.00    +0.155 C 
ATOM      9  C   UNL     1     -50.689  -5.787 -23.614  0.00  0.00    +0.030 C 
ATOM     10  C   UNL     1     -50.454  -6.584 -24.898  0.00  0.00    +0.030 C 
ENDBRANCH   7   8
ENDBRANCH   6   7
ENDBRANCH   3   4
BRANCH   1  18
ATOM     18  N   UNL     1     -55.113   1.787 -23.198  0.00  0.00    -0.284 N 
ATOM     19  H   UNL     1     -55.587   2.746 -23.206  0.00  0.00    +0.155 HD
BRANCH  18  20
ATOM     20  C   UNL     1     -54.395   1.464 -22.037  0.00  0.00    +0.126 A 
ATOM     21  N   UNL     1     -54.688   2.138 -20.922  0.00  0.00    -0.238 NA
ATOM     22  C   UNL     1     -54.028   1.960 -19.784  0.00  0.00    +0.142 A 
ATOM     23  C   UNL     1     -52.992   1.018 -19.694  0.00  0.00    +0.107 A 
ATOM     24  N   UNL     1     -52.165   0.595 -18.702  0.00  0.00    -0.234 NA
ATOM     25  C   UNL     1     -51.363  -0.317 -19.172  0.00  0.00    +0.200 A 
ATOM     26  N   UNL     1     -51.596  -0.531 -20.508  0.00  0.00    -0.327 N 
ATOM     30  C   UNL     1     -52.636   0.299 -20.865  0.00  0.00    +0.074 A 
ATOM     31  C   UNL     1     -53.332   0.558 -22.047  0.00  0.00    +0.071 A 
BRANCH  26  27
ATOM     27  C   UNL     1     -50.925  -1.484 -21.413  0.00  0.00    +0.083 C 
ATOM     28  C   UNL     1     -49.413  -1.577 -21.182  0.00  0.00    +0.030 C 
ATOM     29  C   UNL     1     -51.580  -2.863 -21.296  0.00  0.00    +0.030 C 
ENDBRANCH  26  27
ENDBRANCH  18  20
ENDBRANCH   1  18
TORSDOF 6
