REMARK  Name = 4WRS
REMARK  4 active torsions:
REMARK  status: ('A' for Active; 'I' for Inactive)
REMARK    1  A    between atoms: C_8  and  C_9
REMARK    2  A    between atoms: C_15  and  C_16
REMARK    3  A    between atoms: C_20  and  O_21
REMARK    4  A    between atoms: O_21  and  C_22
REMARK                            x       y       z     vdW  Elec       q    Type
REMARK                         _______ _______ _______ _____ _____    ______ ____
ROOT
ATOM      4  C   UNL     1     -44.607  -1.414   1.436  0.00  0.00    -0.012 A 
ATOM      5  C   UNL     1     -43.235  -1.698   1.195  0.00  0.00    +0.021 A 
ATOM      6  C   UNL     1     -42.739  -1.839  -0.152  0.00  0.00    +0.029 A 
ATOM      7  C   UNL     1     -41.451  -2.114  -0.733  0.00  0.00    +0.120 A 
ATOM     24  N   UNL     1     -41.617  -2.135  -2.072  0.00  0.00    -0.171 NA
ATOM     25  N   UNL     1     -42.902  -1.884  -2.383  0.00  0.00    -0.276 N 
ATOM     26  H   UNL     1     -43.309  -1.841  -3.372  0.00  0.00    +0.189 HD
ATOM     27  C   UNL     1     -43.607  -1.691  -1.214  0.00  0.00    +0.066 A 
ATOM     28  C   UNL     1     -44.977  -1.411  -0.987  0.00  0.00    +0.028 A 
ATOM     29  C   UNL     1     -45.462  -1.280   0.316  0.00  0.00    +0.011 A 
ENDROOT
BRANCH   4   3
ATOM      1  F   UNL     1     -43.853  -3.058   3.616  0.00  0.00    -0.205 F 
ATOM      2  C   UNL     1     -44.777  -2.108   3.802  0.00  0.00    +0.134 A 
ATOM      3  C   UNL     1     -45.165  -1.269   2.744  0.00  0.00    +0.052 A 
ATOM     30  C   UNL     1     -46.146  -0.287   3.014  0.00  0.00    +0.134 A 
ATOM     31  F   UNL     1     -46.569   0.550   2.051  0.00  0.00    -0.205 F 
ATOM     32  C   UNL     1     -46.704  -0.148   4.294  0.00  0.00    +0.039 A 
ATOM     33  C   UNL     1     -46.297  -0.991   5.329  0.00  0.00    +0.006 A 
ATOM     34  C   UNL     1     -45.331  -1.969   5.079  0.00  0.00    +0.039 A 
ENDBRANCH   4   3
BRANCH   7   8
ATOM      8  C   UNL     1     -40.229  -2.373  -0.095  0.00  0.00    +0.113 A 
ATOM      9  N   UNL     1     -40.172  -2.522   1.247  0.00  0.00    -0.208 NA
ATOM     10  C   UNL     1     -38.990  -2.803   1.851  0.00  0.00    +0.234 A 
ATOM     21  C   UNL     1     -37.830  -2.949   1.084  0.00  0.00    +0.177 A 
ATOM     22  N   UNL     1     -37.875  -2.816  -0.261  0.00  0.00    -0.256 NA
ATOM     23  C   UNL     1     -39.062  -2.540  -0.851  0.00  0.00    +0.141 A 
BRANCH  10  11
ATOM     11  O   UNL     1     -38.887  -2.968   3.270  0.00  0.00    -0.470 OA
BRANCH  11  12
ATOM     12  C   UNL     1     -40.121  -2.812   4.013  0.00  0.00    +0.195 C 
ATOM     13  C   UNL     1     -39.768  -1.983   5.182  0.00  0.00    +0.010 C 
ATOM     14  C   UNL     1     -39.465  -0.494   5.196  0.00  0.00    +0.011 C 
ATOM     15  C   UNL     1     -40.751  -1.014   5.817  0.00  0.00    +0.011 C 
ATOM     16  C   UNL     1     -38.926  -2.723   6.153  0.00  0.00    +0.025 C 
ATOM     17  C   UNL     1     -39.659  -3.970   6.651  0.00  0.00    +0.081 C 
ATOM     18  N   UNL     1     -40.029  -4.860   5.526  0.00  0.00    -0.313 NA
ATOM     19  H   UNL     1     -39.135  -5.302   5.138  0.00  0.00    +0.122 HD
ATOM     20  C   UNL     1     -40.727  -4.168   4.415  0.00  0.00    +0.126 C 
ENDBRANCH  11  12
ENDBRANCH  10  11
ENDBRANCH   7   8
TORSDOF 4
