REMARK  Name = AXNH
REMARK  4 active torsions:
REMARK  status: ('A' for Active; 'I' for Inactive)
REMARK    1  A    between atoms: C1_1  and  O_19
REMARK    2  A    between atoms: C7_5  and  C8_6
REMARK    3  A    between atoms: C7_5  and  C6_11
REMARK    4  A    between atoms: C6_11  and  N4_12
REMARK                            x       y       z     vdW  Elec       q    Type
REMARK                         _______ _______ _______ _____ _____    ______ ____
ROOT
ATOM      1  C   UNL     1      61.898  50.873 126.236  0.00  0.00    +0.341 A 
ATOM      2  N   UNL     1      62.586  50.342 127.256  0.00  0.00    -0.160 N 
ATOM      3  N   UNL     1      62.829  50.867 128.536  0.00  0.00    -0.143 NA
ATOM      4  C   UNL     1      63.439  50.041 129.334  0.00  0.00    +0.168 A 
ATOM      5  N   UNL     1      63.632  50.611 130.605  0.00  0.00    -0.219 NA
ATOM     10  C   UNL     1      63.867  48.729 128.967  0.00  0.00    +0.041 A 
ATOM     11  C   UNL     1      63.612  48.247 127.722  0.00  0.00    +0.044 A 
ATOM     12  C   UNL     1      62.932  49.080 126.802  0.00  0.00    +0.190 A 
ATOM     13  N   UNL     1      62.508  48.918 125.562  0.00  0.00    -0.124 NA
ATOM     16  N   UNL     1      61.840  50.098 125.190  0.00  0.00    -0.090 NA
ENDROOT
BRANCH   1  14
ATOM     14  O   UNL     1      61.400  52.100 126.370  0.00  0.00    -0.442 OA
ATOM     15  C   UNL     1      60.409  52.499 125.391  0.00  0.00    +0.256 C 
ENDBRANCH   1  14
BRANCH   5   6
ATOM      6  C   UNL     1      62.777  51.694 131.119  0.00  0.00    +0.114 C 
BRANCH   6   7
ATOM      7  C   UNL     1      61.966  51.246 132.327  0.00  0.00    +0.023 C 
BRANCH   7   8
ATOM      8  C   UNL     1      62.882  50.753 133.432  0.00  0.00    +0.002 C 
ATOM      9  C   UNL     1      63.752  49.624 132.886  0.00  0.00    +0.000 C 
ENDBRANCH   7   8
ENDBRANCH   6   7
ENDBRANCH   5   6
TORSDOF 4
