REMARK  Name = 3w32_ligand
REMARK  9 active torsions:
REMARK  status: ('A' for Active; 'I' for Inactive)
REMARK    1  A    between atoms: C10_10  and  C25_25
REMARK    2  A    between atoms: C11_11  and  N29_29
REMARK    3  A    between atoms: C12_12  and  O34_34
REMARK    4  A    between atoms: C13_13  and  O34_34
REMARK    5  A    between atoms: C18_18  and  C19_19
REMARK    6  A    between atoms: C22_22  and  S38_38
REMARK    7  A    between atoms: C23_23  and  C24_24
REMARK    8  A    between atoms: C23_23  and  N30_30
REMARK    9  A    between atoms: C24_24  and  S38_38
REMARK                            x       y       z     vdW  Elec       q    Type
REMARK                         _______ _______ _______ _____ _____    ______ ____
ROOT
ATOM     10  N   UNL     1      16.248  33.857  12.650  0.00  0.00    -0.261 N 
ATOM     11  H   UNL     1      17.070  34.170  13.186  0.00  0.00    +0.215 HD
ATOM     12  C   UNL     1      14.989  33.935  13.305  0.00  0.00    +0.142 A 
ATOM     13  N   UNL     1      13.891  33.461  12.695  0.00  0.00    -0.267 NA
ATOM     14  C   UNL     1      12.748  33.566  13.379  0.00  0.00    +0.159 A 
ATOM     15  N   UNL     1      12.598  34.091  14.590  0.00  0.00    -0.269 NA
ATOM     16  C   UNL     1      13.699  34.562  15.192  0.00  0.00    +0.125 A 
ATOM     17  N   UNL     1      13.391  35.060  16.456  0.00  0.00    -0.300 N 
ATOM     18  H   UNL     1      12.403  35.010  16.742  0.00  0.00    +0.186 HD
ATOM     19  C   UNL     1      14.310  35.640  17.409  0.00  0.00    +0.149 C 
ATOM     20  C   UNL     1      15.566  34.815  17.582  0.00  0.00    +0.095 C 
ATOM     21  C   UNL     1      16.443  35.196  16.465  0.00  0.00    +0.025 C 
ATOM     32  C   UNL     1      16.163  35.029  15.170  0.00  0.00    +0.012 C 
ATOM     33  C   UNL     1      14.942  34.492  14.574  0.00  0.00    +0.064 A 
ENDROOT
BRANCH  10   9
ATOM      5  C   UNL     1      16.923  32.597   8.743  0.00  0.00    +0.120 A 
ATOM      6  C   UNL     1      15.995  33.592   9.009  0.00  0.00    +0.064 A 
ATOM      7 CL   UNL     1      15.137  34.343   7.702  0.00  0.00    -0.080 Cl
ATOM      8  C   UNL     1      15.786  33.991  10.313  0.00  0.00    +0.021 A 
ATOM      9  C   UNL     1      16.480  33.398  11.352  0.00  0.00    +0.056 A 
ATOM     34  C   UNL     1      17.399  32.400  11.069  0.00  0.00    +0.007 A 
ATOM     35  C   UNL     1      17.620  31.995   9.772  0.00  0.00    +0.016 A 
BRANCH   5   4
ATOM      4  O   UNL     1      17.118  32.249   7.424  0.00  0.00    -0.257 OA
BRANCH   4   3
ATOM      1  C   UNL     1      17.523  28.990   5.798  0.00  0.00    +0.029 A 
ATOM      2  C   UNL     1      17.766  30.265   6.269  0.00  0.00    +0.081 A 
ATOM      3  C   UNL     1      16.830  30.965   6.994  0.00  0.00    +0.142 A 
ATOM     36  C   UNL     1      15.605  30.408   7.268  0.00  0.00    +0.077 A 
ATOM     37  C   UNL     1      15.370  29.134   6.809  0.00  0.00    +0.039 A 
ATOM     42  C   UNL     1      16.291  28.418   6.080  0.00  0.00    +0.036 A 
BRANCH  37  38
ATOM     38  C   UNL     1      14.038  28.522   7.120  0.00  0.00    +0.374 C 
ATOM     39  F   UNL     1      13.559  27.856   6.039  0.00  0.00    -0.221 F 
ATOM     40  F   UNL     1      13.166  29.438   7.562  0.00  0.00    -0.221 F 
ATOM     41  F   UNL     1      14.097  27.611   8.115  0.00  0.00    -0.221 F 
ENDBRANCH  37  38
ENDBRANCH   4   3
ENDBRANCH   5   4
ENDBRANCH  10   9
BRANCH  21  22
ATOM     22  C   UNL     1      17.734  35.864  16.810  0.00  0.00    +0.197 C 
ATOM     23  O   UNL     1      17.835  36.482  17.860  0.00  0.00    -0.390 OA
ATOM     24  N   UNL     1      18.733  35.791  15.867  0.00  0.00    -0.286 N 
ATOM     25  H   UNL     1      18.550  35.370  14.979  0.00  0.00    +0.184 HD
BRANCH  24  26
ATOM     26  C   UNL     1      20.048  36.322  16.157  0.00  0.00    +0.156 C 
BRANCH  26  27
ATOM     27  C   UNL     1      20.735  35.538  17.258  0.00  0.00    +0.189 C 
BRANCH  27  28
ATOM     28  S   UNL     1      22.276  36.305  17.700  0.00  0.00    -0.032 S 
ATOM     29  O   UNL     1      21.997  37.443  18.557  0.00  0.00    -0.175 OA
ATOM     30  O   UNL     1      23.066  36.437  16.489  0.00  0.00    -0.175 OA
ATOM     31  C   UNL     1      23.039  35.053  18.700  0.00  0.00    +0.194 C 
ENDBRANCH  27  28
ENDBRANCH  26  27
ENDBRANCH  24  26
ENDBRANCH  21  22
TORSDOF 8
