REMARK  Name = 5LWM
REMARK  7 active torsions:
REMARK  status: ('A' for Active; 'I' for Inactive)
REMARK    1  A    between atoms: C_5  and  C_6
REMARK    2  A    between atoms: N_7  and  C_27
REMARK    3  A    between atoms: C_10  and  C_11
REMARK    4  A    between atoms: C_13  and  C_14
REMARK    5  A    between atoms: C_13  and  C_18
REMARK    6  A    between atoms: C_15  and  N_16
REMARK    7  A    between atoms: N_16  and  C_20
REMARK                            x       y       z     vdW  Elec       q    Type
REMARK                         _______ _______ _______ _____ _____    ______ ____
ROOT
ATOM      1  C   UNL     1      40.914  23.144  53.750  0.00  0.00    +0.143 C 
ATOM      2  N   UNL     1      40.641  22.177  54.611  0.00  0.00    -0.234 NA
ATOM      3  C   UNL     1      39.369  22.169  55.100  0.00  0.00    +0.162 C 
ATOM      4  C   UNL     1      38.312  23.042  54.738  0.00  0.00    +0.046 C 
ATOM      5  C   UNL     1      38.646  24.011  53.760  0.00  0.00    +0.082 C 
ATOM      6  N   UNL     1      38.008  25.027  53.002  0.00  0.00    -0.317 NA
ATOM     13  C   UNL     1      38.964  25.561  52.168  0.00  0.00    +0.178 C 
ATOM     14  N   UNL     1      40.155  25.022  52.321  0.00  0.00    -0.223 NA
ATOM     29  C   UNL     1      37.158  22.646  55.512  0.00  0.00    +0.033 C 
ATOM     30  C   UNL     1      37.542  21.581  56.256  0.00  0.00    +0.114 C 
ATOM     31  N   UNL     1      38.869  21.299  56.016  0.00  0.00    -0.236 NA
ATOM     32  C   UNL     1      39.983  24.056  53.276  0.00  0.00    +0.109 C 
ENDROOT
BRANCH   6   7
ATOM      7  C   UNL     1      36.591  25.420  53.087  0.00  0.00    +0.089 C 
ATOM      8  C   UNL     1      35.669  24.293  52.652  0.00  0.00    +0.025 C 
ATOM      9  C   UNL     1      34.210  24.734  52.709  0.00  0.00    +0.002 C 
ATOM     10  C   UNL     1      33.859  25.245  54.091  0.00  0.00    +0.000 C 
ATOM     11  C   UNL     1      34.752  26.395  54.476  0.00  0.00    +0.002 C 
ATOM     12  C   UNL     1      36.229  25.999  54.444  0.00  0.00    +0.025 C 
ENDBRANCH   6   7
BRANCH  13  15
ATOM     15  C   UNL     1      38.802  26.589  51.169  0.00  0.00    +0.171 A 
ATOM     16  O   UNL     1      37.683  26.573  50.350  0.00  0.00    -0.452 OA
ATOM     17  C   UNL     1      37.788  27.680  49.537  0.00  0.00    +0.130 A 
ATOM     27  C   UNL     1      38.918  28.348  49.816  0.00  0.00    +0.050 A 
ATOM     28  C   UNL     1      39.577  27.645  50.849  0.00  0.00    +0.053 A 
BRANCH  17  18
ATOM     18  C   UNL     1      36.793  28.061  48.615  0.00  0.00    +0.070 C 
ATOM     19  C   UNL     1      36.425  29.197  47.991  0.00  0.00    +0.117 C 
BRANCH  19  22
ATOM     22  C   UNL     1      36.613  30.533  48.647  0.00  0.00    +0.257 C 
ATOM     23  O   UNL     1      36.124  30.684  49.755  0.00  0.00    -0.269 OA
ATOM     24  N   UNL     1      37.221  31.534  47.999  0.00  0.00    -0.303 N 
ATOM     25  C   UNL     1      37.968  31.452  46.740  0.00  0.00    +0.132 C 
ATOM     26  C   UNL     1      37.242  32.877  48.599  0.00  0.00    +0.132 C 
ENDBRANCH  19  22
BRANCH  19  20
ATOM     20  C   UNL     1      35.850  29.109  46.690  0.00  0.00    +0.105 C 
ATOM     21  N   UNL     1      35.395  28.994  45.652  0.00  0.00    -0.191 NA
ENDBRANCH  19  20
ENDBRANCH  17  18
ENDBRANCH  13  15
TORSDOF 5
