REMARK  Name = 5KML
REMARK  6 active torsions:
REMARK  status: ('A' for Active; 'I' for Inactive)
REMARK    1  A    between atoms: C_1  and  C_2
REMARK    2  A    between atoms: C_5  and  N_20
REMARK    3  A    between atoms: C_7  and  C_8
REMARK    4  A    between atoms: C_7  and  N_18
REMARK    5  A    between atoms: C_11  and  C_15
REMARK    6  A    between atoms: C_21  and  C_22
REMARK                            x       y       z     vdW  Elec       q    Type
REMARK                         _______ _______ _______ _____ _____    ______ ____
ROOT
ATOM      7  N   UNL     1     -15.215  -2.781 -24.217  0.00  0.00    -0.265 N 
ATOM      8  H   UNL     1     -14.656  -2.932 -23.318  0.00  0.00    +0.157 HD
ATOM      9  C   UNL     1     -15.741  -3.895 -24.830  0.00  0.00    +0.304 C 
ATOM     10  O   UNL     1     -16.403  -3.813 -25.859  0.00  0.00    -0.253 OA
ATOM     11  N   UNL     1     -15.479  -5.061 -24.215  0.00  0.00    -0.295 N 
ATOM     12  H   UNL     1     -14.768  -5.074 -23.416  0.00  0.00    +0.151 HD
ENDROOT
BRANCH   7   6
ATOM      1  C   UNL     1     -16.618  -0.796 -24.604  0.00  0.00    +0.135 A 
ATOM      2  N   UNL     1     -16.537   0.425 -25.078  0.00  0.00    -0.076 NA
ATOM      3  O   UNL     1     -15.174   0.600 -25.474  0.00  0.00    -0.357 OA
ATOM      4  C   UNL     1     -14.501  -0.546 -25.225  0.00  0.00    +0.156 A 
ATOM      5  C   UNL     1     -13.070  -0.558 -25.596  0.00  0.00    +0.091 C 
ATOM      6  C   UNL     1     -15.352  -1.476 -24.672  0.00  0.00    +0.105 A 
BRANCH   1  24
ATOM     24  C   UNL     1     -17.890  -1.285 -24.024  0.00  0.00    +0.005 A 
ATOM     25  C   UNL     1     -19.102  -1.070 -24.672  0.00  0.00    +0.010 A 
ATOM     26  C   UNL     1     -20.288  -1.510 -24.105  0.00  0.00    +0.001 A 
ATOM     27  C   UNL     1     -20.277  -2.163 -22.880  0.00  0.00    +0.000 A 
ATOM     28  C   UNL     1     -19.079  -2.382 -22.229  0.00  0.00    +0.001 A 
ATOM     29  C   UNL     1     -17.890  -1.952 -22.798  0.00  0.00    +0.010 A 
ENDBRANCH   1  24
ENDBRANCH   7   6
BRANCH  11  13
ATOM     13  C   UNL     1     -16.127  -6.306 -24.597  0.00  0.00    +0.141 C 
BRANCH  13  14
ATOM     14  C   UNL     1     -17.070  -6.836 -23.538  0.00  0.00    -0.019 A 
ATOM     15  C   UNL     1     -17.492  -8.176 -23.562  0.00  0.00    +0.059 A 
ATOM     16  C   UNL     1     -18.447  -8.608 -22.643  0.00  0.00    +0.013 A 
ATOM     17  C   UNL     1     -18.966  -7.735 -21.697  0.00  0.00    +0.001 A 
ATOM     18  C   UNL     1     -18.531  -6.427 -21.655  0.00  0.00    +0.000 A 
ATOM     23  C   UNL     1     -17.591  -5.980 -22.569  0.00  0.00    +0.006 A 
BRANCH  15  19
ATOM     19  C   UNL     1     -16.939  -9.191 -24.536  0.00  0.00    +0.418 C 
ATOM     20  F   UNL     1     -15.642  -9.442 -24.345  0.00  0.00    -0.166 F 
ATOM     21  F   UNL     1     -17.105  -8.837 -25.790  0.00  0.00    -0.166 F 
ATOM     22  F   UNL     1     -17.539 -10.354 -24.475  0.00  0.00    -0.166 F 
ENDBRANCH  15  19
ENDBRANCH  13  14
ENDBRANCH  11  13
TORSDOF 5
