REMARK  Name = 4u44_ligand
REMARK  2 active torsions:
REMARK  status: ('A' for Active; 'I' for Inactive)
REMARK    1  A    between atoms: C4_1  and  C7_4
REMARK    2  A    between atoms: N16_16  and  C17_17
REMARK                            x       y       z     vdW  Elec       q    Type
REMARK                         _______ _______ _______ _____ _____    ______ ____
ROOT
ATOM      6  C   UNL     1     -14.021  -2.325  29.342  0.00  0.00    -0.027 A 
ATOM      7  C   UNL     1     -13.505  -2.858  30.496  0.00  0.00    +0.154 A 
ATOM      8  N   UNL     1     -14.142  -4.002  30.765  0.00  0.00    -0.160 N 
ATOM      9  N   UNL     1     -14.007  -4.922  31.812  0.00  0.00    -0.162 NA
ATOM     10  C   UNL     1     -14.753  -5.984  31.840  0.00  0.00    +0.187 A 
ATOM     11  N   UNL     1     -15.667  -6.213  30.906  0.00  0.00    -0.269 NA
ATOM     12  C   UNL     1     -15.884  -5.396  29.878  0.00  0.00    +0.178 A 
ATOM     13  N   UNL     1     -16.839  -5.648  28.894  0.00  0.00    -0.237 N 
ATOM     14  H   UNL     1     -16.946  -4.929  28.165  0.00  0.00    +0.224 HD
ATOM     21  C   UNL     1     -15.094  -4.225  29.783  0.00  0.00    +0.153 A 
ATOM     22  C   UNL     1     -15.030  -3.187  28.880  0.00  0.00    -0.017 A 
ENDROOT
BRANCH   6   1
ATOM      1  C   UNL     1     -13.535  -1.072  28.719  0.00  0.00    -0.037 A 
ATOM      2  C   UNL     1     -12.501  -0.357  29.343  0.00  0.00    -0.002 A 
ATOM      3  C   UNL     1     -12.017   0.804  28.772  0.00  0.00    -0.005 A 
ATOM      4  C   UNL     1     -12.546   1.244  27.573  0.00  0.00    -0.007 A 
ATOM      5  C   UNL     1     -13.562   0.538  26.948  0.00  0.00    -0.005 A 
ATOM     23  C   UNL     1     -14.061  -0.626  27.507  0.00  0.00    -0.002 A 
ENDBRANCH   6   1
BRANCH  13  15
ATOM     15  C   UNL     1     -17.673  -6.778  28.788  0.00  0.00    +0.087 A 
ATOM     16  C   UNL     1     -18.282  -7.050  27.555  0.00  0.00    +0.053 A 
ATOM     17  C   UNL     1     -19.114  -8.149  27.432  0.00  0.00    +0.078 A 
ATOM     18  N   UNL     1     -19.343  -8.947  28.467  0.00  0.00    -0.314 NA
ATOM     19  C   UNL     1     -18.796  -8.727  29.648  0.00  0.00    +0.078 A 
ATOM     20  C   UNL     1     -17.961  -7.650  29.846  0.00  0.00    +0.053 A 
ENDBRANCH  13  15
TORSDOF 2
