REMARK  Name = 2B1P
REMARK  12 active torsions:
REMARK  status: ('A' for Active; 'I' for Inactive)
REMARK    1  A    between atoms: C_1  and  C_3
REMARK    2  A    between atoms: C_12  and  N_16
REMARK    3  A    between atoms: C_13  and  C_17
REMARK    4  A    between atoms: C_14  and  N_18
REMARK    5  A    between atoms: C_17  and  O_35
REMARK    6  A    between atoms: N_18  and  C_21
REMARK    7  A    between atoms: C_19  and  C_22
REMARK    8  A    between atoms: C_22  and  C_26
REMARK    9  A    between atoms: C_26  and  C_30
REMARK   10  A    between atoms: C_30  and  N_32
REMARK   11  A    between atoms: N_32  and  C_33
REMARK   12  A    between atoms: N_32  and  C_34
REMARK                            x       y       z     vdW  Elec       q    Type
REMARK                         _______ _______ _______ _____ _____    ______ ____
ROOT
ATOM     19  C   UNL     1      46.830   5.689  31.486  0.00  0.00    +0.005 A 
ATOM     20  C   UNL     1      47.721   6.226  30.569  0.00  0.00    +0.025 A 
ATOM     21  C   UNL     1      48.757   5.423  30.086  0.00  0.00    +0.061 A 
ATOM     26  C   UNL     1      48.874   4.093  30.523  0.00  0.00    +0.038 A 
ATOM     27  C   UNL     1      47.979   3.570  31.459  0.00  0.00    +0.035 A 
ATOM     38  C   UNL     1      46.966   4.385  31.929  0.00  0.00    +0.033 A 
ENDROOT
BRANCH  19   1
ATOM      1  C   UNL     1      45.722   6.484  32.066  0.00  0.00    +0.100 A 
ATOM      2  N   UNL     1      44.628   5.948  32.560  0.00  0.00    -0.173 NA
ATOM      3  N   UNL     1      43.789   6.933  33.053  0.00  0.00    -0.276 N 
ATOM      4  H   UNL     1      42.827   6.771  33.491  0.00  0.00    +0.189 HD
ATOM      5  C   UNL     1      44.393   8.145  32.887  0.00  0.00    +0.068 A 
ATOM      6  C   UNL     1      44.000   9.439  33.204  0.00  0.00    +0.051 A 
ATOM      7  C   UNL     1      44.799  10.527  32.930  0.00  0.00    +0.033 A 
ATOM     17  C   UNL     1      46.047  10.324  32.321  0.00  0.00    +0.024 A 
ATOM     18  C   UNL     1      46.462   9.051  31.989  0.00  0.00    +0.014 A 
ATOM     39  C   UNL     1      45.646   7.932  32.273  0.00  0.00    +0.028 A 
BRANCH   7   8
ATOM      8  N   UNL     1      44.398  11.810  33.299  0.00  0.00    -0.313 N 
ATOM      9  H   UNL     1      44.689  12.642  32.692  0.00  0.00    +0.152 HD
BRANCH   8  10
ATOM     10  C   UNL     1      43.626  12.037  34.441  0.00  0.00    +0.050 A 
ATOM     11  C   UNL     1      43.728  11.229  35.592  0.00  0.00    +0.025 A 
ATOM     12  C   UNL     1      42.907  11.494  36.673  0.00  0.00    +0.002 A 
ATOM     13  C   UNL     1      41.976  12.538  36.621  0.00  0.00    +0.002 A 
ATOM     14  C   UNL     1      41.894  13.342  35.487  0.00  0.00    +0.022 A 
ATOM     15  C   UNL     1      42.714  13.076  34.397  0.00  0.00    +0.062 A 
ATOM     16 CL   UNL     1      42.615  14.058  32.977  0.00  0.00    -0.082 Cl
ENDBRANCH   8  10
ENDBRANCH   7   8
ENDBRANCH  19   1
BRANCH  27  28
ATOM     28  N   UNL     1      47.996   2.247  31.970  0.00  0.00    -0.285 N 
ATOM     29  H   UNL     1      47.051   1.837  32.261  0.00  0.00    +0.155 HD
ATOM     30  C   UNL     1      49.082   1.440  32.131  0.00  0.00    +0.217 C 
ATOM     31  O   UNL     1      50.189   1.847  31.812  0.00  0.00    -0.276 OA
BRANCH  30  32
ATOM     32  C   UNL     1      48.888   0.044  32.707  0.00  0.00    +0.097 C 
BRANCH  32  33
ATOM     33  C   UNL     1      49.938  -0.974  32.221  0.00  0.00    +0.024 C 
BRANCH  33  34
ATOM     34  C   UNL     1      50.029  -2.198  33.169  0.00  0.00    +0.084 C 
BRANCH  34  35
ATOM     35  N   UNL     1      51.286  -2.983  33.008  0.00  0.00    -0.308 NA
ATOM     36  C   UNL     1      50.981  -4.209  32.237  0.00  0.00    +0.104 C 
ATOM     37  C   UNL     1      51.712  -3.441  34.345  0.00  0.00    +0.104 C 
ENDBRANCH  34  35
ENDBRANCH  33  34
ENDBRANCH  32  33
ENDBRANCH  30  32
ENDBRANCH  27  28
BRANCH  21  22
ATOM     22  C   UNL     1      49.697   6.020  29.112  0.00  0.00    +0.337 C 
ATOM     25  O   UNL     1      49.494   7.148  28.707  0.00  0.00    -0.245 OA
BRANCH  22  23
ATOM     23  O   UNL     1      50.779   5.330  28.663  0.00  0.00    -0.477 OA
ATOM     24  H   UNL     1      51.397   5.081  29.474  0.00  0.00    +0.295 HD
ENDBRANCH  22  23
ENDBRANCH  21  22
TORSDOF 10
