REMARK  Name = 6M9L
REMARK  4 active torsions:
REMARK  status: ('A' for Active; 'I' for Inactive)
REMARK    1  A    between atoms: C5_2  and  N6_24
REMARK    2  A    between atoms: C7_3  and  N6_24
REMARK    3  A    between atoms: C13_6  and  C12_10
REMARK    4  A    between atoms: C12_10  and  N11_22
REMARK                            x       y       z     vdW  Elec       q    Type
REMARK                         _______ _______ _______ _____ _____    ______ ____
ROOT
ATOM     10  C   UNL     1      21.386  -0.756 -21.786  0.00  0.00    +0.050 A 
ATOM     11  C   UNL     1      21.496  -1.130 -23.106  0.00  0.00    -0.130 A 
ATOM     12  C   UNL     1      20.716  -0.419 -23.981  0.00  0.00    +0.050 A 
ATOM     13  N   UNL     1      20.604  -0.555 -25.364  0.00  0.00    -0.350 NA
ATOM     14  C   UNL     1      19.692   0.387 -25.803  0.00  0.00    +0.650 A 
ATOM     15  O   UNL     1      19.329   0.574 -26.955  0.00  0.00    -0.550 OA
ATOM     16  N   UNL     1      19.275   1.072 -24.684  0.00  0.00    -0.200 N 
ATOM     24  C   UNL     1      19.901   0.580 -23.546  0.00  0.00    +0.400 A 
ATOM     25  N   UNL     1      19.759   0.978 -22.285  0.00  0.00    -0.730 NA
ATOM     26  C   UNL     1      20.529   0.272 -21.450  0.00  0.00    +0.250 A 
ENDROOT
BRANCH  10   9
ATOM      9  N   UNL     1      22.128  -1.399 -20.789  0.00  0.00    -0.350 NA
BRANCH   9   8
ATOM      1  C   UNL     1      21.977  -3.795 -20.605  0.00  0.00    -0.130 A 
ATOM      2  C   UNL     1      22.506  -5.047 -20.815  0.00  0.00    -0.130 A 
ATOM      3  C   UNL     1      23.730  -5.174 -21.427  0.00  0.00    +0.300 A 
ATOM      4  F   UNL     1      24.247  -6.396 -21.633  0.00  0.00    -0.300 F 
ATOM      5  C   UNL     1      24.430  -4.063 -21.830  0.00  0.00    -0.130 A 
ATOM      6  C   UNL     1      23.887  -2.820 -21.614  0.00  0.00    +0.300 A 
ATOM      7  F   UNL     1      24.563  -1.729 -22.005  0.00  0.00    -0.300 F 
ATOM      8  C   UNL     1      22.663  -2.673 -21.005  0.00  0.00    +0.050 A 
ENDBRANCH   9   8
ENDBRANCH  10   9
BRANCH  16  17
ATOM     17  C   UNL     1      18.316   2.143 -24.647  0.00  0.00    +0.000 C 
BRANCH  17  18
ATOM     18  C   UNL     1      18.924   3.466 -24.950  0.00  0.00    +0.000 A 
ATOM     19  C   UNL     1      18.319   4.610 -24.487  0.00  0.00    -0.130 A 
ATOM     20  C   UNL     1      18.865   5.842 -24.759  0.00  0.00    -0.130 A 
ATOM     21  C   UNL     1      20.020   5.930 -25.497  0.00  0.00    -0.130 A 
ATOM     22  C   UNL     1      20.627   4.787 -25.961  0.00  0.00    -0.130 A 
ATOM     23  C   UNL     1      20.080   3.556 -25.688  0.00  0.00    -0.130 A 
ENDBRANCH  17  18
ENDBRANCH  16  17
TORSDOF 4
