REMARK  Name = 3zim_ligand
REMARK  11 active torsions:
REMARK  status: ('A' for Active; 'I' for Inactive)
REMARK    1  A    between atoms: C1_1  and  C2_2
REMARK    2  A    between atoms: C2_2  and  C3_3
REMARK    3  A    between atoms: C2_2  and  C4_4
REMARK    4  A    between atoms: C4_4  and  C5_5
REMARK    5  A    between atoms: C5_5  and  C7_7
REMARK    6  A    between atoms: C7_7  and  C8_8
REMARK    7  A    between atoms: C8_8  and  C9_9
REMARK    8  A    between atoms: N14_14  and  C17_17
REMARK    9  A    between atoms: C17_17  and  C18_18
REMARK   10  A    between atoms: C22_22  and  C33_33
REMARK   11  A    between atoms: C24_24  and  N27_27
REMARK                            x       y       z     vdW  Elec       q    Type
REMARK                         _______ _______ _______ _____ _____    ______ ____
ROOT
ATOM     14  C   UNL     1     -20.481  10.492  29.985  0.00  0.00    +0.074 A 
ATOM     15  S   UNL     1     -19.258  11.648  30.231  0.00  0.00    -0.009 S 
ATOM     16  C   UNL     1     -18.124  10.830  29.157  0.00  0.00    +0.099 A 
ATOM     17  C   UNL     1     -16.787  11.086  28.710  0.00  0.00    +0.135 A 
ATOM     24  N   UNL     1     -16.260  10.211  27.829  0.00  0.00    -0.269 NA
ATOM     25  C   UNL     1     -16.865   9.107  27.378  0.00  0.00    +0.083 A 
ATOM     36  N   UNL     1     -18.123   8.840  27.816  0.00  0.00    -0.305 NA
ATOM     37  C   UNL     1     -18.780   9.694  28.679  0.00  0.00    +0.027 A 
ATOM     38  C   UNL     1     -20.066   9.545  29.166  0.00  0.00    -0.007 A 
ENDROOT
BRANCH  25  26
ATOM     26  C   UNL     1     -16.208   8.179  26.410  0.00  0.00    +0.007 A 
ATOM     27  C   UNL     1     -14.884   8.460  25.830  0.00  0.00    +0.021 A 
ATOM     28  C   UNL     1     -13.941   9.479  25.911  0.00  0.00    +0.095 A 
ATOM     29  N   UNL     1     -12.946   9.172  25.107  0.00  0.00    -0.204 NA
ATOM     30  N   UNL     1     -13.147   8.056  24.516  0.00  0.00    -0.212 N 
ATOM     31  H   UNL     1     -12.495   7.614  23.852  0.00  0.00    +0.246 HD
ATOM     32  C   UNL     1     -14.317   7.550  24.882  0.00  0.00    +0.091 A 
ATOM     33  C   UNL     1     -15.001   6.385  24.533  0.00  0.00    +0.028 A 
ATOM     34  C   UNL     1     -16.219   6.124  25.076  0.00  0.00    -0.006 A 
ATOM     35  C   UNL     1     -16.833   6.995  25.966  0.00  0.00    -0.000 A 
ENDBRANCH  25  26
BRANCH  17  18
ATOM     18  N   UNL     1     -16.024  12.175  29.165  0.00  0.00    -0.285 N 
ATOM     19  C   UNL     1     -14.544  12.100  29.157  0.00  0.00    +0.164 C 
ATOM     20  C   UNL     1     -13.968  13.473  28.805  0.00  0.00    +0.184 C 
ATOM     21  O   UNL     1     -14.376  14.348  29.852  0.00  0.00    -0.376 OA
ATOM     22  C   UNL     1     -15.755  14.663  29.802  0.00  0.00    +0.184 C 
ATOM     23  C   UNL     1     -16.620  13.389  29.794  0.00  0.00    +0.164 C 
ENDBRANCH  17  18
BRANCH  14  13
ATOM     13  C   UNL     1     -21.836  10.504  30.642  0.00  0.00    +0.234 C 
BRANCH  13  11
ATOM      7  C   UNL     1     -26.783  11.429  28.437  0.00  0.00    +0.181 C 
ATOM      8  N   UNL     1     -25.440  11.583  28.658  0.00  0.00    -0.263 N 
ATOM      9  C   UNL     1     -24.408  10.899  27.837  0.00  0.00    +0.189 C 
ATOM     10  C   UNL     1     -23.370  10.211  28.749  0.00  0.00    +0.158 C 
ATOM     11  N   UNL     1     -22.853  11.133  29.786  0.00  0.00    +0.255 N 
ATOM     12  H   UNL     1     -22.421  11.913  29.316  0.00  0.00    +0.206 HD
ATOM     39  C   UNL     1     -23.956  11.646  30.612  0.00  0.00    +0.158 C 
ATOM     40  C   UNL     1     -24.880  12.465  29.710  0.00  0.00    +0.189 C 
ATOM     41  O   UNL     1     -27.179  10.697  27.549  0.00  0.00    -0.397 OA
BRANCH   7   6
ATOM      6  C   UNL     1     -27.803  12.154  29.293  0.00  0.00    +0.159 C 
BRANCH   6   5
ATOM      5  C   UNL     1     -29.253  11.905  28.869  0.00  0.00    +0.142 C 
BRANCH   5   4
ATOM      4  C   UNL     1     -30.117  12.824  29.689  0.00  0.00    +0.107 C 
ATOM     42  O   UNL     1     -30.437  12.492  30.812  0.00  0.00    -0.391 OA
BRANCH   4   3
ATOM      3  C   UNL     1     -30.531  14.124  29.146  0.00  0.00    +0.123 C 
BRANCH   3   2
ATOM      1  C   UNL     1     -32.938  13.867  29.817  0.00  0.00    +0.010 C 
ATOM      2  C   UNL     1     -31.986  14.148  28.681  0.00  0.00    +0.001 C 
ATOM     43  C   UNL     1     -32.218  13.158  27.567  0.00  0.00    +0.010 C 
ENDBRANCH   3   2
ENDBRANCH   4   3
ENDBRANCH   5   4
ENDBRANCH   6   5
ENDBRANCH   7   6
ENDBRANCH  13  11
ENDBRANCH  14  13
TORSDOF 9
