REMARK  Name = 4gii_ligand
REMARK  5 active torsions:
REMARK  status: ('A' for Active; 'I' for Inactive)
REMARK    1  A    between atoms: C4_1  and  N20_20
REMARK    2  A    between atoms: C6_4  and  N7_13
REMARK    3  A    between atoms: C8_6  and  C10_7
REMARK    4  A    between atoms: C13_9  and  C17_17
REMARK    5  A    between atoms: C21_21  and  C23_23
REMARK                            x       y       z     vdW  Elec       q    Type
REMARK                         _______ _______ _______ _____ _____    ______ ____
ROOT
ATOM     13  N   UNL     1      -7.933  -7.812 -16.123  0.00  0.00    -0.227 N 
ATOM     14  H   UNL     1      -7.556  -7.593 -17.023  0.00  0.00    +0.230 HD
ATOM     15  C   UNL     1      -7.598  -6.954 -15.129  0.00  0.00    +0.242 C 
ATOM     16  O   UNL     1      -7.963  -7.085 -13.971  0.00  0.00    -0.368 OA
ENDROOT
BRANCH  15  17
ATOM     17  C   UNL     1      -6.750  -5.794 -15.484  0.00  0.00    +0.092 A 
ATOM     18  C   UNL     1      -5.398  -5.970 -15.837  0.00  0.00    +0.072 A 
ATOM     19 CL   UNL     1      -4.691  -7.550 -15.882  0.00  0.00    -0.063 Cl
ATOM     20  C   UNL     1      -4.616  -4.875 -16.164  0.00  0.00    +0.065 A 
ATOM     21  C   UNL     1      -5.177  -3.590 -16.152  0.00  0.00    +0.100 A 
ATOM     24  C   UNL     1      -6.525  -3.412 -15.814  0.00  0.00    +0.065 A 
ATOM     25  C   UNL     1      -7.310  -4.503 -15.489  0.00  0.00    +0.072 A 
ATOM     26 CL   UNL     1      -8.985  -4.269 -15.094  0.00  0.00    -0.063 Cl
BRANCH  21  22
ATOM     22  C   UNL     1      -4.367  -2.462 -16.488  0.00  0.00    +0.104 C 
ATOM     23  N   UNL     1      -3.716  -1.572 -16.752  0.00  0.00    -0.326 NA
ENDBRANCH  21  22
ENDBRANCH  15  17
BRANCH  13  12
ATOM      1  C   UNL     1      -9.639 -10.852 -17.286  0.00  0.00    +0.120 A 
ATOM      9  N   UNL     1     -10.328 -11.208 -16.199  0.00  0.00    -0.306 NA
ATOM     10  C   UNL     1     -10.274 -10.523 -15.060  0.00  0.00    +0.050 A 
ATOM     11  C   UNL     1      -9.487  -9.384 -14.955  0.00  0.00    +0.018 A 
ATOM     12  C   UNL     1      -8.734  -8.964 -16.070  0.00  0.00    +0.071 A 
ATOM     27  C   UNL     1      -8.846  -9.703 -17.250  0.00  0.00    +0.049 A 
BRANCH   1   2
ATOM      2  N   UNL     1      -9.753 -11.635 -18.447  0.00  0.00    -0.222 N 
ATOM      3  H   UNL     1     -10.639 -12.069 -18.612  0.00  0.00    +0.230 HD
ATOM      4  C   UNL     1      -8.777 -11.863 -19.371  0.00  0.00    +0.210 C 
ATOM      8  O   UNL     1      -7.665 -11.359 -19.285  0.00  0.00    -0.383 OA
BRANCH   4   5
ATOM      5  C   UNL     1      -9.123 -12.758 -20.543  0.00  0.00    +0.110 C 
ATOM      6  C   UNL     1      -8.081 -13.766 -21.031  0.00  0.00    +0.028 C 
ATOM      7  C   UNL     1      -8.429 -12.548 -21.892  0.00  0.00    +0.028 C 
ENDBRANCH   4   5
ENDBRANCH   1   2
ENDBRANCH  13  12
TORSDOF 5
