REMARK  Name = 3l8v_ligand
REMARK  6 active torsions:
REMARK  status: ('A' for Active; 'I' for Inactive)
REMARK    1  A    between atoms: C4_4  and  O5_5
REMARK    2  A    between atoms: O5_5  and  C6_6
REMARK    3  A    between atoms: C9_9  and  N13_13
REMARK    4  A    between atoms: N13_13  and  C14_14
REMARK    5  A    between atoms: C15_15  and  C20_20
REMARK    6  A    between atoms: N22_22  and  C23_23
REMARK                            x       y       z     vdW  Elec       q    Type
REMARK                         _______ _______ _______ _____ _____    ______ ____
ROOT
ATOM     11  N   UNL     1       1.230   6.530  53.984  0.00  0.00    -0.262 N 
ATOM     12  H   UNL     1       1.442   5.721  54.585  0.00  0.00    +0.212 HD
ENDROOT
BRANCH  11  10
ATOM      6  C   UNL     1       1.648  10.122  56.055  0.00  0.00    +0.141 A 
ATOM      7  C   UNL     1       1.261  10.118  54.706  0.00  0.00    +0.157 A 
ATOM      8  F   UNL     1       1.022  11.260  54.073  0.00  0.00    -0.192 F 
ATOM      9  C   UNL     1       1.113   8.941  53.978  0.00  0.00    +0.038 A 
ATOM     10  C   UNL     1       1.351   7.718  54.608  0.00  0.00    +0.052 A 
ATOM     31  C   UNL     1       1.739   7.671  55.957  0.00  0.00    -0.001 A 
ATOM     32  C   UNL     1       1.891   8.867  56.685  0.00  0.00    +0.014 A 
BRANCH   6   5
ATOM      5  O   UNL     1       1.784  11.341  56.735  0.00  0.00    -0.259 OA
BRANCH   5   4
ATOM      1  N   UNL     1      -1.080  12.667  59.405  0.00  0.00    -0.301 NA
ATOM      2  C   UNL     1      -1.447  11.716  58.519  0.00  0.00    +0.061 A 
ATOM      3  C   UNL     1      -0.554  11.218  57.593  0.00  0.00    +0.038 A 
ATOM      4  C   UNL     1       0.766  11.754  57.620  0.00  0.00    +0.121 A 
ATOM     33  C   UNL     1       1.145  12.751  58.553  0.00  0.00    +0.067 A 
ATOM     34  C   UNL     1       0.164  13.189  59.451  0.00  0.00    +0.097 A 
ATOM     35  N   UNL     1       0.399  14.141  60.399  0.00  0.00    -0.325 N 
ATOM     36  H   UNL     1      -0.356  14.430  61.037  0.00  0.00    +0.176 HD
ATOM     37  H   UNL     1       1.331  14.571  60.477  0.00  0.00    +0.176 HD
ENDBRANCH   5   4
ENDBRANCH   6   5
ENDBRANCH  11  10
BRANCH  11  13
ATOM     13  C   UNL     1       0.882   6.193  52.714  0.00  0.00    +0.151 A 
ATOM     14  N   UNL     1       0.926   7.101  51.700  0.00  0.00    -0.276 NA
ATOM     15  C   UNL     1       0.575   6.742  50.439  0.00  0.00    +0.083 A 
ATOM     16  C   UNL     1       0.157   5.447  50.117  0.00  0.00    +0.019 A 
ATOM     17  C   UNL     1       0.121   4.536  51.173  0.00  0.00    +0.042 A 
ATOM     18  C   UNL     1       0.476   4.870  52.494  0.00  0.00    +0.104 A 
BRANCH  18  19
ATOM     19  C   UNL     1       0.426   3.878  53.583  0.00  0.00    +0.231 C 
ATOM     20  N   UNL     1       0.068   2.632  53.207  0.00  0.00    -0.236 N 
ATOM     21  H   UNL     1      -0.139   2.449  52.246  0.00  0.00    +0.223 HD
ATOM     30  O   UNL     1       0.686   4.131  54.762  0.00  0.00    -0.378 OA
BRANCH  20  22
ATOM     22  C   UNL     1      -0.017   1.611  54.122  0.00  0.00    +0.096 A 
ATOM     23  C   UNL     1       0.943   0.562  54.072  0.00  0.00    +0.150 A 
ATOM     24  F   UNL     1       1.909   0.570  53.152  0.00  0.00    -0.195 F 
ATOM     25  C   UNL     1       0.943  -0.519  54.957  0.00  0.00    +0.047 A 
ATOM     26  C   UNL     1      -0.051  -0.553  55.924  0.00  0.00    +0.114 A 
ATOM     27  F   UNL     1       0.009  -1.610  56.730  0.00  0.00    -0.197 F 
ATOM     28  C   UNL     1      -1.053   0.456  56.048  0.00  0.00    +0.007 A 
ATOM     29  C   UNL     1      -1.035   1.551  55.134  0.00  0.00    +0.004 A 
ENDBRANCH  20  22
ENDBRANCH  18  19
ENDBRANCH  11  13
TORSDOF 6
