REMARK  Name = 5NKE
REMARK  7 active torsions:
REMARK  status: ('A' for Active; 'I' for Inactive)
REMARK    1  A    between atoms: C_6  and  N_7
REMARK    2  A    between atoms: C_8  and  O_9
REMARK    3  A    between atoms: C_8  and  C_10
REMARK    4  A    between atoms: C_16  and  N_17
REMARK    5  A    between atoms: C_22  and  C_23
REMARK    6  A    between atoms: N_25  and  C_26
REMARK    7  A    between atoms: C_32  and  C_33
REMARK                            x       y       z     vdW  Elec       q    Type
REMARK                         _______ _______ _______ _____ _____    ______ ____
ROOT
ATOM     10  N   UNL     1     124.014  15.026  45.089  0.00  0.00    -0.294 N 
ATOM     11  H   UNL     1     124.277  14.474  44.211  0.00  0.00    +0.154 HD
ATOM     12  C   UNL     1     125.015  15.541  45.799  0.00  0.00    +0.163 A 
ATOM     13  N   UNL     1     126.282  15.530  45.410  0.00  0.00    -0.232 NA
ATOM     14  C   UNL     1     127.147  16.055  46.271  0.00  0.00    +0.133 A 
ATOM     15  C   UNL     1     126.675  16.575  47.397  0.00  0.00    +0.095 A 
ATOM     28  S   UNL     1     124.986  16.350  47.346  0.00  0.00    -0.048 S 
ENDROOT
BRANCH  10   9
ATOM      5  C   UNL     1     120.489  15.082  44.570  0.00  0.00    +0.039 A 
ATOM      6  C   UNL     1     120.042  15.356  45.770  0.00  0.00    +0.028 A 
ATOM      7  C   UNL     1     120.856  15.487  46.800  0.00  0.00    +0.020 A 
ATOM      8  C   UNL     1     122.228  15.381  46.613  0.00  0.00    +0.038 A 
ATOM      9  C   UNL     1     122.725  15.132  45.367  0.00  0.00    +0.035 A 
ATOM     29 BR   UNL     1     119.938  15.932  48.267  0.00  0.00    -0.050 Br
ATOM     30  C   UNL     1     121.830  14.993  44.340  0.00  0.00    +0.036 A 
BRANCH   5   4
ATOM      3  N   UNL     1     119.154  13.798  43.261  0.00  0.00    -0.247 NA
ATOM      4  C   UNL     1     119.508  14.985  43.631  0.00  0.00    +0.216 C 
BRANCH   3   2
ATOM      1  C   UNL     1     116.933  14.001  42.265  0.00  0.00    +0.042 C 
ATOM      2  C   UNL     1     118.260  13.324  42.269  0.00  0.00    +0.111 C 
ATOM     33  C   UNL     1     118.235  11.939  42.688  0.00  0.00    +0.042 C 
ATOM     34  C   UNL     1     116.996  11.311  42.158  0.00  0.00    +0.083 C 
ATOM     35  N   UNL     1     115.858  11.891  42.838  0.00  0.00    -0.316 NA
ATOM     36  H   UNL     1     114.999  11.767  42.212  0.00  0.00    +0.122 HD
ATOM     37  C   UNL     1     115.983  13.306  43.156  0.00  0.00    +0.083 C 
ENDBRANCH   3   2
BRANCH   4  31
ATOM     31  O   UNL     1     118.966  15.969  43.373  0.00  0.00    -0.492 OA
ATOM     32  H   UNL     1     118.941  16.092  42.331  0.00  0.00    +0.294 HD
ENDBRANCH   4  31
ENDBRANCH   5   4
ENDBRANCH  10   9
BRANCH  15  16
ATOM     16  C   UNL     1     127.258  17.164  48.458  0.00  0.00    +0.257 C 
ATOM     17  N   UNL     1     128.521  17.520  48.463  0.00  0.00    -0.280 N 
ATOM     18  H   UNL     1     129.111  17.351  47.587  0.00  0.00    +0.155 HD
ATOM     27  O   UNL     1     126.559  17.301  49.413  0.00  0.00    -0.269 OA
BRANCH  17  19
ATOM     19  C   UNL     1     129.099  18.094  49.543  0.00  0.00    +0.055 A 
ATOM     20  C   UNL     1     129.344  19.458  49.559  0.00  0.00    -0.028 A 
ATOM     21  C   UNL     1     128.975  20.382  48.476  0.00  0.00    +0.045 C 
ATOM     22  C   UNL     1     129.941  19.963  50.678  0.00  0.00    +0.005 A 
ATOM     23  C   UNL     1     130.339  19.173  51.740  0.00  0.00    +0.002 A 
ATOM     24  C   UNL     1     130.085  17.826  51.696  0.00  0.00    +0.022 A 
ATOM     25  C   UNL     1     129.472  17.279  50.592  0.00  0.00    +0.062 A 
ATOM     26 CL   UNL     1     129.266  15.605  50.596  0.00  0.00    -0.082 Cl
ENDBRANCH  17  19
ENDBRANCH  15  16
TORSDOF 6
