REMARK  Name = TAE
REMARK  6 active torsions:
REMARK  status: ('A' for Active; 'I' for Inactive)
REMARK    1  A    between atoms: N1_1  and  C1'_11
REMARK    2  A    between atoms: PA_9  and  O3A_18
REMARK    3  A    between atoms: PA_9  and  C4'_20
REMARK    4  A    between atoms: PB_10  and  O3A_18
REMARK    5  A    between atoms: C1'_11  and  C2'_14
REMARK    6  A    between atoms: C3'_17  and  C4'_20
REMARK                            x       y       z     vdW  Elec       q    Type
REMARK                         _______ _______ _______ _____ _____    ______ ____
ROOT
ATOM     11  C   UNL     1     -26.610   7.485  17.444  0.00  0.00    -0.006 C 
ATOM     12  C   UNL     1     -26.408   6.707  16.308  0.00  0.00    -0.016 C 
ENDROOT
BRANCH  11  10
ATOM     10  C   UNL     1     -26.865   8.846  17.310  0.00  0.00    +0.137 C 
BRANCH  10   1
ATOM      1  N   UNL     1     -25.833   9.616  18.051  0.00  0.00    -0.275 N 
ATOM      2  C   UNL     1     -26.137  10.227  19.286  0.00  0.00    +0.353 C 
ATOM      3  N   UNL     1     -25.129  10.928  19.978  0.00  0.00    -0.153 NA
ATOM      4  C   UNL     1     -23.831  11.017  19.437  0.00  0.00    +0.280 C 
ATOM      5  O   UNL     1     -22.955  11.612  20.061  0.00  0.00    -0.265 OA
ATOM      6  C   UNL     1     -23.536  10.409  18.217  0.00  0.00    +0.053 C 
ATOM      7  C   UNL     1     -22.135  10.518  17.611  0.00  0.00    +0.038 C 
ATOM      8  O   UNL     1     -27.264  10.135  19.774  0.00  0.00    -0.244 OA
ATOM      9  C   UNL     1     -24.530   9.718  17.525  0.00  0.00    +0.081 C 
ENDBRANCH  10   1
ENDBRANCH  11  10
BRANCH  12  13
ATOM     13  C   UNL     1     -26.147   5.346  16.422  0.00  0.00    +0.144 C 
BRANCH  13  14
ATOM     14  P   UNL     1     -27.433   4.343  15.618  0.00  0.00    +0.382 P 
ATOM     15  O   UNL     1     -27.569   3.071  16.364  0.00  0.00    -0.139 OA
ATOM     16  O   UNL     1     -28.623   5.194  15.415  0.00  0.00    -0.255 OA
BRANCH  14  17
ATOM     17  O   UNL     1     -26.803   4.005  14.186  0.00  0.00    -0.203 OA
BRANCH  17  18
ATOM     18  P   UNL     1     -26.950   4.768  12.785  0.00  0.00    +0.539 P 
ATOM     19  O   UNL     1     -27.442   6.252  13.125  0.00  0.00    -0.114 OA
ATOM     20  O   UNL     1     -25.445   4.906  12.262  0.00  0.00    -0.114 OA
ATOM     21  O   UNL     1     -27.827   4.066  11.821  0.00  0.00    -0.222 OA
ENDBRANCH  17  18
ENDBRANCH  14  17
ENDBRANCH  13  14
ENDBRANCH  12  13
TORSDOF 6
