REMARK  Name = 2E9P
REMARK  10 active torsions:
REMARK  status: ('A' for Active; 'I' for Inactive)
REMARK    1  A    between atoms: N_1  and  C_2
REMARK    2  A    between atoms: C_7  and  O_8
REMARK    3  A    between atoms: O_8  and  C_9
REMARK    4  A    between atoms: C_16  and  O_20
REMARK    5  A    between atoms: O_20  and  C_21
REMARK    6  A    between atoms: C_21  and  C_22
REMARK    7  A    between atoms: C_21  and  C_25
REMARK    8  A    between atoms: C_22  and  N_23
REMARK    9  A    between atoms: N_23  and  C_24
REMARK   10  A    between atoms: N_23  and  C_26
REMARK                            x       y       z     vdW  Elec       q    Type
REMARK                         _______ _______ _______ _____ _____    ______ ____
ROOT
ATOM      1  N   UNL     1      -3.300   9.756 -19.371  0.00  0.00    -0.266 N 
ATOM      2  H   UNL     1      -3.796   9.237 -18.577  0.00  0.00    +0.157 HD
ATOM      3  C   UNL     1      -4.161  10.684 -20.009  0.00  0.00    +0.309 C 
ATOM      4  N   UNL     1      -5.460  10.818 -19.575  0.00  0.00    -0.253 N 
ATOM      5  H   UNL     1      -6.023  11.547 -20.121  0.00  0.00    +0.158 HD
ATOM      6  C   UNL     1      -6.187  10.191 -18.564  0.00  0.00    +0.148 A 
ATOM      7  C   UNL     1      -7.247  10.880 -17.848  0.00  0.00    +0.154 A 
ATOM      8  N   UNL     1      -7.965  10.218 -16.835  0.00  0.00    -0.255 NA
ATOM      9  C   UNL     1      -7.663   8.883 -16.511  0.00  0.00    +0.178 A 
ATOM     10  C   UNL     1      -6.599   8.163 -17.218  0.00  0.00    +0.235 A 
ATOM     18  N   UNL     1      -5.876   8.840 -18.240  0.00  0.00    -0.195 NA
ATOM     19  O   UNL     1      -3.782  11.384 -20.952  0.00  0.00    -0.252 OA
ENDROOT
BRANCH   1  20
ATOM     20  C   UNL     1      -1.986   9.347 -19.508  0.00  0.00    +0.078 A 
ATOM     21  C   UNL     1      -1.607   8.082 -18.922  0.00  0.00    +0.141 A 
ATOM     24  C   UNL     1      -0.217   7.631 -19.058  0.00  0.00    +0.049 A 
ATOM     25  C   UNL     1       0.750   8.427 -19.760  0.00  0.00    +0.023 A 
ATOM     26  C   UNL     1       0.339   9.677 -20.327  0.00  0.00    +0.043 A 
ATOM     27 CL   UNL     1       1.480  10.660 -21.181  0.00  0.00    -0.084 Cl
ATOM     28  C   UNL     1      -1.007  10.147 -20.214  0.00  0.00    +0.047 A 
BRANCH  21  22
ATOM     22  O   UNL     1      -2.653   7.392 -18.252  0.00  0.00    -0.493 OA
ATOM     23  C   UNL     1      -2.804   5.986 -18.453  0.00  0.00    +0.277 C 
ENDBRANCH  21  22
ENDBRANCH   1  20
BRANCH  10  11
ATOM     11  O   UNL     1      -6.288   6.813 -16.913  0.00  0.00    -0.471 OA
BRANCH  11  12
ATOM     12  C   UNL     1      -6.383   6.306 -15.582  0.00  0.00    +0.186 C 
ATOM     13  C   UNL     1      -7.530   5.282 -15.524  0.00  0.00    +0.053 C 
BRANCH  12  14
ATOM     14  C   UNL     1      -5.012   5.646 -15.272  0.00  0.00    +0.128 C 
BRANCH  14  15
ATOM     15  N   UNL     1      -4.226   6.163 -14.119  0.00  0.00    -0.305 NA
ATOM     16  C   UNL     1      -4.208   7.638 -14.042  0.00  0.00    +0.104 C 
ATOM     17  C   UNL     1      -4.705   5.613 -12.847  0.00  0.00    +0.104 C 
ENDBRANCH  14  15
ENDBRANCH  12  14
ENDBRANCH  11  12
ENDBRANCH  10  11
TORSDOF 6
