REMARK  Name = 5AJQ
REMARK  13 active torsions:
REMARK  status: ('A' for Active; 'I' for Inactive)
REMARK    1  A    between atoms: C_1  and  O_22
REMARK    2  A    between atoms: O_2  and  C_24
REMARK    3  A    between atoms: O_2  and  C_36
REMARK    4  A    between atoms: C_3  and  C_13
REMARK    5  A    between atoms: C_3  and  N_34
REMARK    6  A    between atoms: C_7  and  C_27
REMARK    7  A    between atoms: C_13  and  C_14
REMARK    8  A    between atoms: C_14  and  O_23
REMARK    9  A    between atoms: C_15  and  N_35
REMARK   10  A    between atoms: N_21  and  C_28
REMARK   11  A    between atoms: N_21  and  C_31
REMARK   12  A    between atoms: O_22  and  C_29
REMARK   13  A    between atoms: O_23  and  C_30
REMARK                            x       y       z     vdW  Elec       q    Type
REMARK                         _______ _______ _______ _____ _____    ______ ____
ROOT
ATOM      3  C   UNL     1      15.395   4.477  35.183  0.00  0.00    +0.162 A 
ATOM      4  C   UNL     1      15.463   3.655  34.039  0.00  0.00    +0.164 A 
ATOM     16  C   UNL     1      14.400   2.867  33.692  0.00  0.00    +0.077 A 
ATOM     17  C   UNL     1      13.209   2.901  34.439  0.00  0.00    +0.076 A 
ATOM     18  C   UNL     1      13.131   3.732  35.585  0.00  0.00    +0.026 A 
ATOM     19  C   UNL     1      11.936   3.735  36.292  0.00  0.00    +0.060 A 
ATOM     20  C   UNL     1      10.868   2.932  35.823  0.00  0.00    +0.091 A 
ATOM     21  C   UNL     1      11.040   2.133  34.672  0.00  0.00    +0.132 A 
ATOM     36  N   UNL     1      12.170   2.106  34.000  0.00  0.00    -0.254 NA
ATOM     37  C   UNL     1      14.248   4.500  35.946  0.00  0.00    +0.061 A 
ENDROOT
BRANCH   3   2
ATOM      1  C   UNL     1      16.543   6.047  36.608  0.00  0.00    +0.277 C 
ATOM      2  O   UNL     1      16.531   5.194  35.441  0.00  0.00    -0.491 OA
ENDBRANCH   3   2
BRANCH  20  22
ATOM     22  C   UNL     1       9.570   2.937  36.438  0.00  0.00    +0.103 C 
ATOM     23  N   UNL     1       8.511   2.972  36.880  0.00  0.00    -0.191 NA
ENDBRANCH  20  22
BRANCH  19  24
ATOM     24  N   UNL     1      11.722   4.583  37.409  0.00  0.00    -0.312 N 
ATOM     25  H   UNL     1      12.362   5.440  37.448  0.00  0.00    +0.152 HD
BRANCH  24  26
ATOM     26  C   UNL     1      10.809   4.484  38.472  0.00  0.00    +0.053 A 
ATOM     27  C   UNL     1      10.068   5.585  38.901  0.00  0.00    +0.064 A 
ATOM     28  C   UNL     1       9.160   5.483  39.928  0.00  0.00    +0.045 A 
ATOM     29  C   UNL     1       9.003   4.259  40.545  0.00  0.00    +0.084 A 
ATOM     30  C   UNL     1       9.736   3.144  40.143  0.00  0.00    +0.140 A 
ATOM     33 CL   UNL     1       7.865   4.098  41.839  0.00  0.00    -0.080 Cl
ATOM     34 CL   UNL     1      10.239   7.107  38.090  0.00  0.00    -0.082 Cl
ATOM     35  C   UNL     1      10.652   3.274  39.111  0.00  0.00    +0.072 A 
BRANCH  30  31
ATOM     31  O   UNL     1       9.487   1.975  40.790  0.00  0.00    -0.494 OA
ATOM     32  C   UNL     1      10.049   0.772  40.232  0.00  0.00    +0.277 C 
ENDBRANCH  30  31
ENDBRANCH  24  26
ENDBRANCH  19  24
BRANCH   4   5
ATOM      5  O   UNL     1      16.647   3.742  33.351  0.00  0.00    -0.488 OA
BRANCH   5   6
ATOM      6  C   UNL     1      17.045   2.716  32.417  0.00  0.00    +0.230 C 
BRANCH   6   7
ATOM      7  C   UNL     1      17.904   3.372  31.366  0.00  0.00    +0.056 C 
BRANCH   7   8
ATOM      8  C   UNL     1      19.204   3.895  31.888  0.00  0.00    +0.088 C 
BRANCH   8   9
ATOM      9  N   UNL     1      19.964   4.815  31.020  0.00  0.00    -0.300 NA
ATOM     10  C   UNL     1      19.813   4.485  29.595  0.00  0.00    +0.100 C 
ATOM     11  C   UNL     1      20.641   5.417  28.731  0.00  0.00    +0.099 C 
ATOM     12  N   UNL     1      22.054   5.356  29.103  0.00  0.00    -0.303 NA
ATOM     13  C   UNL     1      22.190   5.703  30.514  0.00  0.00    +0.099 C 
ATOM     14  C   UNL     1      22.862   6.244  28.261  0.00  0.00    +0.105 C 
ATOM     15  C   UNL     1      21.387   4.765  31.376  0.00  0.00    +0.100 C 
ENDBRANCH   8   9
ENDBRANCH   7   8
ENDBRANCH   6   7
ENDBRANCH   5   6
ENDBRANCH   4   5
TORSDOF 10
