REMARK  Name = 4HJO
REMARK  13 active torsions:
REMARK  status: ('A' for Active; 'I' for Inactive)
REMARK    1  A    between atoms: C_2  and  C_3
REMARK    2  A    between atoms: C_5  and  N_6
REMARK    3  A    between atoms: N_6  and  C_7
REMARK    4  A    between atoms: C_10  and  O_11
REMARK    5  A    between atoms: O_11  and  C_12
REMARK    6  A    between atoms: C_12  and  C_13
REMARK    7  A    between atoms: C_13  and  O_14
REMARK    8  A    between atoms: O_14  and  C_15
REMARK    9  A    between atoms: C_16  and  O_17
REMARK   10  A    between atoms: O_17  and  C_18
REMARK   11  A    between atoms: C_18  and  C_19
REMARK   12  A    between atoms: C_19  and  O_20
REMARK   13  A    between atoms: O_20  and  C_21
REMARK                            x       y       z     vdW  Elec       q    Type
REMARK                         _______ _______ _______ _____ _____    ______ ____
ROOT
ATOM     10  C   UNL     1      25.967  10.424  -0.284  0.00  0.00    +0.134 A 
ATOM     11  N   UNL     1      27.338  10.510  -0.440  0.00  0.00    -0.220 NA
ATOM     12  C   UNL     1      28.136   9.461  -0.290  0.00  0.00    +0.224 A 
ATOM     13  N   UNL     1      27.664   8.247   0.012  0.00  0.00    -0.235 NA
ATOM     14  C   UNL     1      26.314   8.035   0.196  0.00  0.00    +0.080 A 
ATOM     15  C   UNL     1      25.825   6.767   0.515  0.00  0.00    +0.077 A 
ATOM     16  C   UNL     1      24.438   6.592   0.687  0.00  0.00    +0.164 A 
ATOM     22  C   UNL     1      23.564   7.659   0.552  0.00  0.00    +0.163 A 
ATOM     28  C   UNL     1      24.033   8.934   0.232  0.00  0.00    +0.063 A 
ATOM     29  C   UNL     1      25.404   9.137   0.050  0.00  0.00    +0.044 A 
ENDROOT
BRANCH  10   8
ATOM      8  N   UNL     1      25.105  11.629  -0.449  0.00  0.00    -0.299 N 
ATOM      9  H   UNL     1      24.294  11.336  -1.083  0.00  0.00    +0.154 HD
BRANCH   8   7
ATOM      3  C   UNL     1      27.044  14.033  -2.619  0.00  0.00    +0.026 A 
ATOM      4  C   UNL     1      26.632  15.287  -2.080  0.00  0.00    +0.017 A 
ATOM      5  C   UNL     1      25.732  15.314  -1.018  0.00  0.00    +0.003 A 
ATOM      6  C   UNL     1      25.232  14.145  -0.483  0.00  0.00    +0.023 A 
ATOM      7  C   UNL     1      25.643  12.898  -1.014  0.00  0.00    +0.034 A 
ATOM     30  C   UNL     1      26.549  12.865  -2.088  0.00  0.00    +0.040 A 
BRANCH   3   2
ATOM      1  C   UNL     1      28.817  13.925  -4.697  0.00  0.00    +0.009 C 
ATOM      2  C   UNL     1      28.030  13.958  -3.776  0.00  0.00    -0.070 C 
ENDBRANCH   3   2
ENDBRANCH   8   7
ENDBRANCH  10   8
BRANCH  16  17
ATOM     17  O   UNL     1      23.900   5.328   1.021  0.00  0.00    -0.486 OA
BRANCH  17  18
ATOM     18  C   UNL     1      24.516   4.122   0.731  0.00  0.00    +0.257 C 
BRANCH  18  19
ATOM     19  C   UNL     1      23.602   2.988   1.208  0.00  0.00    +0.200 C 
BRANCH  19  20
ATOM     20  O   UNL     1      23.232   3.205   2.541  0.00  0.00    -0.380 OA
ATOM     21  C   UNL     1      21.862   3.277   2.890  0.00  0.00    +0.194 C 
ENDBRANCH  19  20
ENDBRANCH  18  19
ENDBRANCH  17  18
ENDBRANCH  16  17
BRANCH  22  23
ATOM     23  O   UNL     1      22.216   7.435   0.736  0.00  0.00    -0.486 OA
BRANCH  23  24
ATOM     24  C   UNL     1      21.271   8.435   0.576  0.00  0.00    +0.257 C 
BRANCH  24  25
ATOM     25  C   UNL     1      20.229   8.360   1.696  0.00  0.00    +0.200 C 
BRANCH  25  26
ATOM     26  O   UNL     1      19.997   7.009   2.075  0.00  0.00    -0.380 OA
ATOM     27  C   UNL     1      20.045   6.645   3.424  0.00  0.00    +0.194 C 
ENDBRANCH  25  26
ENDBRANCH  24  25
ENDBRANCH  23  24
ENDBRANCH  22  23
TORSDOF 11
