REMARK  Name = 93T
REMARK  4 active torsions:
REMARK  status: ('A' for Active; 'I' for Inactive)
REMARK    1  A    between atoms: CAS_7  and  CAT_8
REMARK    2  A    between atoms: CAU_18  and  CAL_19
REMARK    3  A    between atoms: CAL_19  and  CAK_20
REMARK    4  A    between atoms: CAK_20  and  CAO_21
REMARK                            x       y       z     vdW  Elec       q    Type
REMARK                         _______ _______ _______ _____ _____    ______ ____
ROOT
ATOM      8  C   UNL     1       4.640   5.278  28.561  0.00  0.00    +0.104 A 
ATOM      9  N   UNL     1       4.837   4.819  29.831  0.00  0.00    -0.164 NA
ATOM     10  N   UNL     1       5.067   3.592  29.874  0.00  0.00    -0.217 N 
ATOM     11  C   UNL     1       5.331   2.685  30.961  0.00  0.00    +0.060 A 
ATOM     12  C   UNL     1       5.341   3.195  32.424  0.00  0.00    +0.052 C 
ATOM     13  C   UNL     1       5.580   1.334  30.685  0.00  0.00    +0.006 A 
ATOM     19  C   UNL     1       5.531   0.944  29.331  0.00  0.00    +0.058 A 
ATOM     20  C   UNL     1       5.769  -0.552  29.045  0.00  0.00    +0.052 C 
ATOM     21  N   UNL     1       5.293   1.815  28.298  0.00  0.00    -0.231 NA
ATOM     22  C   UNL     1       5.059   3.131  28.509  0.00  0.00    +0.165 A 
ATOM     23  C   UNL     1       4.804   4.216  27.723  0.00  0.00    +0.060 A 
ENDROOT
BRANCH   8   7
ATOM      1  C   UNL     1       4.267   7.536  29.344  0.00  0.00    +0.002 A 
ATOM      2  C   UNL     1       4.032   8.891  29.141  0.00  0.00    +0.007 A 
ATOM      3  C   UNL     1       3.805   9.363  27.890  0.00  0.00    +0.035 A 
ATOM      4 BR   UNL     1       3.469  11.230  27.611  0.00  0.00    -0.049 Br
ATOM      5  C   UNL     1       3.879   8.449  26.799  0.00  0.00    +0.007 A 
ATOM      6  C   UNL     1       4.174   7.119  26.989  0.00  0.00    +0.002 A 
ATOM      7  C   UNL     1       4.359   6.641  28.281  0.00  0.00    +0.020 A 
ENDBRANCH   8   7
BRANCH  13  14
ATOM     14  C   UNL     1       5.846   0.251  31.778  0.00  0.00    +0.041 C 
BRANCH  14  15
ATOM     15  C   UNL     1       7.118   0.378  32.671  0.00  0.00    +0.119 C 
BRANCH  15  16
ATOM     16  C   UNL     1       8.432   0.777  31.949  0.00  0.00    +0.365 C 
ATOM     17  O   UNL     1       9.088   1.736  32.449  0.00  0.00    -0.246 OA
ATOM     18  O   UNL     1       8.762   0.109  30.938  0.00  0.00    -0.246 OA
ENDBRANCH  15  16
ENDBRANCH  14  15
ENDBRANCH  13  14
TORSDOF 4
