REMARK  Name = 4AS0
REMARK  1 active torsions:
REMARK  status: ('A' for Active; 'I' for Inactive)
REMARK    1  A    between atoms: RU_18  and  C_27
REMARK                            x       y       z     vdW  Elec       q    Type
REMARK                         _______ _______ _______ _____ _____    ______ ____
ROOT
ATOM      1  O   UNL     1     -23.165 -35.571   2.309  0.00  0.00    +0.000 OA
ATOM      2  C   UNL     1     -23.150 -36.255   1.213  0.00  0.00    +0.000 C 
ATOM      3  N   UNL     1     -23.374 -37.581   1.194  0.00  0.00    +0.000 N 
ATOM      4  H   UNL     1     -23.582 -38.234   2.016  0.00  0.00    +0.000 HD
ATOM      5  C   UNL     1     -23.272 -37.887  -0.124  0.00  0.00    +0.000 C 
ATOM      6  C   UNL     1     -22.979 -36.718  -1.018  0.00  0.00    +0.000 A 
ATOM      7  C   UNL     1     -22.807 -36.563  -2.392  0.00  0.00    +0.000 A 
ATOM      8  C   UNL     1     -22.449 -35.290  -2.840  0.00  0.00    +0.000 A 
ATOM      9 RU   UNL     1     -22.300 -34.702  -4.678  0.00  0.00    +0.000 Ru
ATOM     12  S   UNL     1     -22.210 -34.060  -6.683  0.00  0.00    +0.000 S 
ATOM     13  C   UNL     1     -23.583 -33.128  -6.975  0.00  0.00    +0.000 C 
ATOM     14  C   UNL     1     -24.857 -33.618  -6.233  0.00  0.00    +0.000 C 
ATOM     15  C   UNL     1     -22.493 -35.373  -7.666  0.00  0.00    +0.000 C 
ATOM     16  C   UNL     1     -22.150 -36.665  -6.950  0.00  0.00    +0.000 C 
ATOM     17  S   UNL     1     -22.595 -36.601  -5.335  0.00  0.00    +0.000 S 
ATOM     18  C   UNL     1     -24.241 -36.960  -5.330  0.00  0.00    +0.000 C 
ATOM     19  C   UNL     1     -25.161 -35.888  -4.693  0.00  0.00    +0.000 C 
ATOM     20  S   UNL     1     -24.558 -34.354  -4.769  0.00  0.00    +0.000 S 
ATOM     21  N   UNL     1     -22.049 -33.048  -4.061  0.00  0.00    +0.000 N 
ATOM     22  C   UNL     1     -21.806 -31.946  -4.760  0.00  0.00    +0.000 C 
ATOM     23  C   UNL     1     -21.701 -30.725  -4.076  0.00  0.00    +0.000 C 
ATOM     24  C   UNL     1     -21.822 -30.624  -2.694  0.00  0.00    +0.000 C 
ATOM     25  C   UNL     1     -22.074 -31.785  -1.980  0.00  0.00    +0.000 C 
ATOM     26  C   UNL     1     -22.188 -32.968  -2.698  0.00  0.00    +0.000 C 
ATOM     27  C   UNL     1     -22.456 -34.216  -1.977  0.00  0.00    +0.000 A 
ATOM     28  C   UNL     1     -22.628 -34.357  -0.599  0.00  0.00    +0.000 A 
ATOM     29  O   UNL     1     -23.417 -39.095  -0.573  0.00  0.00    +0.000 OA
ATOM     30  C   UNL     1     -22.897 -35.643  -0.141  0.00  0.00    +0.000 A 
ENDROOT
BRANCH   9  10
ATOM     10  C   UNL     1     -20.554 -34.959  -4.630  0.00  0.00    +0.000 C 
ATOM     11  O   UNL     1     -19.430 -35.091  -4.661  0.00  0.00    +0.000 OA
ENDBRANCH   9  10
TORSDOF 1
