REMARK  Name = 4GH2
REMARK  8 active torsions:
REMARK  status: ('A' for Active; 'I' for Inactive)
REMARK    1  A    between atoms: C_6  and  C_7
REMARK    2  A    between atoms: C_10  and  N_11
REMARK    3  A    between atoms: C_14  and  O_15
REMARK    4  A    between atoms: O_15  and  C_16
REMARK    5  A    between atoms: C_27  and  O_28
REMARK    6  A    between atoms: O_28  and  C_29
REMARK    7  A    between atoms: C_29  and  C_30
REMARK    8  A    between atoms: C_30  and  N_31
REMARK                            x       y       z     vdW  Elec       q    Type
REMARK                         _______ _______ _______ _____ _____    ______ ____
ROOT
ATOM      1  O   UNL     1      16.507  -1.725   8.858  0.00  0.00    -0.267 OA
ATOM      2  C   UNL     1      17.213  -2.677   9.182  0.00  0.00    +0.258 A 
ATOM      3  N   UNL     1      18.555  -2.586   9.107  0.00  0.00    -0.320 N 
ATOM      4  H   UNL     1      18.906  -1.714   9.489  0.00  0.00    +0.169 HD
ATOM      5  C   UNL     1      19.575  -3.558   9.046  0.00  0.00    +0.069 A 
ATOM      6  C   UNL     1      20.619  -3.364   8.135  0.00  0.00    +0.028 A 
ATOM      7  C   UNL     1      21.690  -4.245   8.080  0.00  0.00    +0.006 A 
ATOM      8  C   UNL     1      21.754  -5.343   8.922  0.00  0.00    +0.048 A 
ATOM      9  C   UNL     1      20.737  -5.561   9.844  0.00  0.00    +0.146 A 
ATOM     19  C   UNL     1      19.650  -4.670   9.893  0.00  0.00    +0.106 A 
ATOM     20  N   UNL     1      18.596  -4.941  10.813  0.00  0.00    -0.350 N 
ATOM     21  H   UNL     1      18.876  -5.269  11.731  0.00  0.00    +0.166 HD
ATOM     22  C   UNL     1      17.201  -4.823  10.621  0.00  0.00    +0.053 A 
ATOM     23  C   UNL     1      16.414  -5.730  11.328  0.00  0.00    +0.035 A 
ATOM     24  C   UNL     1      15.020  -5.745  11.220  0.00  0.00    -0.016 A 
ATOM     36  C   UNL     1      14.436  -4.876  10.305  0.00  0.00    +0.009 A 
ATOM     37  C   UNL     1      15.195  -3.982   9.581  0.00  0.00    +0.016 A 
ATOM     38  C   UNL     1      16.573  -3.898   9.760  0.00  0.00    +0.063 A 
ENDROOT
BRANCH  24  25
ATOM     25  C   UNL     1      14.194  -6.738  11.955  0.00  0.00    -0.014 A 
ATOM     26  C   UNL     1      12.904  -6.390  12.363  0.00  0.00    +0.061 A 
ATOM     27  C   UNL     1      12.131  -7.228  13.143  0.00  0.00    +0.202 A 
ATOM     30  C   UNL     1      12.686  -8.459  13.530  0.00  0.00    +0.363 A 
ATOM     34  C   UNL     1      13.976  -8.828  13.162  0.00  0.00    +0.093 A 
ATOM     35  C   UNL     1      14.718  -7.957  12.386  0.00  0.00    +0.015 A 
BRANCH  30  31
ATOM     31  N   UNL     1      11.959  -9.381  14.313  0.00  0.00    +0.317 N 
ATOM     32  O   UNL     1      12.584 -10.141  15.196  0.00  0.00    +0.087 OA
ATOM     33  O   UNL     1      10.831  -9.604  14.252  0.00  0.00    +0.087 OA
ENDBRANCH  30  31
BRANCH  27  28
ATOM     28  O   UNL     1      10.863  -6.937  13.578  0.00  0.00    -0.489 OA
ATOM     29  C   UNL     1      10.254  -5.726  13.136  0.00  0.00    +0.277 C 
ENDBRANCH  27  28
ENDBRANCH  24  25
BRANCH   9  10
ATOM     10  O   UNL     1      20.635  -6.645  10.687  0.00  0.00    -0.489 OA
BRANCH  10  11
ATOM     11  C   UNL     1      21.819  -7.235  11.255  0.00  0.00    +0.244 C 
BRANCH  11  12
ATOM     12  C   UNL     1      21.708  -8.741  11.114  0.00  0.00    +0.125 C 
BRANCH  12  13
ATOM     13  N   UNL     1      21.704  -9.472  12.396  0.00  0.00    -0.295 NA
ATOM     14  C   UNL     1      23.028  -9.531  13.045  0.00  0.00    +0.112 C 
ATOM     15  C   UNL     1      23.938 -10.502  12.325  0.00  0.00    +0.175 C 
ATOM     16  O   UNL     1      23.363 -11.804  12.237  0.00  0.00    -0.377 OA
ATOM     17  C   UNL     1      22.117 -11.733  11.554  0.00  0.00    +0.175 C 
ATOM     18  C   UNL     1      21.147 -10.829  12.271  0.00  0.00    +0.112 C 
ENDBRANCH  12  13
ENDBRANCH  11  12
ENDBRANCH  10  11
ENDBRANCH   9  10
TORSDOF 7
