REMARK  Name = 6SL
REMARK  1 active torsions:
REMARK  status: ('A' for Active; 'I' for Inactive)
REMARK    1  A    between atoms: C7_4  and  C8_5
REMARK                            x       y       z     vdW  Elec       q    Type
REMARK                         _______ _______ _______ _____ _____    ______ ____
ROOT
ATOM      1  C   UNL     1      25.368  46.365  -0.219  0.00  0.00    +0.002 A 
ATOM      2  C   UNL     1      25.257  46.677   1.142  0.00  0.00    +0.002 A 
ATOM      3  C   UNL     1      25.583  47.947   1.615  0.00  0.00    +0.021 A 
ATOM      4  C   UNL     1      26.014  48.903   0.697  0.00  0.00    +0.101 A 
ATOM      5  N   UNL     1      26.344  50.245   0.885  0.00  0.00    -0.225 NA
ATOM      6  C   UNL     1      26.649  50.693  -0.325  0.00  0.00    +0.164 A 
ATOM     13  N   UNL     1      26.536  49.732  -1.285  0.00  0.00    -0.225 NA
ATOM     14  C   UNL     1      26.132  48.572  -0.653  0.00  0.00    +0.101 A 
ATOM     15  C   UNL     1      25.817  47.310  -1.134  0.00  0.00    +0.021 A 
ENDROOT
BRANCH   6   7
ATOM      7  C   UNL     1      27.052  52.072  -0.619  0.00  0.00    +0.055 A 
ATOM      8  C   UNL     1      27.448  52.938   0.389  0.00  0.00    +0.102 A 
ATOM      9  N   UNL     1      27.766  54.220   0.182  0.00  0.00    -0.242 NA
ATOM     10  C   UNL     1      27.697  54.674  -1.074  0.00  0.00    +0.099 A 
ATOM     11  C   UNL     1      27.308  53.897  -2.146  0.00  0.00    +0.021 A 
ATOM     12  C   UNL     1      26.988  52.576  -1.911  0.00  0.00    +0.006 A 
ENDBRANCH   6   7
TORSDOF 1
