REMARK  Name = 64R
REMARK  0 active torsions:
REMARK  status: ('A' for Active; 'I' for Inactive)
REMARK                            x       y       z     vdW  Elec       q    Type
REMARK                         _______ _______ _______ _____ _____    ______ ____
ROOT
ATOM      1  C   UNL     1      -9.175  -8.385   1.342  0.00  0.00    +0.015 A 
ATOM      2  C   UNL     1      -7.870  -8.901   1.490  0.00  0.00    -0.020 A 
ATOM      3  C   UNL     1      -7.621 -10.136   2.325  0.00  0.00    +0.031 C 
ATOM      4  C   UNL     1      -6.765  -8.252   0.863  0.00  0.00    -0.001 A 
ATOM      5  C   UNL     1      -6.979  -7.100   0.075  0.00  0.00    +0.038 A 
ATOM      6  C   UNL     1      -8.279  -6.579  -0.077  0.00  0.00    +0.154 A 
ATOM      7  O   UNL     1      -8.535  -5.332  -0.910  0.00  0.00    -0.469 OA
ATOM      8  C   UNL     1      -9.829  -5.347  -1.533  0.00  0.00    +0.243 C 
ATOM      9  C   UNL     1     -10.925  -5.735  -0.599  0.00  0.00    +0.286 C 
ATOM     10  N   UNL     1     -10.705  -6.626   0.362  0.00  0.00    -0.173 NA
ATOM     11  O   UNL     1     -12.018  -5.220  -0.751  0.00  0.00    -0.269 OA
ATOM     12  C   UNL     1     -10.012  -4.063  -2.306  0.00  0.00    +0.058 C 
ATOM     13  C   UNL     1      -9.385  -7.225   0.558  0.00  0.00    +0.107 A 
ENDROOT
TORSDOF 0
