REMARK  Name = 2g01_ligand
REMARK  3 active torsions:
REMARK  status: ('A' for Active; 'I' for Inactive)
REMARK    1  A    between atoms: C1_1  and  C2_2
REMARK    2  A    between atoms: N2_4  and  C3_5
REMARK    3  A    between atoms: N3_7  and  O1_8
REMARK                            x       y       z     vdW  Elec       q    Type
REMARK                         _______ _______ _______ _____ _____    ______ ____
ROOT
ATOM      1  C   UNL     1      25.751  96.738  26.143  0.00  0.00    +0.085 C 
ATOM      2  C   UNL     1      25.543  95.270  26.387  0.00  0.00    +0.007 A 
ATOM      3  C   UNL     1      25.189  94.686  27.583  0.00  0.00    +0.071 A 
ATOM      4  C   UNL     1      24.921  95.133  28.868  0.00  0.00    +0.112 A 
ATOM      5  O   UNL     1      24.995  96.380  29.124  0.00  0.00    -0.417 OA
ATOM      6  C   UNL     1      24.555  94.197  29.916  0.00  0.00    +0.050 A 
ATOM      7  C   UNL     1      24.277  94.670  31.234  0.00  0.00    +0.024 A 
ATOM      8  C   UNL     1      23.913  93.810  32.275  0.00  0.00    +0.033 A 
ATOM      9 CL   UNL     1      23.599  94.458  33.810  0.00  0.00    -0.080 Cl
ATOM     10  C   UNL     1      23.820  92.401  31.991  0.00  0.00    +0.010 A 
ATOM     11  C   UNL     1      24.095  91.941  30.706  0.00  0.00    +0.027 A 
ATOM     12  C   UNL     1      24.472  92.779  29.606  0.00  0.00    +0.122 A 
ATOM     13  N   UNL     1      24.748  92.361  28.335  0.00  0.00    -0.090 N 
ATOM     16  C   UNL     1      25.102  93.246  27.307  0.00  0.00    +0.231 A 
ATOM     17  N   UNL     1      25.398  93.077  26.044  0.00  0.00    -0.189 N 
ATOM     18  C   UNL     1      25.435  91.806  25.353  0.00  0.00    +0.232 C 
ATOM     19  N   UNL     1      25.671  94.294  25.456  0.00  0.00    -0.242 NA
ENDROOT
BRANCH  13  14
ATOM     14  O   UNL     1      24.666  91.039  28.080  0.00  0.00    -0.244 OA
ATOM     15  H   UNL     1      24.879  90.879  27.168  0.00  0.00    +0.258 HD
ENDBRANCH  13  14
TORSDOF 1
