REMARK  Name = 4ZTL
REMARK  9 active torsions:
REMARK  status: ('A' for Active; 'I' for Inactive)
REMARK    1  A    between atoms: C_6  and  C_9
REMARK    2  A    between atoms: N_7  and  C_10
REMARK    3  A    between atoms: N_8  and  C_19
REMARK    4  A    between atoms: C_11  and  O_15
REMARK    5  A    between atoms: C_12  and  O_16
REMARK    6  A    between atoms: C_13  and  C_17
REMARK    7  A    between atoms: C_17  and  O_18
REMARK    8  A    between atoms: C_19  and  C_20
REMARK    9  A    between atoms: C_20  and  C_21
REMARK                            x       y       z     vdW  Elec       q    Type
REMARK                         _______ _______ _______ _____ _____    ______ ____
ROOT
ATOM      1  C   UNL     1      29.984   8.305  -8.357  0.00  0.00    +0.134 A 
ATOM      2  N   UNL     1      29.670   9.647  -8.493  0.00  0.00    -0.323 N 
ATOM      3  H   UNL     1      30.056  10.127  -9.368  0.00  0.00    +0.148 HD
ATOM     16  C   UNL     1      30.816   7.582  -9.296  0.00  0.00    +0.065 A 
ATOM     26  C   UNL     1      31.048   6.197  -8.951  0.00  0.00    +0.128 A 
ATOM     27  N   UNL     1      30.441   5.594  -7.870  0.00  0.00    -0.222 NA
ATOM     28  C   UNL     1      29.640   6.358  -7.087  0.00  0.00    +0.217 A 
ATOM     29  N   UNL     1      29.009   5.760  -5.989  0.00  0.00    -0.313 N 
ATOM     30  H   UNL     1      29.177   4.712  -5.854  0.00  0.00    +0.149 HD
ATOM     34  N   UNL     1      29.393   7.658  -7.289  0.00  0.00    -0.199 NA
ENDROOT
BRANCH  16  17
ATOM     17  C   UNL     1      31.534   8.251 -10.403  0.00  0.00    +0.114 A 
ATOM     18  N   UNL     1      31.452   9.565 -10.711  0.00  0.00    -0.239 NA
ATOM     19  C   UNL     1      32.340   9.915 -11.718  0.00  0.00    +0.079 A 
ATOM     20  C   UNL     1      32.498  11.207 -12.343  0.00  0.00    +0.029 A 
ATOM     21  C   UNL     1      33.465  11.407 -13.382  0.00  0.00    +0.002 A 
ATOM     22  C   UNL     1      34.310  10.316 -13.764  0.00  0.00    +0.001 A 
ATOM     23  C   UNL     1      34.150   9.043 -13.135  0.00  0.00    +0.017 A 
ATOM     24  C   UNL     1      33.178   8.851 -12.145  0.00  0.00    +0.040 A 
ATOM     25  S   UNL     1      32.804   7.390 -11.279  0.00  0.00    -0.067 S 
ENDBRANCH  16  17
BRANCH   2   4
ATOM      4  C   UNL     1      28.873  10.506  -7.591  0.00  0.00    +0.103 C 
ATOM      5  C   UNL     1      28.469  11.858  -8.221  0.00  0.00    +0.033 C 
ATOM      6  C   UNL     1      29.589  12.882  -7.868  0.00  0.00    +0.047 C 
ATOM     10  C   UNL     1      30.414  12.220  -6.718  0.00  0.00    +0.150 C 
ATOM     13  C   UNL     1      29.658  10.905  -6.305  0.00  0.00    +0.163 C 
BRANCH  10  11
ATOM     11  O   UNL     1      30.728  13.122  -5.673  0.00  0.00    -0.389 OA
ATOM     12  H   UNL     1      29.843  13.436  -5.203  0.00  0.00    +0.210 HD
ENDBRANCH  10  11
BRANCH  13  14
ATOM     14  O   UNL     1      28.759  11.132  -5.195  0.00  0.00    -0.387 OA
ATOM     15  H   UNL     1      28.094  11.908  -5.436  0.00  0.00    +0.210 HD
ENDBRANCH  13  14
BRANCH   6   7
ATOM      7  C   UNL     1      30.483  13.197  -9.119  0.00  0.00    +0.162 C 
BRANCH   7   8
ATOM      8  O   UNL     1      29.731  13.911 -10.095  0.00  0.00    -0.395 OA
ATOM      9  H   UNL     1      28.910  13.331 -10.398  0.00  0.00    +0.209 HD
ENDBRANCH   7   8
ENDBRANCH   6   7
ENDBRANCH   2   4
BRANCH  29  31
ATOM     31  C   UNL     1      28.130   6.427  -4.990  0.00  0.00    +0.104 C 
BRANCH  31  32
ATOM     32  C   UNL     1      27.447   5.441  -4.028  0.00  0.00    +0.015 C 
ATOM     33  C   UNL     1      26.446   6.149  -3.108  0.00  0.00    +0.005 C 
ENDBRANCH  31  32
ENDBRANCH  29  31
TORSDOF 8
