REMARK  Name = 2BHH
REMARK  6 active torsions:
REMARK  status: ('A' for Active; 'I' for Inactive)
REMARK    1  A    between atoms: C_7  and  C_8
REMARK    2  A    between atoms: C_7  and  O_9
REMARK    3  A    between atoms: C_10  and  C_12
REMARK    4  A    between atoms: C_19  and  S_22
REMARK    5  A    between atoms: S_22  and  N_25
REMARK    6  A    between atoms: C_28  and  O_29
REMARK                            x       y       z     vdW  Elec       q    Type
REMARK                         _______ _______ _______ _____ _____    ______ ____
ROOT
ATOM      5  C   UNL     1       0.725  28.249   6.797  0.00  0.00    +0.072 C 
ATOM      6  C   UNL     1      -0.431  28.372   7.658  0.00  0.00    +0.014 A 
ATOM      7  C   UNL     1      -1.055  27.351   8.485  0.00  0.00    +0.039 A 
ATOM      8  C   UNL     1      -1.975  27.886   9.469  0.00  0.00    +0.106 A 
ATOM     20  C   UNL     1      -2.455  29.259   9.404  0.00  0.00    +0.030 A 
ATOM     21  C   UNL     1      -1.878  30.234   8.490  0.00  0.00    +0.028 A 
ATOM     22  C   UNL     1      -0.807  29.774   7.628  0.00  0.00    +0.065 A 
ATOM     23  N   UNL     1      -0.018  30.578   6.773  0.00  0.00    -0.176 NA
ATOM     24  C   UNL     1       0.855  29.681   6.329  0.00  0.00    +0.270 C 
ATOM     25  O   UNL     1       1.776  30.013   5.589  0.00  0.00    -0.268 OA
ENDROOT
BRANCH   5   4
ATOM      1  C   UNL     1       3.825  24.406   7.696  0.00  0.00    +0.009 A 
ATOM      2  C   UNL     1       3.069  25.489   7.103  0.00  0.00    +0.015 A 
ATOM      3  C   UNL     1       1.766  25.991   7.489  0.00  0.00    +0.132 C 
ATOM      4  C   UNL     1       1.714  27.198   6.676  0.00  0.00    +0.090 C 
ATOM     26  N   UNL     1       2.776  27.383   5.761  0.00  0.00    -0.248 NA
ATOM     29  C   UNL     1       1.769  26.231   8.974  0.00  0.00    +0.053 C 
ATOM     30  C   UNL     1       3.588  26.250   5.990  0.00  0.00    +0.071 A 
ATOM     31  C   UNL     1       4.758  25.817   5.250  0.00  0.00    +0.028 A 
ATOM     32  C   UNL     1       5.496  24.694   5.807  0.00  0.00    +0.002 A 
ATOM     33  C   UNL     1       5.096  24.090   7.067  0.00  0.00    +0.001 A 
BRANCH   3  27
ATOM     27  O   UNL     1       0.809  25.103   7.207  0.00  0.00    -0.378 OA
ATOM     28  H   UNL     1       0.803  24.910   6.175  0.00  0.00    +0.211 HD
ENDBRANCH   3  27
ENDBRANCH   5   4
BRANCH   8   9
ATOM      9  S   UNL     1      -2.562  27.004  10.927  0.00  0.00    +0.061 S 
ATOM     18  O   UNL     1      -4.158  27.658  10.824  0.00  0.00    -0.153 OA
ATOM     19  O   UNL     1      -1.514  27.557  12.212  0.00  0.00    -0.153 OA
BRANCH   9  10
ATOM     10  N   UNL     1      -2.512  25.242  11.153  0.00  0.00    -0.176 NA
ATOM     11  C   UNL     1      -2.385  24.350   9.992  0.00  0.00    +0.112 C 
ATOM     12  C   UNL     1      -1.071  23.592  10.020  0.00  0.00    +0.048 C 
ATOM     13  C   UNL     1      -0.836  22.868  11.344  0.00  0.00    +0.117 C 
ATOM     16  C   UNL     1      -1.004  23.819  12.532  0.00  0.00    +0.048 C 
ATOM     17  C   UNL     1      -2.302  24.618  12.479  0.00  0.00    +0.112 C 
BRANCH  13  14
ATOM     14  O   UNL     1       0.349  22.064  11.374  0.00  0.00    -0.392 OA
ATOM     15  H   UNL     1       1.195  22.686  11.382  0.00  0.00    +0.210 HD
ENDBRANCH  13  14
ENDBRANCH   9  10
ENDBRANCH   8   9
TORSDOF 5
