REMARK  Name = 2LL
REMARK  7 active torsions:
REMARK  status: ('A' for Active; 'I' for Inactive)
REMARK    1  A    between atoms: C2_7  and  C3_8
REMARK    2  A    between atoms: C9_12  and  C10_13
REMARK    3  A    between atoms: C10_13  and  C11_14
REMARK    4  A    between atoms: C11_14  and  C12_15
REMARK    5  A    between atoms: N1_21  and  C18_25
REMARK    6  A    between atoms: C18_25  and  C19_26
REMARK    7  A    between atoms: C19_26  and  N2_27
REMARK                            x       y       z     vdW  Elec       q    Type
REMARK                         _______ _______ _______ _____ _____    ______ ____
ROOT
ATOM      4  C   UNL     1      24.387  35.734  22.346  0.00  0.00    +0.005 A 
ATOM      5  C   UNL     1      24.290  35.707  23.751  0.00  0.00    +0.002 A 
ATOM      6  C   UNL     1      23.886  34.606  24.463  0.00  0.00    +0.019 A 
ATOM      7  C   UNL     1      23.558  33.445  23.722  0.00  0.00    +0.079 A 
ATOM      8  N   UNL     1      23.186  32.174  24.096  0.00  0.00    -0.313 N 
ATOM     17  C   UNL     1      23.040  31.420  22.926  0.00  0.00    +0.121 A 
ATOM     26  N   UNL     1      23.254  32.138  21.842  0.00  0.00    -0.231 NA
ATOM     27  C   UNL     1      23.614  33.439  22.309  0.00  0.00    +0.098 A 
ATOM     28  C   UNL     1      24.035  34.582  21.599  0.00  0.00    +0.021 A 
ENDROOT
BRANCH   4   3
ATOM      1  C   UNL     1      23.316  38.805  22.929  0.00  0.00    +0.075 C 
ATOM      2  C   UNL     1      24.335  38.267  22.004  0.00  0.00    +0.154 A 
ATOM      3  C   UNL     1      24.831  36.977  21.727  0.00  0.00    +0.050 A 
ATOM     29  C   UNL     1      25.852  37.168  20.740  0.00  0.00    +0.101 A 
ATOM     30  N   UNL     1      25.918  38.513  20.463  0.00  0.00    -0.082 NA
ATOM     31  C   UNL     1      26.719  36.125  20.128  0.00  0.00    +0.056 C 
ATOM     32  O   UNL     1      25.017  39.181  21.216  0.00  0.00    -0.358 OA
ENDBRANCH   4   3
BRANCH   8   9
ATOM      9  C   UNL     1      22.974  31.760  25.499  0.00  0.00    +0.125 C 
BRANCH   9  10
ATOM     10  C   UNL     1      21.509  32.148  25.821  0.00  0.00    +0.097 C 
BRANCH  10  11
ATOM     11  N   UNL     1      21.152  31.599  27.166  0.00  0.00    -0.267 NA
ATOM     12  C   UNL     1      22.130  32.061  28.239  0.00  0.00    +0.105 C 
ATOM     13  C   UNL     1      21.671  31.668  29.676  0.00  0.00    +0.160 C 
ATOM     14  O   UNL     1      20.306  31.994  29.804  0.00  0.00    -0.351 OA
ATOM     15  C   UNL     1      19.390  31.505  28.840  0.00  0.00    +0.160 C 
ATOM     16  C   UNL     1      19.758  32.028  27.459  0.00  0.00    +0.105 C 
ENDBRANCH  10  11
ENDBRANCH   9  10
ENDBRANCH   8   9
BRANCH  17  18
ATOM     18  C   UNL     1      22.807  29.948  22.925  0.00  0.00    +0.069 C 
BRANCH  18  19
ATOM     19  C   UNL     1      21.992  29.442  21.707  0.00  0.00    +0.034 C 
BRANCH  19  20
ATOM     20  C   UNL     1      20.528  29.841  21.917  0.00  0.00    -0.022 A 
ATOM     21  C   UNL     1      19.859  29.577  23.109  0.00  0.00    -0.004 A 
ATOM     22  C   UNL     1      18.550  30.006  23.257  0.00  0.00    -0.000 A 
ATOM     23  C   UNL     1      17.885  30.675  22.237  0.00  0.00    -0.000 A 
ATOM     24  C   UNL     1      18.504  30.925  21.043  0.00  0.00    -0.000 A 
ATOM     25  C   UNL     1      19.842  30.506  20.887  0.00  0.00    -0.004 A 
ENDBRANCH  19  20
ENDBRANCH  18  19
ENDBRANCH  17  18
TORSDOF 7
