REMARK  Name = 5B2
REMARK  1 active torsions:
REMARK  status: ('A' for Active; 'I' for Inactive)
REMARK    1  A    between atoms: C5_5  and  C8_11
REMARK                            x       y       z     vdW  Elec       q    Type
REMARK                         _______ _______ _______ _____ _____    ______ ____
ROOT
ATOM      1  C   UNL     1      33.574  40.800  36.364  0.00  0.00    +0.056 A 
ATOM      2  C   UNL     1      32.897  39.753  37.026  0.00  0.00    +0.004 A 
ATOM      3  C   UNL     1      33.436  38.448  37.014  0.00  0.00    +0.000 A 
ATOM     10  C   UNL     1      34.658  38.222  36.338  0.00  0.00    +0.002 A 
ATOM     11  C   UNL     1      35.357  39.248  35.669  0.00  0.00    +0.021 A 
ATOM     12  C   UNL     1      33.357  42.187  36.156  0.00  0.00    +0.192 A 
ATOM     13  N   UNL     1      32.299  42.874  36.618  0.00  0.00    -0.105 NA
ATOM     14  N   UNL     1      34.322  42.740  35.431  0.00  0.00    -0.130 NA
ATOM     15  N   UNL     1      35.169  41.725  35.175  0.00  0.00    -0.147 NA
ATOM     16  C   UNL     1      34.776  40.524  35.711  0.00  0.00    +0.106 A 
ENDROOT
BRANCH   3   4
ATOM      4  C   UNL     1      32.716  37.365  37.711  0.00  0.00    +0.000 A 
ATOM      5  C   UNL     1      32.097  37.600  38.965  0.00  0.00    +0.000 A 
ATOM      6  C   UNL     1      31.410  36.587  39.645  0.00  0.00    +0.000 A 
ATOM      7  C   UNL     1      31.314  35.318  39.069  0.00  0.00    +0.000 A 
ATOM      8  C   UNL     1      31.908  35.060  37.833  0.00  0.00    +0.000 A 
ATOM      9  C   UNL     1      32.607  36.074  37.150  0.00  0.00    +0.000 A 
ENDBRANCH   3   4
TORSDOF 1
