REMARK  Name = 4RC3
REMARK  18 active torsions:
REMARK  status: ('A' for Active; 'I' for Inactive)
REMARK    1  A    between atoms: O_1  and  C_2
REMARK    2  A    between atoms: C_2  and  C_3
REMARK    3  A    between atoms: C_3  and  O_4
REMARK    4  A    between atoms: O_4  and  C_5
REMARK    5  A    between atoms: C_5  and  C_6
REMARK    6  A    between atoms: C_6  and  N_7
REMARK    7  A    between atoms: N_7  and  C_8
REMARK    8  A    between atoms: C_12  and  O_13
REMARK    9  A    between atoms: C_15  and  O_16
REMARK   10  A    between atoms: C_19  and  O_20
REMARK   11  A    between atoms: C_22  and  O_23
REMARK   12  A    between atoms: C_25  and  N_26
REMARK   13  A    between atoms: N_26  and  C_27
REMARK   14  A    between atoms: C_27  and  C_28
REMARK   15  A    between atoms: C_28  and  O_29
REMARK   16  A    between atoms: O_29  and  C_30
REMARK   17  A    between atoms: C_30  and  C_31
REMARK   18  A    between atoms: C_31  and  O_32
REMARK                            x       y       z     vdW  Elec       q    Type
REMARK                         _______ _______ _______ _____ _____    ______ ____
ROOT
ATOM     10  C   UNL     1     -23.473 -37.391  -5.265  0.00  0.00    +0.039 A 
ATOM     11  C   UNL     1     -23.232 -36.812  -3.995  0.00  0.00    +0.050 A 
ATOM     12  C   UNL     1     -22.708 -35.494  -3.908  0.00  0.00    +0.050 A 
ATOM     13  C   UNL     1     -22.435 -34.732  -5.073  0.00  0.00    +0.039 A 
ATOM     23  C   UNL     1     -22.650 -35.340  -6.327  0.00  0.00    +0.025 A 
ATOM     24  C   UNL     1     -22.505 -34.981  -2.634  0.00  0.00    +0.138 A 
ATOM     27  C   UNL     1     -22.814 -35.707  -1.478  0.00  0.00    +0.073 A 
ATOM     28  C   UNL     1     -22.643 -35.105  -0.264  0.00  0.00    +0.128 A 
ATOM     31  C   UNL     1     -22.905 -35.751   0.903  0.00  0.00    +0.050 A 
ATOM     32  C   UNL     1     -23.386 -37.043   0.867  0.00  0.00    +0.050 A 
ATOM     33  C   UNL     1     -23.594 -37.639  -0.347  0.00  0.00    +0.128 A 
ATOM     36  C   UNL     1     -23.292 -36.978  -1.522  0.00  0.00    +0.073 A 
ATOM     37  C   UNL     1     -23.509 -37.526  -2.786  0.00  0.00    +0.138 A 
ATOM     40  C   UNL     1     -23.178 -36.652  -6.429  0.00  0.00    +0.025 A 
ENDROOT
BRANCH  10   8
ATOM      8  N   UNL     1     -23.946 -38.671  -5.255  0.00  0.00    -0.341 N 
ATOM      9  H   UNL     1     -24.244 -39.065  -4.306  0.00  0.00    +0.146 HD
BRANCH   8   7
ATOM      7  C   UNL     1     -24.089 -39.565  -6.412  0.00  0.00    +0.129 C 
BRANCH   7   6
ATOM      6  C   UNL     1     -25.427 -39.232  -7.019  0.00  0.00    +0.178 C 
BRANCH   6   5
ATOM      5  O   UNL     1     -25.200 -38.951  -8.388  0.00  0.00    -0.376 OA
BRANCH   5   4
ATOM      4  C   UNL     1     -25.841 -37.789  -8.917  0.00  0.00    +0.187 C 
BRANCH   4   3
ATOM      3  C   UNL     1     -27.094 -38.299  -9.576  0.00  0.00    +0.184 C 
BRANCH   3   1
ATOM      1  O   UNL     1     -26.909 -38.618 -10.971  0.00  0.00    -0.393 OA
ATOM      2  H   UNL     1     -26.604 -37.758 -11.490  0.00  0.00    +0.209 HD
ENDBRANCH   3   1
ENDBRANCH   4   3
ENDBRANCH   5   4
ENDBRANCH   6   5
ENDBRANCH   7   6
ENDBRANCH   8   7
ENDBRANCH  10   8
BRANCH  13  14
ATOM     14  N   UNL     1     -21.970 -33.463  -4.883  0.00  0.00    -0.341 N 
ATOM     15  H   UNL     1     -21.552 -33.252  -3.921  0.00  0.00    +0.146 HD
BRANCH  14  16
ATOM     16  C   UNL     1     -21.977 -32.329  -5.865  0.00  0.00    +0.129 C 
BRANCH  16  17
ATOM     17  C   UNL     1     -23.077 -32.207  -7.001  0.00  0.00    +0.178 C 
BRANCH  17  18
ATOM     18  O   UNL     1     -22.515 -31.725  -8.304  0.00  0.00    -0.376 OA
BRANCH  18  19
ATOM     19  C   UNL     1     -21.148 -32.131  -8.713  0.00  0.00    +0.187 C 
BRANCH  19  20
ATOM     20  C   UNL     1     -20.905 -32.063 -10.217  0.00  0.00    +0.184 C 
BRANCH  20  21
ATOM     21  O   UNL     1     -19.823 -32.997 -10.420  0.00  0.00    -0.393 OA
ATOM     22  H   UNL     1     -18.987 -32.691  -9.864  0.00  0.00    +0.209 HD
ENDBRANCH  20  21
ENDBRANCH  19  20
ENDBRANCH  18  19
ENDBRANCH  17  18
ENDBRANCH  16  17
ENDBRANCH  14  16
ENDBRANCH  13  14
BRANCH  24  25
ATOM     25  O   UNL     1     -22.017 -33.656  -2.481  0.00  0.00    -0.505 OA
ATOM     26  H   UNL     1     -22.733 -33.075  -1.978  0.00  0.00    +0.292 HD
ENDBRANCH  24  25
BRANCH  28  29
ATOM     29  O   UNL     1     -22.169 -33.828  -0.332  0.00  0.00    -0.506 OA
ATOM     30  H   UNL     1     -22.851 -33.176   0.129  0.00  0.00    +0.292 HD
ENDBRANCH  28  29
BRANCH  33  34
ATOM     34  O   UNL     1     -24.108 -38.904  -0.404  0.00  0.00    -0.506 OA
ATOM     35  H   UNL     1     -25.014 -38.891  -0.935  0.00  0.00    +0.292 HD
ENDBRANCH  33  34
BRANCH  37  38
ATOM     38  O   UNL     1     -24.013 -38.825  -2.846  0.00  0.00    -0.505 OA
ATOM     39  H   UNL     1     -24.931 -38.822  -3.356  0.00  0.00    +0.292 HD
ENDBRANCH  37  38
TORSDOF 18
