REMARK  Name = 5UK8
REMARK  5 active torsions:
REMARK  status: ('A' for Active; 'I' for Inactive)
REMARK    1  A    between atoms: C_1  and  C_29
REMARK    2  A    between atoms: C_12  and  S_18
REMARK    3  A    between atoms: C_12  and  C_19
REMARK    4  A    between atoms: C_15  and  S_18
REMARK    5  A    between atoms: C_22  and  C_23
REMARK                            x       y       z     vdW  Elec       q    Type
REMARK                         _______ _______ _______ _____ _____    ______ ____
ROOT
ATOM      1  C   UNL     1      -3.154 -11.831  17.712  0.00  0.00    +0.097 C 
ATOM      2  C   UNL     1      -1.948 -12.678  18.117  0.00  0.00    +0.030 C 
ATOM      3  N   UNL     1      -2.801 -10.406  17.546  0.00  0.00    -0.308 N 
ATOM      4  C   UNL     1      -2.083 -10.023  16.324  0.00  0.00    +0.135 C 
ATOM      5  C   UNL     1      -2.782 -10.606  15.121  0.00  0.00    +0.178 C 
ATOM      6  O   UNL     1      -3.012 -12.005  15.269  0.00  0.00    -0.376 OA
ATOM      7  C   UNL     1      -2.816  -9.569  18.629  0.00  0.00    +0.126 A 
ATOM      8  N   UNL     1      -3.398 -10.042  19.744  0.00  0.00    -0.213 NA
ATOM      9  C   UNL     1      -3.405  -9.266  20.837  0.00  0.00    +0.163 A 
ATOM     19  N   UNL     1      -2.905  -8.024  20.904  0.00  0.00    -0.230 NA
ATOM     20  C   UNL     1      -2.347  -7.552  19.775  0.00  0.00    +0.074 A 
ATOM     30  C   UNL     1      -2.236  -8.288  18.590  0.00  0.00    +0.069 A 
ATOM     31  C   UNL     1      -3.836 -12.278  16.429  0.00  0.00    +0.182 C 
ENDROOT
BRANCH   9  10
ATOM     10  C   UNL     1      -4.015  -9.839  22.083  0.00  0.00    +0.028 A 
ATOM     11  C   UNL     1      -3.724  -9.268  23.327  0.00  0.00    +0.012 A 
ATOM     12  C   UNL     1      -4.333  -9.722  24.490  0.00  0.00    +0.003 A 
ATOM     13  C   UNL     1      -5.239 -10.774  24.453  0.00  0.00    +0.028 A 
ATOM     14  C   UNL     1      -5.534 -11.352  23.219  0.00  0.00    +0.072 A 
ATOM     15  N   UNL     1      -6.450 -12.330  22.883  0.00  0.00    -0.255 NA
ATOM     16  C   UNL     1      -6.440 -12.487  21.522  0.00  0.00    +0.112 A 
ATOM     17  C   UNL     1      -5.542 -11.650  20.948  0.00  0.00    +0.030 A 
ATOM     18  C   UNL     1      -4.936 -10.910  22.032  0.00  0.00    +0.012 A 
ENDBRANCH   9  10
BRANCH  20  21
ATOM     21  C   UNL     1      -1.899  -6.127  19.757  0.00  0.00    +0.130 C 
ATOM     28  C   UNL     1      -2.531  -5.154  18.769  0.00  0.00    +0.038 C 
ATOM     29  C   UNL     1      -2.833  -5.023  20.236  0.00  0.00    +0.038 C 
BRANCH  21  22
ATOM     22  S   UNL     1      -0.135  -5.919  20.192  0.00  0.00    -0.017 S 
ATOM     26  O   UNL     1       0.194  -4.545  19.967  0.00  0.00    -0.173 OA
ATOM     27  O   UNL     1       0.594  -6.969  19.547  0.00  0.00    -0.173 OA
BRANCH  22  23
ATOM     23  C   UNL     1      -0.089  -6.217  21.970  0.00  0.00    +0.132 C 
ATOM     24  C   UNL     1       1.174  -6.687  22.608  0.00  0.00    +0.028 C 
ATOM     25  C   UNL     1       0.001  -7.595  22.539  0.00  0.00    +0.028 C 
ENDBRANCH  22  23
ENDBRANCH  21  22
ENDBRANCH  20  21
TORSDOF 4
