REMARK  Name = 3QWJ
REMARK  5 active torsions:
REMARK  status: ('A' for Active; 'I' for Inactive)
REMARK    1  A    between atoms: N_1  and  C_9
REMARK    2  A    between atoms: N_1  and  C_14
REMARK    3  A    between atoms: N_5  and  C_12
REMARK    4  A    between atoms: C_8  and  C_13
REMARK    5  A    between atoms: C_14  and  C_15
REMARK                            x       y       z     vdW  Elec       q    Type
REMARK                         _______ _______ _______ _____ _____    ______ ____
ROOT
ATOM     13  C   UNL     1     -38.668 -81.451 -47.470  0.00  0.00    +0.041 A 
ATOM     14  C   UNL     1     -39.055 -81.020 -46.171  0.00  0.00    +0.046 A 
ATOM     15  C   UNL     1     -40.363 -80.592 -45.888  0.00  0.00    +0.073 A 
ATOM     16 CL   UNL     1     -40.677 -80.129 -44.282  0.00  0.00    -0.081 Cl
ATOM     17  C   UNL     1     -41.368 -80.570 -46.926  0.00  0.00    +0.145 A 
ATOM     18  C   UNL     1     -40.988 -81.009 -48.229  0.00  0.00    +0.049 A 
ATOM     22  C   UNL     1     -39.652 -81.453 -48.513  0.00  0.00    +0.059 A 
ENDROOT
BRANCH  22  23
ATOM     23  C   UNL     1     -39.356 -81.875 -49.786  0.00  0.00    +0.243 C 
ATOM     24  O   UNL     1     -38.491 -82.710 -49.974  0.00  0.00    -0.270 OA
ATOM     25  N   UNL     1     -40.051 -81.375 -50.853  0.00  0.00    -0.325 N 
ATOM     26  H   UNL     1     -39.819 -81.705 -51.844  0.00  0.00    +0.145 HD
ATOM     27  H   UNL     1     -40.826 -80.654 -50.696  0.00  0.00    +0.145 HD
ENDBRANCH  22  23
BRANCH  17  19
ATOM     19  N   UNL     1     -42.594 -80.171 -46.725  0.00  0.00    +0.058 N 
ATOM     20  O   UNL     1     -43.465 -80.186 -47.700  0.00  0.00    -0.126 OA
ATOM     21  O   UNL     1     -43.007 -79.737 -45.561  0.00  0.00    -0.126 OA
ENDBRANCH  17  19
BRANCH  13   1
ATOM      1  N   UNL     1     -37.441 -81.846 -47.707  0.00  0.00    -0.339 N 
ATOM      2  H   UNL     1     -37.273 -82.474 -48.557  0.00  0.00    +0.146 HD
BRANCH   1   3
ATOM      3  C   UNL     1     -36.264 -81.477 -46.868  0.00  0.00    +0.140 C 
BRANCH   3   4
ATOM      4  C   UNL     1     -36.076 -82.489 -45.770  0.00  0.00    +0.006 A 
ATOM      5  C   UNL     1     -35.927 -83.861 -46.007  0.00  0.00    +0.121 A 
ATOM      6  N   UNL     1     -35.764 -84.791 -45.010  0.00  0.00    -0.223 NA
ATOM      7  C   UNL     1     -35.756 -84.302 -43.737  0.00  0.00    +0.212 A 
ATOM      8  N   UNL     1     -35.610 -85.133 -42.790  0.00  0.00    -0.328 N 
ATOM      9  H   UNL     1     -35.499 -86.175 -43.005  0.00  0.00    +0.145 HD
ATOM     10  H   UNL     1     -35.598 -84.792 -41.776  0.00  0.00    +0.145 HD
ATOM     11  N   UNL     1     -35.892 -82.993 -43.394  0.00  0.00    -0.223 NA
ATOM     12  C   UNL     1     -36.048 -82.117 -44.423  0.00  0.00    +0.121 A 
ENDBRANCH   3   4
ENDBRANCH   1   3
ENDBRANCH  13   1
TORSDOF 5
