REMARK  Name = 3lpb_ligand
REMARK  11 active torsions:
REMARK  status: ('A' for Active; 'I' for Inactive)
REMARK    1  A    between atoms: S1_1  and  N4_4
REMARK    2  A    between atoms: S1_1  and  C10_6
REMARK    3  A    between atoms: N4_4  and  C6_5
REMARK    4  A    between atoms: C15_9  and  C20_12
REMARK    5  A    between atoms: C23_15  and  C34_22
REMARK    6  A    between atoms: C37_24  and  O52_32
REMARK    7  A    between atoms: C38_25  and  O47_30
REMARK    8  A    between atoms: C39_26  and  O42_28
REMARK    9  A    between atoms: O42_28  and  C43_29
REMARK   10  A    between atoms: O47_30  and  C48_31
REMARK   11  A    between atoms: O52_32  and  C53_33
REMARK                            x       y       z     vdW  Elec       q    Type
REMARK                         _______ _______ _______ _____ _____    ______ ____
ROOT
ATOM      6  C   UNL     1     116.906  66.085   8.327  0.00  0.00    +0.011 A 
ATOM      7  C   UNL     1     117.913  66.090   7.328  0.00  0.00    +0.023 A 
ATOM      8  C   UNL     1     119.105  66.813   7.498  0.00  0.00    +0.015 A 
ATOM      9  C   UNL     1     119.275  67.565   8.672  0.00  0.00    +0.034 A 
ATOM     10  C   UNL     1     118.274  67.568   9.666  0.00  0.00    +0.073 A 
ATOM     11  N   UNL     1     118.452  68.278  10.798  0.00  0.00    -0.271 NA
ATOM     12  C   UNL     1     117.516  68.296  11.766  0.00  0.00    +0.142 A 
ATOM     13  C   UNL     1     116.337  67.572  11.587  0.00  0.00    +0.070 A 
ATOM     26  N   UNL     1     116.158  66.823  10.469  0.00  0.00    -0.272 NA
ATOM     27  C   UNL     1     117.109  66.801   9.509  0.00  0.00    +0.077 A 
ENDROOT
BRANCH   6   5
ATOM      2  C   UNL     1     113.393  63.740   7.565  0.00  0.00    +0.109 A 
ATOM      3  C   UNL     1     114.021  64.447   6.511  0.00  0.00    +0.030 A 
ATOM      4  C   UNL     1     115.156  65.222   6.789  0.00  0.00    +0.011 A 
ATOM      5  C   UNL     1     115.678  65.280   8.097  0.00  0.00    -0.014 A 
ATOM     28  C   UNL     1     115.045  64.556   9.144  0.00  0.00    +0.011 A 
ATOM     29  C   UNL     1     113.895  63.816   8.873  0.00  0.00    +0.030 A 
BRANCH   2   1
ATOM      1  S   UNL     1     111.954  62.743   7.258  0.00  0.00    +0.068 S 
ATOM     33  O   UNL     1     112.360  61.532   6.627  0.00  0.00    -0.150 OA
ATOM     34  O   UNL     1     111.095  62.662   8.410  0.00  0.00    -0.150 OA
BRANCH   1  30
ATOM     30  N   UNL     1     111.097  63.616   6.203  0.00  0.00    -0.250 NA
ATOM     31  H   UNL     1     111.155  63.422   5.203  0.00  0.00    +0.167 HD
ATOM     32  C   UNL     1     110.242  64.681   6.698  0.00  0.00    +0.147 C 
ENDBRANCH   1  30
ENDBRANCH   2   1
ENDBRANCH   6   5
BRANCH  13  14
ATOM     14  C   UNL     1     115.255  67.514  12.607  0.00  0.00    -0.019 A 
ATOM     15  C   UNL     1     115.482  67.980  13.905  0.00  0.00    +0.008 A 
ATOM     16  C   UNL     1     114.459  67.879  14.882  0.00  0.00    +0.117 A 
ATOM     19  C   UNL     1     113.242  67.315  14.546  0.00  0.00    +0.153 A 
ATOM     22  C   UNL     1     113.024  66.834  13.252  0.00  0.00    +0.117 A 
ATOM     25  C   UNL     1     114.051  66.916  12.294  0.00  0.00    +0.008 A 
BRANCH  16  17
ATOM     17  O   UNL     1     114.618  68.365  16.172  0.00  0.00    -0.327 OA
ATOM     18  C   UNL     1     115.489  69.461  16.486  0.00  0.00    +0.228 C 
ENDBRANCH  16  17
BRANCH  19  20
ATOM     20  O   UNL     1     112.254  67.206  15.511  0.00  0.00    -0.325 OA
ATOM     21  C   UNL     1     112.169  65.959  16.247  0.00  0.00    +0.227 C 
ENDBRANCH  19  20
BRANCH  22  23
ATOM     23  O   UNL     1     111.779  66.283  12.967  0.00  0.00    -0.327 OA
ATOM     24  C   UNL     1     111.340  65.848  11.645  0.00  0.00    +0.228 C 
ENDBRANCH  22  23
ENDBRANCH  13  14
TORSDOF 7
