REMARK  Name = 2w17_ligand
REMARK  10 active torsions:
REMARK  status: ('A' for Active; 'I' for Inactive)
REMARK    1  A    between atoms: C1_1  and  C2_2
REMARK    2  A    between atoms: C2_2  and  C3_3
REMARK    3  A    between atoms: C2_2  and  N1_4
REMARK    4  A    between atoms: C4_5  and  C5_6
REMARK    5  A    between atoms: C7_9  and  C8_10
REMARK    6  A    between atoms: N4_13  and  C10_14
REMARK    7  A    between atoms: C13_17  and  C16_20
REMARK    8  A    between atoms: C19_25  and  N6_27
REMARK    9  A    between atoms: N6_27  and  C21_28
REMARK   10  A    between atoms: N6_27  and  C22_29
REMARK                            x       y       z     vdW  Elec       q    Type
REMARK                         _______ _______ _______ _____ _____    ______ ____
ROOT
ATOM      5  C   UNL     1      -0.498  30.819   8.397  0.00  0.00    +0.101 A 
ATOM      6  C   UNL     1      -0.561  32.179   8.154  0.00  0.00    +0.172 A 
ATOM      7  F   UNL     1      -1.501  33.005   8.641  0.00  0.00    -0.180 F 
ATOM      8  C   UNL     1       0.411  32.708   7.359  0.00  0.00    +0.127 A 
ATOM      9  N   UNL     1       1.385  31.968   6.837  0.00  0.00    -0.262 NA
ATOM     10  C   UNL     1       1.393  30.657   7.119  0.00  0.00    +0.199 A 
ATOM     11  N   UNL     1       2.459  29.956   6.522  0.00  0.00    -0.242 N 
ATOM     12  H   UNL     1       2.769  30.347   5.621  0.00  0.00    +0.218 HD
ATOM     30  N   UNL     1       0.472  30.052   7.883  0.00  0.00    -0.257 NA
ENDROOT
BRANCH   5   4
ATOM      3  N   UNL     1      -1.418  29.013  10.059  0.00  0.00    -0.234 N 
ATOM      4  C   UNL     1      -1.529  30.163   9.264  0.00  0.00    +0.098 A 
ATOM     31  C   UNL     1      -2.830  30.594   9.411  0.00  0.00    +0.045 A 
ATOM     32  N   UNL     1      -3.434  29.698  10.275  0.00  0.00    -0.320 NA
ATOM     33  C   UNL     1      -2.587  28.746  10.661  0.00  0.00    +0.121 A 
ATOM     34  C   UNL     1      -2.919  27.621  11.588  0.00  0.00    +0.160 C 
BRANCH   3   2
ATOM      1  C   UNL     1       0.174  28.280  11.709  0.00  0.00    +0.043 C 
ATOM      2  C   UNL     1      -0.209  28.230  10.244  0.00  0.00    +0.127 C 
ATOM     35  C   UNL     1      -0.297  26.812   9.703  0.00  0.00    +0.043 C 
ENDBRANCH   3   2
ENDBRANCH   5   4
BRANCH  11  13
ATOM     13  C   UNL     1       3.176  28.820   6.934  0.00  0.00    +0.070 A 
ATOM     14  C   UNL     1       4.170  28.355   6.087  0.00  0.00    +0.023 A 
ATOM     15  C   UNL     1       4.941  27.245   6.391  0.00  0.00    +0.013 A 
ATOM     16  C   UNL     1       4.678  26.603   7.588  0.00  0.00    +0.038 A 
ATOM     28  C   UNL     1       3.704  27.054   8.459  0.00  0.00    +0.013 A 
ATOM     29  C   UNL     1       2.952  28.162   8.123  0.00  0.00    +0.023 A 
BRANCH  16  17
ATOM     17  C   UNL     1       5.504  25.454   7.926  0.00  0.00    +0.199 C 
ATOM     18  N   UNL     1       4.945  24.220   8.153  0.00  0.00    -0.269 N 
ATOM     19  C   UNL     1       5.892  23.203   8.551  0.00  0.00    +0.191 C 
ATOM     20  C   UNL     1       5.124  22.120   9.256  0.00  0.00    +0.088 C 
ATOM     25  C   UNL     1       3.659  22.501   9.075  0.00  0.00    +0.081 C 
ATOM     26  C   UNL     1       3.629  23.973   8.678  0.00  0.00    +0.143 C 
ATOM     27  O   UNL     1       6.709  25.662   7.960  0.00  0.00    -0.390 OA
BRANCH  20  21
ATOM     21  N   UNL     1       5.540  22.192  10.697  0.00  0.00    +0.234 N 
ATOM     22  H   UNL     1       5.769  23.157  10.879  0.00  0.00    +0.203 HD
ATOM     23  C   UNL     1       6.765  21.379  10.948  0.00  0.00    +0.190 C 
ATOM     24  C   UNL     1       4.497  21.801  11.684  0.00  0.00    +0.190 C 
ENDBRANCH  20  21
ENDBRANCH  16  17
ENDBRANCH  11  13
TORSDOF 5
