REMARK  Name = 83T
REMARK  6 active torsions:
REMARK  status: ('A' for Active; 'I' for Inactive)
REMARK    1  A    between atoms: N05_2  and  C07_3
REMARK    2  A    between atoms: C07_3  and  C10_4
REMARK    3  A    between atoms: C15_7  and  C20_10
REMARK    4  A    between atoms: C36_18  and  N38_19
REMARK    5  A    between atoms: C40_20  and  O42_22
REMARK    6  A    between atoms: O42_22  and  C43_23
REMARK                            x       y       z     vdW  Elec       q    Type
REMARK                         _______ _______ _______ _____ _____    ______ ____
ROOT
ATOM      8  C   UNL     1     -15.929   8.912  -6.361  0.00  0.00    -0.000 A 
ATOM      9  C   UNL     1     -15.854   9.875  -5.346  0.00  0.00    -0.001 A 
ATOM     10  C   UNL     1     -15.354  11.158  -5.592  0.00  0.00    +0.011 A 
ATOM     11  C   UNL     1     -15.315  12.212  -4.538  0.00  0.00    +0.124 C 
ATOM     19  C   UNL     1     -15.787  13.547  -5.111  0.00  0.00    +0.047 C 
ATOM     20  C   UNL     1     -15.231  13.918  -6.493  0.00  0.00    +0.082 C 
ATOM     21  N   UNL     1     -14.456  12.812  -7.108  0.00  0.00    -0.261 N 
ATOM     22  C   UNL     1     -13.321  13.122  -7.818  0.00  0.00    +0.230 C 
ATOM     23  O   UNL     1     -12.975  14.285  -7.954  0.00  0.00    -0.275 OA
ATOM     24  C   UNL     1     -12.534  12.000  -8.427  0.00  0.00    +0.095 C 
ATOM     25  C   UNL     1     -16.292  14.448  -7.442  0.00  0.00    +0.022 C 
ATOM     26  C   UNL     1     -14.949  11.490  -6.888  0.00  0.00    +0.051 A 
ATOM     27  C   UNL     1     -15.017  10.542  -7.902  0.00  0.00    +0.015 A 
ATOM     28  C   UNL     1     -15.491   9.272  -7.633  0.00  0.00    +0.001 A 
ENDROOT
BRANCH   8   7
ATOM      4  C   UNL     1     -17.400   4.931  -5.560  0.00  0.00    -0.005 A 
ATOM      5  C   UNL     1     -17.738   5.993  -4.737  0.00  0.00    -0.003 A 
ATOM      6  C   UNL     1     -17.270   7.272  -4.993  0.00  0.00    -0.000 A 
ATOM      7  C   UNL     1     -16.438   7.536  -6.081  0.00  0.00    -0.000 A 
ATOM     29  C   UNL     1     -16.098   6.457  -6.897  0.00  0.00    -0.000 A 
ATOM     30  C   UNL     1     -16.565   5.181  -6.636  0.00  0.00    -0.003 A 
BRANCH   4   3
ATOM      3  C   UNL     1     -17.885   3.530  -5.270  0.00  0.00    +0.115 C 
BRANCH   3   2
ATOM      1  C   UNL     1     -19.718   1.946  -5.465  0.00  0.00    +0.108 C 
ATOM      2  N   UNL     1     -19.209   3.267  -5.850  0.00  0.00    -0.212 NA
ENDBRANCH   3   2
ENDBRANCH   4   3
ENDBRANCH   8   7
BRANCH  11  12
ATOM     12  N   UNL     1     -16.131  11.830  -3.388  0.00  0.00    -0.166 NA
ATOM     13  C   UNL     1     -15.616  11.294  -2.268  0.00  0.00    +0.421 C 
ATOM     14  O   UNL     1     -16.255  11.056  -1.266  0.00  0.00    -0.225 OA
BRANCH  13  15
ATOM     15  O   UNL     1     -14.347  10.875  -2.477  0.00  0.00    -0.437 OA
BRANCH  15  16
ATOM     16  C   UNL     1     -13.801   9.911  -1.512  0.00  0.00    +0.171 C 
ATOM     17  C   UNL     1     -12.315  10.086  -1.499  0.00  0.00    +0.047 C 
ATOM     18  C   UNL     1     -14.232   8.558  -1.961  0.00  0.00    +0.047 C 
ENDBRANCH  15  16
ENDBRANCH  13  15
ENDBRANCH  11  12
TORSDOF 6
