REMARK  Name = 3OFM
REMARK  4 active torsions:
REMARK  status: ('A' for Active; 'I' for Inactive)
REMARK    1  A    between atoms: O_1  and  C_6
REMARK    2  A    between atoms: C_6  and  C_7
REMARK    3  A    between atoms: C_7  and  C_8
REMARK    4  A    between atoms: C_8  and  N_17
REMARK                            x       y       z     vdW  Elec       q    Type
REMARK                         _______ _______ _______ _____ _____    ______ ____
ROOT
ATOM      6  N   UNL     1      -0.749 -13.324   5.578  0.00  0.00    -0.243 N 
ATOM      7  C   UNL     1      -0.737 -13.092   6.891  0.00  0.00    +0.105 A 
ATOM      8  C   UNL     1      -2.055 -13.290   7.290  0.00  0.00    +0.129 A 
ATOM      9  C   UNL     1      -2.437 -13.123   8.627  0.00  0.00    +0.062 A 
ATOM     10  C   UNL     1      -1.454 -12.750   9.558  0.00  0.00    +0.049 A 
ATOM     11  C   UNL     1      -0.124 -12.551   9.171  0.00  0.00    +0.049 A 
ATOM     12 BR   UNL     1       1.168 -12.041  10.491  0.00  0.00    -0.048 Br
ATOM     13 BR   UNL     1      -1.887 -12.508  11.387  0.00  0.00    -0.048 Br
ATOM     14 BR   UNL     1      -4.255 -13.392   9.173  0.00  0.00    -0.047 Br
ATOM     15  N   UNL     1      -2.703 -13.627   6.177  0.00  0.00    -0.128 NA
ATOM     16  C   UNL     1       0.225 -12.723   7.828  0.00  0.00    +0.060 A 
ATOM     17 BR   UNL     1       2.004 -12.468   7.259  0.00  0.00    -0.047 Br
ATOM     18  N   UNL     1      -1.899 -13.636   5.232  0.00  0.00    -0.065 NA
ENDROOT
BRANCH   6   5
ATOM      5  C   UNL     1       0.396 -13.292   4.611  0.00  0.00    +0.148 C 
BRANCH   5   4
ATOM      4  C   UNL     1       1.324 -12.059   4.696  0.00  0.00    +0.051 C 
BRANCH   4   3
ATOM      3  C   UNL     1       2.694 -12.272   4.004  0.00  0.00    +0.158 C 
BRANCH   3   1
ATOM      1  O   UNL     1       3.731 -11.448   4.608  0.00  0.00    -0.395 OA
ATOM      2  H   UNL     1       3.469 -10.435   4.521  0.00  0.00    +0.209 HD
ENDBRANCH   3   1
ENDBRANCH   4   3
ENDBRANCH   5   4
ENDBRANCH   6   5
TORSDOF 4
