REMARK  Name = 3dpk_ligand
REMARK  8 active torsions:
REMARK  status: ('A' for Active; 'I' for Inactive)
REMARK    1  A    between atoms: C01_1  and  O02_2
REMARK    2  A    between atoms: O02_2  and  N03_3
REMARK    3  A    between atoms: C04_4  and  C06_6
REMARK    4  A    between atoms: N08_8  and  C31_31
REMARK    5  A    between atoms: N17_17  and  C18_18
REMARK    6  A    between atoms: C21_21  and  C24_24
REMARK    7  A    between atoms: C24_24  and  C25_25
REMARK    8  A    between atoms: C25_25  and  N26_26
REMARK                            x       y       z     vdW  Elec       q    Type
REMARK                         _______ _______ _______ _____ _____    ______ ____
ROOT
ATOM      6  C   UNL     1       7.699  23.881   5.284  0.00  0.00    +0.109 A 
ATOM      7  C   UNL     1       8.150  23.951   6.679  0.00  0.00    +0.131 A 
ATOM      8  O   UNL     1       8.868  23.095   7.235  0.00  0.00    -0.416 OA
ATOM      9  C   UNL     1       7.744  25.165   7.420  0.00  0.00    +0.089 A 
ATOM     10  C   UNL     1       8.170  25.391   8.723  0.00  0.00    +0.116 A 
ATOM     11  N   UNL     1       7.878  26.428   9.512  0.00  0.00    -0.258 NA
ATOM     12  C   UNL     1       7.081  27.367   8.957  0.00  0.00    +0.202 A 
ATOM     13  N   UNL     1       6.664  28.562   9.558  0.00  0.00    -0.245 N 
ATOM     14  H   UNL     1       7.166  28.786  10.429  0.00  0.00    +0.218 HD
ATOM     29  N   UNL     1       6.584  27.281   7.617  0.00  0.00    -0.224 NA
ATOM     30  C   UNL     1       6.923  26.168   6.898  0.00  0.00    +0.170 A 
ATOM     31  N   UNL     1       6.482  25.981   5.564  0.00  0.00    -0.214 N 
ATOM     38  C   UNL     1       6.776  24.806   4.892  0.00  0.00    +0.216 A 
ENDROOT
BRANCH  13  15
ATOM     15  C   UNL     1       5.636  29.571   9.182  0.00  0.00    +0.060 A 
ATOM     16  C   UNL     1       4.814  30.195  10.152  0.00  0.00    +0.008 A 
ATOM     17  C   UNL     1       3.815  31.103   9.817  0.00  0.00    -0.016 A 
ATOM     18  C   UNL     1       3.553  31.506   8.499  0.00  0.00    -0.049 A 
ATOM     27  C   UNL     1       4.353  30.881   7.552  0.00  0.00    -0.016 A 
ATOM     28  C   UNL     1       5.371  29.953   7.866  0.00  0.00    +0.008 A 
BRANCH  18  19
ATOM     19  C   UNL     1       2.345  32.368   8.122  0.00  0.00    +0.108 C 
BRANCH  19  20
ATOM     20  C   UNL     1       0.996  31.591   8.342  0.00  0.00    +0.143 C 
BRANCH  20  21
ATOM     21  N   UNL     1      -0.252  32.286   7.852  0.00  0.00    +0.236 N 
ATOM     22  H   UNL     1      -0.490  32.913   8.604  0.00  0.00    +0.203 HD
ATOM     23  C   UNL     1      -1.496  31.532   7.544  0.00  0.00    +0.131 C 
ATOM     24  C   UNL     1      -2.392  32.562   6.839  0.00  0.00    +0.056 C 
ATOM     25  C   UNL     1      -1.450  33.585   6.231  0.00  0.00    +0.056 C 
ATOM     26  C   UNL     1      -0.041  33.112   6.634  0.00  0.00    +0.131 C 
ENDBRANCH  20  21
ENDBRANCH  19  20
ENDBRANCH  18  19
ENDBRANCH  13  15
BRANCH  31  32
ATOM     32  C   UNL     1       5.823  27.163   4.802  0.00  0.00    +0.138 C 
ATOM     33  C   UNL     1       4.533  26.831   4.059  0.00  0.00    +0.036 C 
ATOM     34  C   UNL     1       3.971  27.982   3.161  0.00  0.00    +0.003 C 
ATOM     35  C   UNL     1       4.964  28.718   2.291  0.00  0.00    +0.000 C 
ATOM     36  C   UNL     1       6.158  29.052   3.128  0.00  0.00    +0.003 C 
ATOM     37  C   UNL     1       6.776  27.811   3.783  0.00  0.00    +0.036 C 
ENDBRANCH  31  32
BRANCH   6   5
ATOM      3  N   UNL     1       8.930  21.714   4.803  0.00  0.00    -0.167 N 
ATOM      4  H   UNL     1       9.321  21.799   5.720  0.00  0.00    +0.220 HD
ATOM      5  C   UNL     1       8.140  22.788   4.302  0.00  0.00    +0.208 C 
ATOM     39  O   UNL     1       7.577  22.795   3.211  0.00  0.00    -0.405 OA
BRANCH   3   2
ATOM      1  C   UNL     1      10.575  20.278   3.829  0.00  0.00    +0.234 C 
ATOM      2  O   UNL     1       9.184  20.558   4.083  0.00  0.00    -0.261 OA
ENDBRANCH   3   2
ENDBRANCH   6   5
TORSDOF 7
