REMARK  Name = 5MO8
REMARK  11 active torsions:
REMARK  status: ('A' for Active; 'I' for Inactive)
REMARK    1  A    between atoms: C_3  and  C_4
REMARK    2  A    between atoms: C_13  and  C_14
REMARK    3  A    between atoms: C_14  and  N_15
REMARK    4  A    between atoms: N_15  and  C_16
REMARK    5  A    between atoms: C_16  and  C_17
REMARK    6  A    between atoms: C_17  and  C_18
REMARK    7  A    between atoms: C_18  and  N_19
REMARK    8  A    between atoms: C_20  and  C_22
REMARK    9  A    between atoms: C_22  and  C_23
REMARK   10  A    between atoms: N_25  and  C_26
REMARK   11  A    between atoms: C_31  and  C_32
REMARK                            x       y       z     vdW  Elec       q    Type
REMARK                         _______ _______ _______ _____ _____    ______ ____
ROOT
ATOM     10  C   UNL     1       6.962 131.874 356.733  0.00  0.00    +0.105 C 
ENDROOT
BRANCH  10  11
ATOM     11  N   UNL     1       6.917 131.043 357.927  0.00  0.00    -0.315 N 
ATOM     12  H   UNL     1       5.971 130.859 358.393  0.00  0.00    +0.149 HD
ATOM     13  C   UNL     1       8.009 130.505 358.458  0.00  0.00    +0.222 C 
ATOM     28  O   UNL     1       9.142 130.830 358.117  0.00  0.00    -0.275 OA
BRANCH  13  14
ATOM     14  C   UNL     1       7.783 129.421 359.490  0.00  0.00    +0.191 C 
BRANCH  14  15
ATOM     15  C   UNL     1       8.031 129.912 360.899  0.00  0.00    +0.226 C 
ATOM     16  N   UNL     1       9.322 130.179 361.193  0.00  0.00    -0.285 N 
ATOM     17  H   UNL     1      10.037 129.974 360.423  0.00  0.00    +0.155 HD
ATOM     27  O   UNL     1       7.108 130.035 361.697  0.00  0.00    -0.275 OA
BRANCH  16  18
ATOM     18  C   UNL     1       9.835 130.699 362.403  0.00  0.00    +0.034 A 
ATOM     19  C   UNL     1      11.184 131.012 362.522  0.00  0.00    +0.033 A 
ATOM     20  C   UNL     1      11.661 131.648 363.664  0.00  0.00    -0.001 A 
ATOM     24  C   UNL     1      10.779 131.949 364.693  0.00  0.00    +0.010 A 
ATOM     25  C   UNL     1       9.443 131.607 364.590  0.00  0.00    +0.002 A 
ATOM     26  C   UNL     1       8.969 130.980 363.451  0.00  0.00    +0.023 A 
BRANCH  20  21
ATOM     21  C   UNL     1      13.076 132.098 363.727  0.00  0.00    +0.072 C 
ATOM     22  O   UNL     1      13.807 131.713 362.738  0.00  0.00    -0.545 OA
ATOM     23  O   UNL     1      13.475 132.830 364.609  0.00  0.00    -0.545 OA
ENDBRANCH  20  21
ENDBRANCH  16  18
ENDBRANCH  14  15
ENDBRANCH  13  14
ENDBRANCH  10  11
BRANCH  10   9
ATOM      9  C   UNL     1       6.045 133.071 356.806  0.00  0.00    +0.034 C 
BRANCH   9   8
ATOM      8  C   UNL     1       5.983 133.792 355.480  0.00  0.00    +0.083 C 
BRANCH   8   6
ATOM      6  N   UNL     1       5.262 135.059 355.569  0.00  0.00    -0.312 NA
ATOM      7  H   UNL     1       4.502 134.968 356.317  0.00  0.00    +0.122 HD
BRANCH   6   5
ATOM      5  C   UNL     1       4.632 135.442 354.308  0.00  0.00    +0.116 C 
BRANCH   5   4
ATOM      1 CL   UNL     1       5.422 139.470 351.136  0.00  0.00    -0.083 Cl
ATOM      2  C   UNL     1       4.860 138.841 352.652  0.00  0.00    +0.049 A 
ATOM      3  C   UNL     1       4.949 137.480 352.865  0.00  0.00    +0.025 A 
ATOM      4  C   UNL     1       4.589 136.934 354.089  0.00  0.00    -0.032 A 
ATOM     29  C   UNL     1       4.161 137.790 355.086  0.00  0.00    +0.005 A 
ATOM     30  C   UNL     1       4.058 139.151 354.866  0.00  0.00    +0.010 A 
ATOM     31  C   UNL     1       4.382 139.701 353.629  0.00  0.00    +0.001 A 
BRANCH  31  32
ATOM     32  C   UNL     1       4.090 141.142 353.390  0.00  0.00    -0.017 A 
ATOM     33  C   UNL     1       5.023 141.972 352.773  0.00  0.00    +0.008 A 
ATOM     34  C   UNL     1       4.745 143.311 352.556  0.00  0.00    +0.001 A 
ATOM     35  C   UNL     1       3.535 143.841 352.945  0.00  0.00    +0.000 A 
ATOM     36  C   UNL     1       2.599 143.035 353.549  0.00  0.00    +0.001 A 
ATOM     37  C   UNL     1       2.870 141.696 353.771  0.00  0.00    +0.008 A 
ENDBRANCH  31  32
ENDBRANCH   5   4
ENDBRANCH   6   5
ENDBRANCH   8   6
ENDBRANCH   9   8
ENDBRANCH  10   9
TORSDOF 11
