REMARK  Name = 3qrk_ligand
REMARK  8 active torsions:
REMARK  status: ('A' for Active; 'I' for Inactive)
REMARK    1  A    between atoms: N1_2  and  C6_16
REMARK    2  A    between atoms: N2_6  and  C8_18
REMARK    3  A    between atoms: N4_13  and  C16_26
REMARK    4  A    between atoms: C10_20  and  C11_21
REMARK    5  A    between atoms: C11_21  and  C12_22
REMARK    6  A    between atoms: C11_21  and  C13_23
REMARK    7  A    between atoms: C11_21  and  C14_24
REMARK    8  A    between atoms: C22_32  and  C24_34
REMARK                            x       y       z     vdW  Elec       q    Type
REMARK                         _______ _______ _______ _____ _____    ______ ____
ROOT
ATOM     11  C   UNL     1      19.648  23.727  12.492  0.00  0.00    +0.219 A 
ATOM     12  C   UNL     1      18.957  24.563  13.376  0.00  0.00    +0.003 A 
ATOM     13  C   UNL     1      19.935  25.448  13.845  0.00  0.00    -0.004 A 
ATOM     18  N   UNL     1      21.173  25.217  13.341  0.00  0.00    -0.167 NA
ATOM     19  N   UNL     1      20.934  24.113  12.510  0.00  0.00    -0.108 N 
ENDROOT
BRANCH  19  20
ATOM     20  C   UNL     1      21.968  23.620  11.824  0.00  0.00    +0.116 A 
ATOM     21  C   UNL     1      21.981  23.444  10.434  0.00  0.00    +0.028 A 
ATOM     22  C   UNL     1      23.084  22.983   9.733  0.00  0.00    -0.029 A 
ATOM     23  C   UNL     1      22.955  22.824   8.228  0.00  0.00    +0.130 C 
ATOM     24  CA  UNL     1      24.127  22.068   7.605  0.00  0.00    +0.145 C 
ATOM     28  N   UNL     1      25.333  22.363   8.357  0.00  0.00    +0.253 N 
ATOM     29  H1  UNL     1      25.515  23.343   8.208  0.00  0.00    +0.204 HD
ATOM     30  H2  UNL     1      26.063  21.817   7.927  0.00  0.00    +0.204 HD
ATOM     31  C   UNL     1      25.472  22.151   9.782  0.00  0.00    +0.190 C 
ATOM     32  C   UNL     1      24.229  22.679  10.443  0.00  0.00    +0.001 A 
ATOM     33  C   UNL     1      24.265  22.856  11.809  0.00  0.00    -0.008 A 
ATOM     34  C   UNL     1      23.156  23.309  12.483  0.00  0.00    +0.021 A 
BRANCH  24  25
ATOM     25  C   UNL     1      24.385  22.470   6.167  0.00  0.00    +0.086 C 
ATOM     26  OXT UNL     1      23.581  22.242   5.224  0.00  0.00    -0.564 OA
ATOM     27  O   UNL     1      25.468  23.055   5.973  0.00  0.00    -0.564 OA
ENDBRANCH  24  25
ENDBRANCH  19  20
BRANCH  11   9
ATOM      6  N   UNL     1      17.713  21.349  10.734  0.00  0.00    -0.213 N 
ATOM      7  H   UNL     1      18.477  20.768  10.452  0.00  0.00    +0.227 HD
ATOM      8  C   UNL     1      18.007  22.446  11.454  0.00  0.00    +0.324 C 
ATOM      9  N   UNL     1      19.289  22.658  11.767  0.00  0.00    -0.179 N 
ATOM     10  H   UNL     1      19.987  22.013  11.457  0.00  0.00    +0.234 HD
ATOM     35  O   UNL     1      17.135  23.251  11.786  0.00  0.00    -0.379 OA
BRANCH   6   5
ATOM      1  C   UNL     1      14.947  19.020  10.059  0.00  0.00    +0.041 A 
ATOM      2  C   UNL     1      13.935  19.890   9.666  0.00  0.00    -0.014 A 
ATOM      3  C   UNL     1      14.188  21.272   9.620  0.00  0.00    -0.017 A 
ATOM      4  C   UNL     1      15.429  21.819   9.959  0.00  0.00    +0.010 A 
ATOM      5  C   UNL     1      16.454  20.960  10.354  0.00  0.00    +0.082 A 
ATOM     36  C   UNL     1      16.168  19.597  10.390  0.00  0.00    +0.073 A 
ATOM     37 CL   UNL     1      17.492  18.577  10.916  0.00  0.00    -0.083 Cl
ATOM     38 CL   UNL     1      14.668  17.221  10.110  0.00  0.00    -0.074 Cl
ENDBRANCH   6   5
ENDBRANCH  11   9
BRANCH  13  14
ATOM     14  C   UNL     1      19.634  26.572  14.815  0.00  0.00    -0.046 C 
ATOM     15  C   UNL     1      20.825  27.490  15.004  0.00  0.00    -0.047 C 
ATOM     16  C   UNL     1      18.511  27.432  14.246  0.00  0.00    -0.047 C 
ATOM     17  C   UNL     1      19.242  25.995  16.171  0.00  0.00    -0.047 C 
ENDBRANCH  13  14
TORSDOF 5
