REMARK  Name = 3HMI
REMARK  7 active torsions:
REMARK  status: ('A' for Active; 'I' for Inactive)
REMARK    1  A    between atoms: C_8  and  N_9
REMARK    2  A    between atoms: N_9  and  C_10
REMARK    3  A    between atoms: C_10  and  S_11
REMARK    4  A    between atoms: C_10  and  N_12
REMARK    5  A    between atoms: N_18  and  C_19
REMARK    6  A    between atoms: C_24  and  S_25
REMARK    7  A    between atoms: S_25  and  N_28
REMARK                            x       y       z     vdW  Elec       q    Type
REMARK                         _______ _______ _______ _____ _____    ______ ____
ROOT
ATOM      7  N   UNL     1     -30.859   9.527 -12.879  0.00  0.00    -0.224 N 
ATOM      8  C   UNL     1     -31.770  10.488 -12.645  0.00  0.00    +0.213 A 
ATOM      9  N   UNL     1     -32.481  10.584 -13.760  0.00  0.00    -0.178 NA
ATOM     10  C   UNL     1     -31.927   9.735 -14.640  0.00  0.00    +0.247 A 
ATOM     11  N   UNL     1     -32.390   9.580 -15.891  0.00  0.00    -0.212 NA
ATOM     24  N   UNL     1     -32.011  11.208 -11.516  0.00  0.00    -0.328 N 
ATOM     25  H   UNL     1     -32.787  11.944 -11.507  0.00  0.00    +0.145 HD
ATOM     26  H   UNL     1     -31.424  11.038 -10.638  0.00  0.00    +0.145 HD
ATOM     27  N   UNL     1     -30.892   9.106 -14.077  0.00  0.00    -0.260 N 
ATOM     28  H   UNL     1     -30.233   8.399 -14.536  0.00  0.00    +0.190 HD
ENDROOT
BRANCH  11  12
ATOM     12  C   UNL     1     -31.976   8.658 -16.835  0.00  0.00    +0.068 A 
ATOM     13  C   UNL     1     -30.801   7.919 -16.845  0.00  0.00    +0.030 A 
ATOM     14  C   UNL     1     -30.519   7.014 -17.892  0.00  0.00    +0.030 A 
ATOM     15  C   UNL     1     -31.426   6.885 -18.942  0.00  0.00    +0.105 A 
ATOM     22  C   UNL     1     -32.568   7.613 -18.952  0.00  0.00    +0.030 A 
ATOM     23  C   UNL     1     -32.833   8.501 -17.925  0.00  0.00    +0.030 A 
BRANCH  15  16
ATOM     16  S   UNL     1     -31.179   5.780 -20.275  0.00  0.00    +0.056 S 
ATOM     20  O   UNL     1     -32.403   4.926 -20.292  0.00  0.00    -0.153 OA
ATOM     21  O   UNL     1     -29.962   5.015 -20.011  0.00  0.00    -0.153 OA
BRANCH  16  17
ATOM     17  N   UNL     1     -31.064   6.534 -21.743  0.00  0.00    -0.203 NA
ATOM     18  H   UNL     1     -31.966   7.075 -21.938  0.00  0.00    +0.144 HD
ATOM     19  H   UNL     1     -30.237   7.213 -21.732  0.00  0.00    +0.144 HD
ENDBRANCH  16  17
ENDBRANCH  15  16
ENDBRANCH  11  12
BRANCH   7   6
ATOM      6  C   UNL     1     -29.699   9.202 -12.097  0.00  0.00    +0.249 C 
BRANCH   6   4
ATOM      4  N   UNL     1     -29.129   7.907 -12.362  0.00  0.00    -0.310 N 
ATOM      5  H   UNL     1     -29.555   7.291 -13.126  0.00  0.00    +0.149 HD
BRANCH   4   3
ATOM      1  F   UNL     1     -29.665   6.300 -10.439  0.00  0.00    -0.203 F 
ATOM      2  C   UNL     1     -28.361   6.582 -10.638  0.00  0.00    +0.147 A 
ATOM      3  C   UNL     1     -28.069   7.459 -11.665  0.00  0.00    +0.101 A 
ATOM     31  C   UNL     1     -26.736   7.757 -11.929  0.00  0.00    +0.147 A 
ATOM     32  F   UNL     1     -26.420   8.554 -12.944  0.00  0.00    -0.203 F 
ATOM     33  C   UNL     1     -25.714   7.215 -11.136  0.00  0.00    +0.040 A 
ATOM     34  C   UNL     1     -26.017   6.358 -10.078  0.00  0.00    +0.006 A 
ATOM     35  C   UNL     1     -27.358   6.050  -9.818  0.00  0.00    +0.040 A 
ENDBRANCH   4   3
ENDBRANCH   6   4
BRANCH   6  29
ATOM     29  S   UNL     1     -29.679   9.743 -10.365  0.00  0.00    -0.133 S 
ATOM     30  H   UNL     1     -30.371   8.873  -9.617  0.00  0.00    +0.105 HD
ENDBRANCH   6  29
ENDBRANCH   7   6
TORSDOF 7
