REMARK  Name = 3MJW
REMARK  5 active torsions:
REMARK  status: ('A' for Active; 'I' for Inactive)
REMARK    1  A    between atoms: C_1  and  O_3
REMARK    2  A    between atoms: O_3  and  C_4
REMARK    3  A    between atoms: O_10  and  C_26
REMARK    4  A    between atoms: O_12  and  C_24
REMARK    5  A    between atoms: C_15  and  C_20
REMARK                            x       y       z     vdW  Elec       q    Type
REMARK                         _______ _______ _______ _____ _____    ______ ____
ROOT
ATOM      3  C   UNL     1      47.132  13.291  29.904  0.00  0.00    +0.121 A 
ATOM      4  C   UNL     1      46.182  13.789  30.818  0.00  0.00    +0.056 A 
ATOM      5  C   UNL     1      46.435  14.987  31.532  0.00  0.00    +0.011 A 
ATOM      6  C   UNL     1      45.725  15.767  32.504  0.00  0.00    +0.008 A 
ATOM     22  C   UNL     1      46.488  16.878  32.800  0.00  0.00    +0.041 A 
ATOM     23  C   UNL     1      46.279  18.024  33.733  0.00  0.00    +0.135 C 
ATOM     24  N   UNL     1      47.447  18.958  33.947  0.00  0.00    -0.309 NA
ATOM     25  H   UNL     1      47.274  19.839  33.364  0.00  0.00    +0.122 HD
ATOM     26  C   UNL     1      48.798  18.414  33.571  0.00  0.00    +0.103 C 
ATOM     27  C   UNL     1      48.732  17.747  32.198  0.00  0.00    +0.137 C 
ATOM     28  N   UNL     1      47.649  16.780  32.076  0.00  0.00    -0.341 N 
ATOM     29  C   UNL     1      47.648  15.648  31.290  0.00  0.00    +0.050 A 
ATOM     30  C   UNL     1      48.614  15.147  30.395  0.00  0.00    +0.030 A 
ATOM     31  C   UNL     1      48.342  13.958  29.703  0.00  0.00    +0.048 A 
ENDROOT
BRANCH   6   7
ATOM      7  C   UNL     1      44.439  15.567  33.091  0.00  0.00    +0.060 C 
ATOM      8  C   UNL     1      43.436  14.754  32.727  0.00  0.00    +0.176 C 
ATOM      9  C   UNL     1      42.164  14.690  33.486  0.00  0.00    +0.235 C 
ATOM     10  C   UNL     1      41.383  13.694  32.756  0.00  0.00    +0.109 A 
ATOM     11  C   UNL     1      42.177  13.257  31.701  0.00  0.00    +0.146 A 
ATOM     12  C   UNL     1      41.733  12.305  30.807  0.00  0.00    +0.092 A 
ATOM     13  C   UNL     1      40.451  11.788  31.003  0.00  0.00    +0.124 A 
ATOM     14  C   UNL     1      39.632  12.226  32.069  0.00  0.00    +0.091 A 
ATOM     17  C   UNL     1      40.114  13.196  32.960  0.00  0.00    +0.135 A 
ATOM     20  O   UNL     1      41.845  15.317  34.469  0.00  0.00    -0.283 OA
ATOM     21  O   UNL     1      43.408  13.871  31.659  0.00  0.00    -0.451 OA
BRANCH  13  15
ATOM     15  O   UNL     1      39.965  10.842  30.134  0.00  0.00    -0.506 OA
ATOM     16  H   UNL     1      39.733   9.966  30.664  0.00  0.00    +0.292 HD
ENDBRANCH  13  15
BRANCH  17  18
ATOM     18  O   UNL     1      39.381  13.662  34.009  0.00  0.00    -0.506 OA
ATOM     19  H   UNL     1      39.888  13.463  34.907  0.00  0.00    +0.292 HD
ENDBRANCH  17  18
ENDBRANCH   6   7
BRANCH   3   2
ATOM      1  C   UNL     1      45.388  11.905  29.107  0.00  0.00    +0.277 C 
ATOM      2  O   UNL     1      46.775  12.131  29.279  0.00  0.00    -0.495 OA
ENDBRANCH   3   2
TORSDOF 4
