REMARK  Name = 3uok_ligand
REMARK  4 active torsions:
REMARK  status: ('A' for Active; 'I' for Inactive)
REMARK    1  A    between atoms: C07_7  and  N08_8
REMARK    2  A    between atoms: N08_8  and  C09_9
REMARK    3  A    between atoms: N15_14  and  C16_15
REMARK    4  A    between atoms: C19_18  and  C20_19
REMARK                            x       y       z     vdW  Elec       q    Type
REMARK                         _______ _______ _______ _____ _____    ______ ____
ROOT
ATOM      6  C   UNL     1      28.333   8.605  -9.822  0.00  0.00    +0.170 A 
ATOM      7  N   UNL     1      29.388   8.619 -10.652  0.00  0.00    -0.236 NA
ATOM      8  C   UNL     1      29.402   7.810 -11.735  0.00  0.00    +0.192 A 
ATOM      9  N   UNL     1      30.521   7.790 -12.626  0.00  0.00    -0.245 N 
ATOM     10  H   UNL     1      30.395   7.407 -13.563  0.00  0.00    +0.218 HD
ATOM     20  N   UNL     1      28.394   7.002 -12.047  0.00  0.00    -0.271 NA
ATOM     21  C   UNL     1      27.300   6.954 -11.250  0.00  0.00    +0.118 A 
ATOM     22  C   UNL     1      27.236   7.762 -10.107  0.00  0.00    +0.191 A 
ATOM     23  F   UNL     1      26.140   7.718  -9.313  0.00  0.00    -0.186 F 
ENDROOT
BRANCH   9  11
ATOM     11  C   UNL     1      31.877   8.312 -12.234  0.00  0.00    +0.068 A 
ATOM     12  C   UNL     1      32.965   8.006 -13.044  0.00  0.00    +0.020 A 
ATOM     13  C   UNL     1      34.226   8.478 -12.708  0.00  0.00    +0.005 A 
ATOM     14  C   UNL     1      34.417   9.272 -11.575  0.00  0.00    -0.002 A 
ATOM     18  C   UNL     1      33.330   9.583 -10.758  0.00  0.00    +0.005 A 
ATOM     19  C   UNL     1      32.067   9.107 -11.093  0.00  0.00    +0.020 A 
BRANCH  14  15
ATOM     15  C   UNL     1      35.819   9.736 -11.246  0.00  0.00    +0.055 C 
ATOM     16  O   UNL     1      36.776   9.112 -11.761  0.00  0.00    -0.564 OA
ATOM     17  O   UNL     1      36.048  10.692 -10.434  0.00  0.00    -0.564 OA
ENDBRANCH  14  15
ENDBRANCH   9  11
BRANCH   6   4
ATOM      4  N   UNL     1      28.299   9.455  -8.653  0.00  0.00    -0.255 N 
ATOM      5  H   UNL     1      27.669   9.193  -7.894  0.00  0.00    +0.216 HD
BRANCH   4   3
ATOM      1 CL   UNL     1      27.074  12.214  -9.467  0.00  0.00    -0.079 Cl
ATOM      2  C   UNL     1      28.626  11.937  -8.803  0.00  0.00    +0.063 A 
ATOM      3  C   UNL     1      29.100  10.658  -8.483  0.00  0.00    +0.077 A 
ATOM     24  C   UNL     1      30.375  10.527  -7.951  0.00  0.00    +0.016 A 
ATOM     25  C   UNL     1      31.172  11.642  -7.754  0.00  0.00    -0.012 A 
ATOM     26  C   UNL     1      30.702  12.907  -8.086  0.00  0.00    -0.021 A 
ATOM     27  C   UNL     1      29.425  13.048  -8.615  0.00  0.00    +0.002 A 
ENDBRANCH   4   3
ENDBRANCH   6   4
TORSDOF 4
