REMARK  Name = 3R73
REMARK  10 active torsions:
REMARK  status: ('A' for Active; 'I' for Inactive)
REMARK    1  A    between atoms: N_1  and  C_9
REMARK    2  A    between atoms: N_1  and  C_14
REMARK    3  A    between atoms: N_4  and  C_11
REMARK    4  A    between atoms: N_4  and  C_20
REMARK    5  A    between atoms: N_5  and  C_22
REMARK    6  A    between atoms: N_6  and  C_12
REMARK    7  A    between atoms: C_8  and  C_13
REMARK    8  A    between atoms: C_14  and  C_15
REMARK    9  A    between atoms: C_20  and  C_21
REMARK   10  A    between atoms: C_21  and  C_22
REMARK                            x       y       z     vdW  Elec       q    Type
REMARK                         _______ _______ _______ _____ _____    ______ ____
ROOT
ATOM     10  C   UNL     1      64.973  45.400 -11.955  0.00  0.00    +0.042 A 
ATOM     11  C   UNL     1      65.123  44.774 -10.669  0.00  0.00    +0.049 A 
ATOM     12  C   UNL     1      66.364  44.231 -10.242  0.00  0.00    +0.059 A 
ATOM     13  C   UNL     1      67.505  44.305 -11.115  0.00  0.00    +0.148 A 
ATOM     14  C   UNL     1      67.364  44.926 -12.400  0.00  0.00    +0.049 A 
ATOM     26  C   UNL     1      66.112  45.474 -12.833  0.00  0.00    +0.059 A 
ENDROOT
BRANCH  26  27
ATOM     27  C   UNL     1      66.031  46.061 -14.092  0.00  0.00    +0.243 C 
ATOM     28  O   UNL     1      65.253  46.962 -14.312  0.00  0.00    -0.270 OA
ATOM     29  N   UNL     1      66.824  45.613 -15.117  0.00  0.00    -0.325 N 
ATOM     30  H   UNL     1      66.757  46.068 -16.083  0.00  0.00    +0.145 HD
ATOM     31  H   UNL     1      67.509  44.808 -14.951  0.00  0.00    +0.145 HD
ENDBRANCH  26  27
BRANCH  13  15
ATOM     15  N   UNL     1      68.646  43.827 -10.767  0.00  0.00    +0.058 N 
ATOM     16  O   UNL     1      69.760  44.366 -11.223  0.00  0.00    -0.126 OA
ATOM     17  O   UNL     1      68.731  42.789  -9.957  0.00  0.00    -0.126 OA
ENDBRANCH  13  15
BRANCH  10   1
ATOM      1  N   UNL     1      63.820  45.897 -12.328  0.00  0.00    -0.339 N 
ATOM      2  H   UNL     1      63.787  46.457 -13.239  0.00  0.00    +0.146 HD
BRANCH   1   3
ATOM      3  C   UNL     1      62.547  45.732 -11.562  0.00  0.00    +0.138 C 
BRANCH   3   4
ATOM      4  C   UNL     1      62.425  46.771 -10.465  0.00  0.00    -0.012 A 
ATOM      5  C   UNL     1      62.677  48.148 -10.709  0.00  0.00    +0.008 A 
ATOM      6  C   UNL     1      62.558  49.093  -9.659  0.00  0.00    +0.020 A 
ATOM      7  C   UNL     1      62.185  48.620  -8.388  0.00  0.00    +0.111 A 
ATOM      8  N   UNL     1      61.933  47.287  -8.120  0.00  0.00    -0.263 NA
ATOM      9  C   UNL     1      62.058  46.391  -9.159  0.00  0.00    +0.115 A 
ENDBRANCH   3   4
ENDBRANCH   1   3
ENDBRANCH  10   1
BRANCH  12  18
ATOM     18  N   UNL     1      66.459  43.678  -9.075  0.00  0.00    -0.342 N 
ATOM     19  H   UNL     1      67.343  43.843  -8.496  0.00  0.00    +0.146 HD
BRANCH  18  20
ATOM     20  C   UNL     1      65.383  42.823  -8.513  0.00  0.00    +0.103 C 
BRANCH  20  21
ATOM     21  C   UNL     1      65.346  42.980  -6.997  0.00  0.00    +0.033 C 
BRANCH  21  22
ATOM     22  C   UNL     1      66.128  41.840  -6.351  0.00  0.00    +0.079 C 
BRANCH  22  23
ATOM     23  N   UNL     1      66.293  42.099  -4.943  0.00  0.00    -0.330 NA
ATOM     24  H   UNL     1      66.828  43.016  -4.809  0.00  0.00    +0.118 HD
ATOM     25  H   UNL     1      65.332  42.176  -4.479  0.00  0.00    +0.118 HD
ENDBRANCH  22  23
ENDBRANCH  21  22
ENDBRANCH  20  21
ENDBRANCH  18  20
ENDBRANCH  12  18
TORSDOF 10
