REMARK  Name = 3E7V
REMARK  4 active torsions:
REMARK  status: ('A' for Active; 'I' for Inactive)
REMARK    1  A    between atoms: C_2  and  N_12
REMARK    2  A    between atoms: C_3  and  C_18
REMARK    3  A    between atoms: C_11  and  N_12
REMARK    4  A    between atoms: C_23  and  N_24
REMARK                            x       y       z     vdW  Elec       q    Type
REMARK                         _______ _______ _______ _____ _____    ______ ____
ROOT
ATOM      1  C   UNL     1       8.475 -15.984 -11.942  0.00  0.00    +0.114 A 
ATOM      2  N   UNL     1       9.004 -16.023 -13.169  0.00  0.00    -0.298 N 
ATOM      3  H   UNL     1       8.642 -16.635 -13.969  0.00  0.00    +0.187 HD
ATOM      4  N   UNL     1       9.984 -15.242 -13.254  0.00  0.00    -0.244 N 
ATOM      5  C   UNL     1      10.844 -14.912 -14.312  0.00  0.00    +0.112 C 
ATOM      6  C   UNL     1      11.815 -13.923 -14.129  0.00  0.00    +0.046 C 
ATOM      7  C   UNL     1      11.937 -13.279 -12.898  0.00  0.00    +0.193 C 
ATOM      8  N   UNL     1      11.101 -13.611 -11.894  0.00  0.00    -0.231 NA
ATOM     18  C   UNL     1      10.155 -14.582 -12.035  0.00  0.00    +0.159 A 
ATOM     19  C   UNL     1       9.157 -15.106 -11.204  0.00  0.00    +0.043 A 
ENDROOT
BRANCH  19  20
ATOM     20  C   UNL     1       8.921 -14.656  -9.898  0.00  0.00    -0.011 A 
ATOM     21  C   UNL     1       9.954 -14.240  -9.061  0.00  0.00    +0.009 A 
ATOM     22  C   UNL     1       9.702 -13.743  -7.791  0.00  0.00    +0.002 A 
ATOM     23  C   UNL     1       8.394 -13.639  -7.359  0.00  0.00    +0.023 A 
ATOM     24  C   UNL     1       7.324 -13.979  -8.193  0.00  0.00    +0.025 A 
ATOM     28  C   UNL     1       7.603 -14.500  -9.459  0.00  0.00    +0.031 A 
BRANCH  24  25
ATOM     25  N   UNL     1       6.056 -13.835  -7.741  0.00  0.00    -0.358 N 
ATOM     26  H   UNL     1       5.878 -13.432  -6.766  0.00  0.00    +0.142 HD
ATOM     27  H   UNL     1       5.232 -14.124  -8.359  0.00  0.00    +0.142 HD
ENDBRANCH  24  25
ENDBRANCH  19  20
BRANCH   7   9
ATOM      9  N   UNL     1      12.910 -12.342 -12.784  0.00  0.00    -0.314 N 
ATOM     10  H   UNL     1      13.594 -12.280 -13.604  0.00  0.00    +0.149 HD
BRANCH   9  11
ATOM     11  C   UNL     1      13.130 -11.472 -11.764  0.00  0.00    +0.030 A 
ATOM     12  C   UNL     1      14.106 -10.486 -11.978  0.00  0.00    +0.023 A 
ATOM     13  C   UNL     1      14.414  -9.560 -10.987  0.00  0.00    +0.003 A 
ATOM     14  C   UNL     1      13.760  -9.618  -9.764  0.00  0.00    +0.020 A 
ATOM     15  C   UNL     1      12.787 -10.584  -9.535  0.00  0.00    +0.043 A 
ATOM     16 CL   UNL     1      11.961 -10.616  -8.021  0.00  0.00    -0.084 Cl
ATOM     17  C   UNL     1      12.471 -11.511 -10.518  0.00  0.00    +0.043 A 
ENDBRANCH   9  11
ENDBRANCH   7   9
TORSDOF 4
