REMARK  Name = 3zh8_ligand
REMARK  6 active torsions:
REMARK  status: ('A' for Active; 'I' for Inactive)
REMARK    1  A    between atoms: C_1  and  N_2
REMARK    2  A    between atoms: C_1  and  C1_4
REMARK    3  A    between atoms: C_1  and  C17_24
REMARK    4  A    between atoms: C1_4  and  N1_5
REMARK    5  A    between atoms: C3_8  and  C12_19
REMARK    6  A    between atoms: C17_24  and  C18_25
REMARK                            x       y       z     vdW  Elec       q    Type
REMARK                         _______ _______ _______ _____ _____    ______ ____
ROOT
ATOM     10  N   UNL     1      17.415  16.150  13.155  0.00  0.00    -0.296 N 
ATOM     11  H   UNL     1      17.374  15.205  12.748  0.00  0.00    +0.186 HD
ATOM     12  C   UNL     1      17.348  17.215  12.346  0.00  0.00    +0.122 A 
ATOM     13  C   UNL     1      17.122  17.087  10.942  0.00  0.00    +0.042 A 
ATOM     14  C   UNL     1      16.989  15.954  10.030  0.00  0.00    -0.036 A 
ATOM     15  C   UNL     1      17.125  14.505  10.384  0.00  0.00    +0.035 C 
ATOM     16  C   UNL     1      16.536  13.628   9.294  0.00  0.00    +0.010 C 
ATOM     17  C   UNL     1      16.992  14.039   7.911  0.00  0.00    +0.017 C 
ATOM     18  C   UNL     1      16.550  15.451   7.579  0.00  0.00    +0.078 C 
ATOM     19  C   UNL     1      16.757  16.350   8.759  0.00  0.00    +0.018 A 
ATOM     20  S   UNL     1      16.700  18.079   8.565  0.00  0.00    -0.019 S 
ATOM     21  C   UNL     1      17.001  18.301  10.265  0.00  0.00    +0.103 A 
ATOM     22  N   UNL     1      17.111  19.520  10.790  0.00  0.00    -0.275 NA
ATOM     23  C   UNL     1      17.365  19.522  12.105  0.00  0.00    +0.101 A 
ATOM     30  N   UNL     1      17.465  18.440  12.885  0.00  0.00    -0.263 NA
ENDROOT
BRANCH  23  24
ATOM     24  C   UNL     1      17.631  20.838  12.739  0.00  0.00    +0.028 A 
ATOM     25  C   UNL     1      17.983  20.935  14.080  0.00  0.00    +0.051 A 
ATOM     26  C   UNL     1      18.254  22.177  14.617  0.00  0.00    +0.095 A 
ATOM     27  N   UNL     1      18.201  23.314  13.920  0.00  0.00    -0.296 NA
ATOM     28  C   UNL     1      17.858  23.214  12.634  0.00  0.00    +0.095 A 
ATOM     29  C   UNL     1      17.565  22.019  12.009  0.00  0.00    +0.051 A 
ENDBRANCH  23  24
BRANCH  10   9
ATOM      9  C   UNL     1      17.544  16.300  14.598  0.00  0.00    +0.191 C 
BRANCH   9   1
ATOM      1  C   UNL     1      16.210  16.805  15.243  0.00  0.00    +0.095 C 
BRANCH   1  31
ATOM     31  N   UNL     1      15.099  15.950  14.799  0.00  0.00    +0.224 N 
ATOM     32  H   UNL     1      15.271  14.999  15.087  0.00  0.00    +0.200 HD
ATOM     33  H   UNL     1      14.239  16.276  15.211  0.00  0.00    +0.200 HD
ATOM     34  H   UNL     1      15.026  15.989  13.794  0.00  0.00    +0.200 HD
ENDBRANCH   1  31
BRANCH   1   2
ATOM      2  C   UNL     1      16.390  16.801  16.779  0.00  0.00    +0.122 C 
BRANCH   2   3
ATOM      3  C   UNL     1      17.476  17.756  17.207  0.00  0.00    -0.038 A 
ATOM      4  C   UNL     1      17.172  19.059  17.570  0.00  0.00    -0.004 A 
ATOM      5  C   UNL     1      18.168  19.936  17.962  0.00  0.00    -0.009 A 
ATOM      6  C   UNL     1      19.479  19.522  17.998  0.00  0.00    -0.013 A 
ATOM      7  C   UNL     1      19.796  18.232  17.642  0.00  0.00    -0.009 A 
ATOM      8  C   UNL     1      18.800  17.354  17.248  0.00  0.00    -0.004 A 
ENDBRANCH   2   3
ENDBRANCH   1   2
ENDBRANCH   9   1
ENDBRANCH  10   9
TORSDOF 6
