REMARK  Name = 5T68
REMARK  3 active torsions:
REMARK  status: ('A' for Active; 'I' for Inactive)
REMARK    1  A    between atoms: C_9  and  N_22
REMARK    2  A    between atoms: C_11  and  C_17
REMARK    3  A    between atoms: C_16  and  N_23
REMARK                            x       y       z     vdW  Elec       q    Type
REMARK                         _______ _______ _______ _____ _____    ______ ____
ROOT
ATOM     11  N   UNL     1      24.875  -1.621  -8.525  0.00  0.00    -0.283 N 
ATOM     12  H   UNL     1      24.137  -1.398  -7.783  0.00  0.00    +0.155 HD
ATOM     13  C   UNL     1      25.190  -0.575  -9.409  0.00  0.00    +0.222 A 
ATOM     14  N   UNL     1      26.368  -0.606 -10.039  0.00  0.00    -0.196 NA
ATOM     15  C   UNL     1      26.772   0.382 -10.848  0.00  0.00    +0.167 A 
ATOM     16  N   UNL     1      28.015   0.300 -11.496  0.00  0.00    -0.323 N 
ATOM     17  H   UNL     1      28.516   1.161 -11.888  0.00  0.00    +0.148 HD
ATOM     21  C   UNL     1      25.876   1.420 -10.996  0.00  0.00    +0.193 A 
ATOM     22  O   UNL     1      25.979   2.541 -11.762  0.00  0.00    -0.458 OA
ATOM     23  C   UNL     1      24.830   3.255 -11.599  0.00  0.00    +0.198 A 
ATOM     24  C   UNL     1      23.983   2.606 -10.734  0.00  0.00    +0.069 A 
ATOM     25  C   UNL     1      24.659   1.420 -10.349  0.00  0.00    +0.116 A 
ATOM     26  N   UNL     1      24.299   0.420  -9.519  0.00  0.00    -0.211 NA
ENDROOT
BRANCH  11  10
ATOM      1  C   UNL     1      25.098  -5.133  -7.539  0.00  0.00    +0.013 A 
ATOM      2  C   UNL     1      26.209  -5.540  -8.263  0.00  0.00    +0.022 A 
ATOM      3  C   UNL     1      26.896  -6.769  -8.432  0.00  0.00    +0.067 A 
ATOM      4  N   UNL     1      27.941  -6.659  -9.261  0.00  0.00    -0.178 NA
ATOM      5  N   UNL     1      27.920  -5.357  -9.602  0.00  0.00    -0.277 N 
ATOM      6  H   UNL     1      28.648  -4.918 -10.252  0.00  0.00    +0.189 HD
ATOM      7  C   UNL     1      26.550  -8.060  -7.815  0.00  0.00    +0.068 C 
ATOM      8  C   UNL     1      26.894  -4.639  -9.052  0.00  0.00    +0.068 A 
ATOM      9  C   UNL     1      26.526  -3.319  -9.197  0.00  0.00    +0.051 A 
ATOM     10  C   UNL     1      25.404  -2.922  -8.489  0.00  0.00    +0.036 A 
ATOM     27  C   UNL     1      24.735  -3.811  -7.674  0.00  0.00    +0.024 A 
ENDBRANCH  11  10
BRANCH  16  18
ATOM     18  C   UNL     1      28.580  -1.059 -11.597  0.00  0.00    +0.072 C 
ATOM     19  C   UNL     1      27.972  -2.139 -12.450  0.00  0.00    +0.024 C 
ATOM     20  C   UNL     1      29.305  -1.558 -12.812  0.00  0.00    +0.024 C 
ENDBRANCH  16  18
TORSDOF 2
