REMARK  Name = 4k6z_ligand
REMARK  3 active torsions:
REMARK  status: ('A' for Active; 'I' for Inactive)
REMARK    1  A    between atoms: C11_10  and  C13_12
REMARK    2  A    between atoms: N19_17  and  C20_18
REMARK    3  A    between atoms: C24_22  and  C25_23
REMARK                            x       y       z     vdW  Elec       q    Type
REMARK                         _______ _______ _______ _____ _____    ______ ____
ROOT
ATOM      1  C   UNL     1      26.551   6.399   1.970  0.00  0.00    -0.010 A 
ATOM      2  C   UNL     1      26.377   5.072   1.389  0.00  0.00    +0.033 A 
ATOM      3  C   UNL     1      25.202   4.242   1.344  0.00  0.00    +0.125 A 
ATOM      4  N   UNL     1      23.974   4.354   1.868  0.00  0.00    -0.296 N 
ATOM      5  H   UNL     1      23.360   3.616   1.494  0.00  0.00    +0.186 HD
ATOM     13  N   UNL     1      25.213   3.019   0.802  0.00  0.00    -0.266 NA
ATOM     14  C   UNL     1      26.350   2.530   0.322  0.00  0.00    +0.082 A 
ATOM     21  N   UNL     1      27.520   3.171   0.280  0.00  0.00    -0.287 NA
ATOM     22  C   UNL     1      27.530   4.417   0.790  0.00  0.00    +0.112 A 
ATOM     23  C   UNL     1      28.864   5.108   0.767  0.00  0.00    +0.243 A 
ATOM     24  O   UNL     1      29.907   4.628   0.323  0.00  0.00    -0.388 OA
ATOM     25  N   UNL     1      28.907   6.421   1.369  0.00  0.00    -0.224 N 
ATOM     26  H   UNL     1      29.775   6.918   1.375  0.00  0.00    +0.249 HD
ATOM     27  C   UNL     1      27.813   7.009   1.928  0.00  0.00    +0.161 A 
ENDROOT
BRANCH  14  15
ATOM     15  C   UNL     1      26.190   1.160  -0.077  0.00  0.00    +0.031 A 
ATOM     16  C   UNL     1      25.020   0.366   0.150  0.00  0.00    +0.178 A 
ATOM     17  N   UNL     1      25.225  -0.887  -0.231  0.00  0.00    -0.213 N 
ATOM     18  H   UNL     1      24.559  -1.671  -0.179  0.00  0.00    +0.262 HD
ATOM     19  N   UNL     1      26.489  -0.919  -0.701  0.00  0.00    -0.213 NA
ATOM     20  C   UNL     1      27.085   0.275  -0.641  0.00  0.00    +0.080 A 
ENDBRANCH  14  15
BRANCH   4   6
ATOM      6  C   UNL     1      23.246   5.182   2.789  0.00  0.00    +0.126 C 
ATOM      7  C   UNL     1      23.052   4.439   4.168  0.00  0.00    +0.168 C 
ATOM     10  C   UNL     1      22.048   3.358   3.894  0.00  0.00    +0.034 C 
ATOM     11  C   UNL     1      21.012   4.254   3.223  0.00  0.00    +0.005 C 
ATOM     12  C   UNL     1      21.786   5.223   2.308  0.00  0.00    +0.031 C 
BRANCH   7   8
ATOM      8  C   UNL     1      24.279   3.932   4.796  0.00  0.00    +0.095 C 
ATOM      9  N   UNL     1      25.226   3.586   5.322  0.00  0.00    -0.303 NA
ENDBRANCH   7   8
ENDBRANCH   4   6
TORSDOF 3
