REMARK  Name = 1w7h_ligand
REMARK  3 active torsions:
REMARK  status: ('A' for Active; 'I' for Inactive)
REMARK    1  A    between atoms: C7_7  and  O8_8
REMARK    2  A    between atoms: O8_8  and  C9_9
REMARK    3  A    between atoms: C9_9  and  C10_10
REMARK                            x       y       z     vdW  Elec       q    Type
REMARK                         _______ _______ _______ _____ _____    ______ ____
ROOT
ATOM      1  N   UNL     1      20.813  34.398  31.528  0.00  0.00    -0.325 N 
ATOM      2  H   UNL     1      21.009  35.310  31.965  0.00  0.00    +0.173 HD
ATOM      3  H   UNL     1      19.998  33.846  31.832  0.00  0.00    +0.173 HD
ATOM      4  C   UNL     1      21.646  33.914  30.530  0.00  0.00    +0.140 A 
ATOM      5  C   UNL     1      21.383  32.613  29.901  0.00  0.00    +0.140 A 
ATOM     14  C   UNL     1      22.330  32.176  28.849  0.00  0.00    +0.036 A 
ATOM     15  C   UNL     1      23.470  33.026  28.478  0.00  0.00    -0.001 A 
ATOM     16  C   UNL     1      23.630  34.294  29.167  0.00  0.00    +0.051 A 
ATOM     17  N   UNL     1      22.727  34.677  30.147  0.00  0.00    -0.297 NA
ENDROOT
BRANCH   5   6
ATOM      6  O   UNL     1      20.252  31.883  30.344  0.00  0.00    -0.303 OA
BRANCH   6   7
ATOM      7  C   UNL     1      19.541  30.911  29.490  0.00  0.00    +0.259 C 
BRANCH   7   8
ATOM      8  C   UNL     1      18.104  30.771  30.004  0.00  0.00    -0.013 A 
ATOM      9  C   UNL     1      17.749  29.757  31.021  0.00  0.00    -0.002 A 
ATOM     10  C   UNL     1      16.356  29.635  31.532  0.00  0.00    -0.009 A 
ATOM     11  C   UNL     1      15.293  30.543  31.016  0.00  0.00    -0.013 A 
ATOM     12  C   UNL     1      15.659  31.548  30.002  0.00  0.00    -0.009 A 
ATOM     13  C   UNL     1      17.035  31.657  29.508  0.00  0.00    -0.002 A 
ENDBRANCH   7   8
ENDBRANCH   6   7
ENDBRANCH   5   6
TORSDOF 3
