REMARK  Name = 3pxq_ligand
REMARK  3 active torsions:
REMARK  status: ('A' for Active; 'I' for Inactive)
REMARK    1  A    between atoms: C1_1  and  N_9
REMARK    2  A    between atoms: N_9  and  C11_13
REMARK    3  A    between atoms: S_10  and  C9_11
REMARK                            x       y       z     vdW  Elec       q    Type
REMARK                         _______ _______ _______ _____ _____    ______ ____
ROOT
ATOM      1  C   UNL     1     104.944  95.390  28.975  0.00  0.00    +0.073 A 
ATOM      2  C   UNL     1     105.763  96.600  28.906  0.00  0.00    +0.033 A 
ATOM      3  C   UNL     1     106.792  96.852  27.890  0.00  0.00    +0.059 A 
ATOM      8  C   UNL     1     107.541  98.060  27.918  0.00  0.00    +0.018 A 
ATOM      9  C   UNL     1     107.310  99.030  28.911  0.00  0.00    -0.002 A 
ATOM     10  C   UNL     1     106.320  98.823  29.900  0.00  0.00    +0.000 A 
ATOM     11  C   UNL     1     105.542  97.636  29.921  0.00  0.00    -0.026 A 
ATOM     12  C   UNL     1     104.549  97.448  30.922  0.00  0.00    -0.023 A 
ATOM     13  C   UNL     1     103.766  96.276  30.968  0.00  0.00    -0.019 A 
ATOM     22  C   UNL     1     103.958  95.259  30.018  0.00  0.00    +0.007 A 
ENDROOT
BRANCH   3   4
ATOM      4  S   UNL     1     107.163  95.697  26.562  0.00  0.00    -0.162 S 
ATOM      5  O   UNL     1     108.376  96.287  25.640  0.00  0.00    -0.479 OA
ATOM      6  O   UNL     1     107.559  94.399  27.090  0.00  0.00    -0.479 OA
ATOM      7  O   UNL     1     105.973  95.528  25.748  0.00  0.00    -0.479 OA
ENDBRANCH   3   4
BRANCH   1  14
ATOM     14  N   UNL     1     105.130  94.442  28.095  0.00  0.00    -0.271 N 
ATOM     15  H   UNL     1     106.109  94.285  27.815  0.00  0.00    +0.212 HD
BRANCH  14  16
ATOM     16  C   UNL     1     104.252  93.665  27.520  0.00  0.00    +0.060 A 
ATOM     17  C   UNL     1     104.638  92.325  27.242  0.00  0.00    +0.014 A 
ATOM     18  C   UNL     1     103.736  91.428  26.602  0.00  0.00    -0.013 A 
ATOM     19  C   UNL     1     102.444  91.867  26.235  0.00  0.00    -0.022 A 
ATOM     20  C   UNL     1     102.044  93.201  26.503  0.00  0.00    -0.013 A 
ATOM     21  C   UNL     1     102.939  94.104  27.140  0.00  0.00    +0.014 A 
ENDBRANCH  14  16
ENDBRANCH   1  14
TORSDOF 3
