REMARK  Name = 6HMB
REMARK  2 active torsions:
REMARK  status: ('A' for Active; 'I' for Inactive)
REMARK    1  A    between atoms: C5_5  and  C23_23
REMARK    2  A    between atoms: N15_15  and  C16_16
REMARK                            x       y       z     vdW  Elec       q    Type
REMARK                         _______ _______ _______ _____ _____    ______ ____
ROOT
ATOM      1  C   UNL     1      43.970  31.567   9.150  0.00  0.00    +0.000 A 
ATOM      2  N   UNL     1      42.699  31.109   8.956  0.00  0.00    -0.380 NA
ATOM      3  C   UNL     1      41.921  30.859   9.988  0.00  0.00    +0.430 A 
ATOM      4  N   UNL     1      40.585  30.413   9.813  0.00  0.00    -0.350 NA
ATOM     12  C   UNL     1      42.349  31.073  11.321  0.00  0.00    +0.000 A 
ATOM     13  C   UNL     1      41.547  30.773  12.430  0.00  0.00    -0.130 A 
ATOM     14  C   UNL     1      41.998  31.046  13.709  0.00  0.00    +0.250 A 
ATOM     15  N   UNL     1      43.204  31.570  13.912  0.00  0.00    -0.760 NA
ATOM     16  C   UNL     1      44.004  31.834  12.884  0.00  0.00    +0.250 A 
ATOM     17  C   UNL     1      43.606  31.614  11.551  0.00  0.00    +0.000 A 
ATOM     18  C   UNL     1      44.755  31.760   8.010  0.00  0.00    -0.130 A 
ATOM     19  C   UNL     1      46.030  32.278   8.153  0.00  0.00    +0.000 A 
ATOM     23  C   UNL     1      46.530  32.576   9.423  0.00  0.00    -0.130 A 
ATOM     24  C   UNL     1      45.768  32.355  10.555  0.00  0.00    -0.130 A 
ATOM     25  C   UNL     1      44.453  31.870  10.424  0.00  0.00    +0.000 A 
ENDROOT
BRANCH   4   5
ATOM      5  C   UNL     1      39.963  30.031   8.574  0.00  0.00    +0.050 A 
ATOM      6  C   UNL     1      38.590  30.119   8.486  0.00  0.00    -0.130 A 
ATOM      7  C   UNL     1      37.922  29.708   7.348  0.00  0.00    -0.130 A 
ATOM      8  C   UNL     1      38.637  29.221   6.280  0.00  0.00    -0.130 A 
ATOM      9  C   UNL     1      40.010  29.125   6.391  0.00  0.00    +0.200 A 
ATOM     10 CL   UNL     1      40.951  28.497   5.033  0.00  0.00    -0.200 Cl
ATOM     11  C   UNL     1      40.685  29.521   7.526  0.00  0.00    -0.130 A 
ENDBRANCH   4   5
BRANCH  19  20
ATOM     20  C   UNL     1      46.884  32.570   6.935  0.00  0.00    +0.200 C 
ATOM     21  O   UNL     1      47.817  33.411   7.088  0.00  0.00    -0.600 OA
ATOM     22  O   UNL     1      46.605  32.017   5.849  0.00  0.00    -0.600 OA
ENDBRANCH  19  20
TORSDOF 2
