REMARK  Name = 1QPD
REMARK  5 active torsions:
REMARK  status: ('A' for Active; 'I' for Inactive)
REMARK    1  A    between atoms: C_4  and  N_34
REMARK    2  A    between atoms: C_5  and  O_32
REMARK    3  A    between atoms: C_6  and  C_7
REMARK    4  A    between atoms: O_32  and  C_33
REMARK    5  A    between atoms: N_34  and  C_35
REMARK                            x       y       z     vdW  Elec       q    Type
REMARK                         _______ _______ _______ _____ _____    ______ ____
ROOT
ATOM      1  O   UNL     1      26.535  40.495  85.876  0.00  0.00    -0.328 OA
ATOM      2  C   UNL     1      25.305  41.210  85.651  0.00  0.00    +0.174 C 
ATOM      3  N   UNL     1      24.278  40.197  85.248  0.00  0.00    -0.307 N 
ATOM      4  C   UNL     1      22.898  40.224  85.534  0.00  0.00    +0.053 A 
ATOM      5  C   UNL     1      22.083  41.046  86.257  0.00  0.00    +0.026 A 
ATOM      6  C   UNL     1      20.716  40.769  86.371  0.00  0.00    +0.002 A 
ATOM      7  C   UNL     1      20.171  39.651  85.714  0.00  0.00    +0.001 A 
ATOM      8  C   UNL     1      20.985  38.816  84.968  0.00  0.00    +0.010 A 
ATOM      9  C   UNL     1      22.339  39.076  84.853  0.00  0.00    +0.008 A 
ATOM     10  C   UNL     1      23.380  38.427  84.169  0.00  0.00    +0.015 A 
ATOM     11  C   UNL     1      23.475  37.277  83.341  0.00  0.00    -0.008 A 
ATOM     12  C   UNL     1      22.330  36.321  82.954  0.00  0.00    +0.141 C 
ATOM     13  N   UNL     1      23.082  35.431  82.089  0.00  0.00    -0.307 N 
ATOM     14  H   UNL     1      22.605  34.626  81.570  0.00  0.00    +0.149 HD
ATOM     15  C   UNL     1      24.394  35.657  81.967  0.00  0.00    +0.245 C 
ATOM     16  O   UNL     1      25.212  35.024  81.341  0.00  0.00    -0.270 OA
ATOM     17  C   UNL     1      24.603  36.902  82.801  0.00  0.00    +0.052 A 
ATOM     18  C   UNL     1      25.858  37.605  82.996  0.00  0.00    +0.022 A 
ATOM     19  C   UNL     1      27.220  37.488  82.579  0.00  0.00    +0.009 A 
ATOM     20  C   UNL     1      27.892  36.595  81.781  0.00  0.00    +0.010 A 
ATOM     21  C   UNL     1      29.269  36.771  81.567  0.00  0.00    +0.001 A 
ATOM     22  C   UNL     1      29.958  37.837  82.165  0.00  0.00    +0.002 A 
ATOM     23  C   UNL     1      29.291  38.755  82.956  0.00  0.00    +0.026 A 
ATOM     24  C   UNL     1      27.911  38.565  83.172  0.00  0.00    +0.052 A 
ATOM     25  N   UNL     1      27.065  39.299  83.909  0.00  0.00    -0.312 N 
ATOM     26  C   UNL     1      25.764  38.773  83.853  0.00  0.00    +0.077 A 
ATOM     27  C   UNL     1      24.601  39.145  84.402  0.00  0.00    +0.077 A 
ATOM     28  C   UNL     1      24.993  41.810  86.999  0.00  0.00    +0.069 C 
ATOM     29  C   UNL     1      25.446  42.387  84.626  0.00  0.00    +0.187 C 
ATOM     32  C   UNL     1      26.945  42.806  84.728  0.00  0.00    +0.091 C 
ATOM     36  C   UNL     1      27.822  41.685  84.136  0.00  0.00    +0.076 C 
ATOM     37  C   UNL     1      27.502  40.339  84.840  0.00  0.00    +0.224 C 
ENDROOT
BRANCH  32  33
ATOM     33  N   UNL     1      27.204  44.135  83.925  0.00  0.00    -0.314 NA
ATOM     34  H   UNL     1      26.818  44.966  84.478  0.00  0.00    +0.122 HD
ATOM     35  C   UNL     1      28.684  44.317  83.715  0.00  0.00    +0.101 C 
ENDBRANCH  32  33
BRANCH  29  30
ATOM     30  O   UNL     1      25.269  41.898  83.285  0.00  0.00    -0.374 OA
ATOM     31  C   UNL     1      24.060  42.366  82.717  0.00  0.00    +0.194 C 
ENDBRANCH  29  30
TORSDOF 2
