REMARK  Name = 5HX8
REMARK  4 active torsions:
REMARK  status: ('A' for Active; 'I' for Inactive)
REMARK    1  A    between atoms: C_1  and  N_15
REMARK    2  A    between atoms: C_4  and  N_15
REMARK    3  A    between atoms: C_8  and  C_14
REMARK    4  A    between atoms: C_16  and  N_17
REMARK                            x       y       z     vdW  Elec       q    Type
REMARK                         _______ _______ _______ _____ _____    ______ ____
ROOT
ATOM      1  C   UNL     1       5.871  57.839   0.587  0.00  0.00    +0.045 C 
ATOM     13  C   UNL     1       6.518  58.988   0.001  0.00  0.00    +0.102 C 
ATOM     14  C   UNL     1       5.892  60.291   0.116  0.00  0.00    +0.261 C 
ATOM     15  N   UNL     1       4.670  60.315   0.796  0.00  0.00    -0.328 N 
ATOM     16  H   UNL     1       4.174  61.258   0.896  0.00  0.00    +0.168 HD
ATOM     17  C   UNL     1       4.070  59.224   1.338  0.00  0.00    +0.087 C 
ATOM     18  O   UNL     1       6.358  61.343  -0.311  0.00  0.00    -0.267 OA
ATOM     29  C   UNL     1       4.634  58.002   1.259  0.00  0.00    +0.041 C 
ENDROOT
BRANCH  13  19
ATOM     19  C   UNL     1       7.826  58.897  -0.775  0.00  0.00    +0.146 A 
ATOM     20  N   UNL     1       8.410  59.970  -1.374  0.00  0.00    -0.338 N 
ATOM     21  H   UNL     1       8.057  60.980  -1.354  0.00  0.00    +0.167 HD
ATOM     22  C   UNL     1       9.544  59.510  -2.012  0.00  0.00    +0.067 A 
ATOM     23  C   UNL     1      10.529  60.156  -2.756  0.00  0.00    +0.028 A 
ATOM     24  C   UNL     1      11.587  59.389  -3.235  0.00  0.00    +0.002 A 
ATOM     25  C   UNL     1      11.640  58.012  -2.993  0.00  0.00    +0.002 A 
ATOM     26  C   UNL     1      10.641  57.373  -2.257  0.00  0.00    +0.030 A 
ATOM     27  C   UNL     1       9.590  58.142  -1.754  0.00  0.00    +0.089 A 
ATOM     28  N   UNL     1       8.497  57.773  -0.965  0.00  0.00    -0.228 NA
ENDBRANCH  13  19
BRANCH   1   2
ATOM      2  N   UNL     1       6.450  56.594   0.511  0.00  0.00    -0.340 N 
ATOM      3  H   UNL     1       7.359  56.526  -0.049  0.00  0.00    +0.146 HD
BRANCH   2   4
ATOM      4  C   UNL     1       5.962  55.352   1.110  0.00  0.00    +0.071 C 
ATOM      5  C   UNL     1       6.454  55.231   2.548  0.00  0.00    +0.024 C 
ATOM      6  C   UNL     1       7.973  55.064   2.615  0.00  0.00    +0.020 C 
ATOM      7  C   UNL     1       8.417  53.861   1.780  0.00  0.00    +0.051 C 
ATOM     11  C   UNL     1       7.935  53.957   0.333  0.00  0.00    +0.020 C 
ATOM     12  C   UNL     1       6.410  54.152   0.285  0.00  0.00    +0.024 C 
BRANCH   7   8
ATOM      8  N   UNL     1       9.906  53.738   1.812  0.00  0.00    -0.327 NA
ATOM      9  H   UNL     1      10.347  54.627   1.410  0.00  0.00    +0.118 HD
ATOM     10  H   UNL     1      10.232  53.604   2.822  0.00  0.00    +0.118 HD
ENDBRANCH   7   8
ENDBRANCH   2   4
ENDBRANCH   1   2
TORSDOF 4
