REMARK  Name = 8NG
REMARK  6 active torsions:
REMARK  status: ('A' for Active; 'I' for Inactive)
REMARK    1  A    between atoms: C10_6  and  C18_21
REMARK    2  A    between atoms: C13_7  and  O29_29
REMARK    3  A    between atoms: C22_12  and  S32_32
REMARK    4  A    between atoms: C11_17  and  N25_25
REMARK    5  A    between atoms: C12_18  and  O29_29
REMARK    6  A    between atoms: N25_25  and  S32_32
REMARK                            x       y       z     vdW  Elec       q    Type
REMARK                         _______ _______ _______ _____ _____    ______ ____
ROOT
ATOM      9  C   UNL     1      59.151 -19.385   7.652  0.00  0.00    +0.145 A 
ATOM     10  C   UNL     1      59.043 -20.728   7.366  0.00  0.00    +0.039 A 
ATOM     11  C   UNL     1      58.095 -21.153   6.474  0.00  0.00    +0.021 A 
ATOM     12  C   UNL     1      57.276 -20.233   5.853  0.00  0.00    +0.091 A 
ATOM     13  C   UNL     1      57.398 -18.880   6.132  0.00  0.00    +0.021 A 
ATOM     20  C   UNL     1      58.332 -18.441   7.053  0.00  0.00    +0.037 A 
ENDROOT
BRANCH  20  21
ATOM     21  C   UNL     1      58.381 -17.003   7.407  0.00  0.00    +0.022 C 
ATOM     22  C   UNL     1      58.271 -16.487   8.715  0.00  0.00    +0.025 A 
ATOM     23  C   UNL     1      58.124 -17.140   9.964  0.00  0.00    +0.022 A 
ATOM     24  C   UNL     1      58.061 -16.141  10.906  0.00  0.00    +0.099 A 
ATOM     25  N   UNL     1      58.167 -14.932  10.267  0.00  0.00    -0.239 NA
ATOM     26  C   UNL     1      58.288 -15.128   8.918  0.00  0.00    +0.137 A 
ATOM     27  C   UNL     1      58.426 -14.126   7.890  0.00  0.00    +0.279 C 
ATOM     28  O   UNL     1      58.462 -12.915   8.100  0.00  0.00    -0.265 OA
ATOM     29  N   UNL     1      58.539 -14.706   6.637  0.00  0.00    -0.291 N 
ATOM     30  C   UNL     1      58.723 -13.825   5.517  0.00  0.00    +0.134 C 
ATOM     31  C   UNL     1      58.515 -16.089   6.428  0.00  0.00    +0.079 C 
ENDBRANCH  20  21
BRANCH   9   8
ATOM      8  O   UNL     1      60.063 -18.916   8.560  0.00  0.00    -0.451 OA
BRANCH   8   7
ATOM      1  C   UNL     1      63.254 -20.425   9.302  0.00  0.00    +0.033 A 
ATOM      2  C   UNL     1      62.912 -21.174  10.404  0.00  0.00    +0.143 A 
ATOM      3  F   UNL     1      63.888 -21.875  10.991  0.00  0.00    -0.204 F 
ATOM      4  C   UNL     1      61.622 -21.214  10.895  0.00  0.00    +0.062 A 
ATOM      5  C   UNL     1      60.656 -20.459  10.263  0.00  0.00    +0.177 A 
ATOM      6  F   UNL     1      59.388 -20.428  10.709  0.00  0.00    -0.201 F 
ATOM      7  C   UNL     1      60.997 -19.725   9.150  0.00  0.00    +0.173 A 
ATOM     32  C   UNL     1      62.283 -19.694   8.664  0.00  0.00    +0.042 A 
ENDBRANCH   8   7
ENDBRANCH   9   8
BRANCH  12  14
ATOM     14  N   UNL     1      56.358 -20.828   4.927  0.00  0.00    -0.101 NA
BRANCH  14  15
ATOM     15  S   UNL     1      55.067 -20.013   4.226  0.00  0.00    +0.073 S 
ATOM     16  O   UNL     1      54.455 -19.101   5.173  0.00  0.00    -0.153 OA
ATOM     17  O   UNL     1      54.261 -20.964   3.505  0.00  0.00    -0.153 OA
BRANCH  15  18
ATOM     18  C   UNL     1      55.936 -19.106   2.954  0.00  0.00    +0.174 C 
ATOM     19  C   UNL     1      56.798 -19.937   2.023  0.00  0.00    +0.029 C 
ENDBRANCH  15  18
ENDBRANCH  14  15
ENDBRANCH  12  14
TORSDOF 6
