REMARK  Name = 4JVG
REMARK  12 active torsions:
REMARK  status: ('A' for Active; 'I' for Inactive)
REMARK    1  A    between atoms: N_3  and  C_4
REMARK    2  A    between atoms: C_7  and  O_31
REMARK    3  A    between atoms: N_14  and  C_15
REMARK    4  A    between atoms: C_17  and  C_24
REMARK    5  A    between atoms: N_19  and  C_20
REMARK    6  A    between atoms: C_21  and  C_24
REMARK    7  A    between atoms: C_22  and  C_24
REMARK    8  A    between atoms: C_23  and  C_24
REMARK    9  A    between atoms: C_27  and  C_30
REMARK   10  A    between atoms: O_31  and  C_32
REMARK   11  A    between atoms: C_32  and  C_33
REMARK   12  A    between atoms: C_33  and  N_34
REMARK                            x       y       z     vdW  Elec       q    Type
REMARK                         _______ _______ _______ _____ _____    ______ ____
ROOT
ATOM      1  C   UNL     1      14.568 -21.380  32.132  0.00  0.00    +0.305 C 
ATOM      2  N   UNL     1      13.987 -21.975  33.185  0.00  0.00    -0.276 N 
ATOM      3  H   UNL     1      12.928 -22.111  33.110  0.00  0.00    +0.152 HD
ATOM     21  N   UNL     1      13.670 -21.066  31.171  0.00  0.00    -0.269 N 
ATOM     22  H   UNL     1      12.641 -21.307  31.337  0.00  0.00    +0.156 HD
ATOM     42  O   UNL     1      15.730 -20.977  32.138  0.00  0.00    -0.253 OA
ENDROOT
BRANCH  21  23
ATOM     23  C   UNL     1      14.009 -20.464  30.015  0.00  0.00    +0.043 A 
ATOM     24  C   UNL     1      15.298 -20.110  29.674  0.00  0.00    +0.027 A 
ATOM     25  C   UNL     1      15.573 -19.538  28.448  0.00  0.00    +0.048 A 
ATOM     26  C   UNL     1      14.528 -19.126  27.624  0.00  0.00    +0.128 A 
ATOM     36  C   UNL     1      13.243 -19.167  28.123  0.00  0.00    +0.026 A 
ATOM     37  C   UNL     1      12.213 -18.740  27.291  0.00  0.00    +0.012 A 
ATOM     38  C   UNL     1      10.891 -18.912  27.679  0.00  0.00    +0.001 A 
ATOM     39  C   UNL     1      10.607 -19.587  28.866  0.00  0.00    +0.001 A 
ATOM     40  C   UNL     1      11.639 -20.089  29.665  0.00  0.00    +0.010 A 
ATOM     41  C   UNL     1      12.963 -19.910  29.272  0.00  0.00    +0.007 A 
BRANCH  26  27
ATOM     27  O   UNL     1      14.783 -18.365  26.504  0.00  0.00    -0.490 OA
BRANCH  27  28
ATOM     28  C   UNL     1      16.176 -18.631  26.270  0.00  0.00    +0.244 C 
BRANCH  28  29
ATOM     29  C   UNL     1      16.887 -17.852  25.147  0.00  0.00    +0.125 C 
BRANCH  29  30
ATOM     30  N   UNL     1      17.270 -16.479  25.422  0.00  0.00    -0.295 NA
ATOM     31  C   UNL     1      17.688 -15.864  24.157  0.00  0.00    +0.112 C 
ATOM     32  C   UNL     1      18.119 -14.439  24.423  0.00  0.00    +0.175 C 
ATOM     33  O   UNL     1      17.064 -13.677  24.982  0.00  0.00    -0.377 OA
ATOM     34  C   UNL     1      16.639 -14.268  26.254  0.00  0.00    +0.175 C 
ATOM     35  C   UNL     1      16.169 -15.698  25.990  0.00  0.00    +0.112 C 
ENDBRANCH  29  30
ENDBRANCH  28  29
ENDBRANCH  27  28
ENDBRANCH  26  27
ENDBRANCH  21  23
BRANCH   2   4
ATOM      4  C   UNL     1      14.538 -22.415  34.299  0.00  0.00    +0.206 C 
ATOM      5  N   UNL     1      13.965 -23.013  35.310  0.00  0.00    -0.229 N 
ATOM     13  N   UNL     1      14.583 -22.977  36.272  0.00  0.00    -0.266 N 
ATOM     14  H   UNL     1      14.547 -23.682  37.076  0.00  0.00    +0.170 HD
ATOM     15  C   UNL     1      15.339 -21.919  36.208  0.00  0.00    +0.027 C 
ATOM     20  C   UNL     1      15.221 -21.463  34.962  0.00  0.00    +0.037 C 
BRANCH   5   6
ATOM      6  C   UNL     1      13.313 -24.141  34.976  0.00  0.00    +0.050 A 
ATOM      7  C   UNL     1      13.358 -24.487  33.614  0.00  0.00    +0.025 A 
ATOM      8  C   UNL     1      12.767 -25.641  33.114  0.00  0.00    +0.005 A 
ATOM      9  C   UNL     1      12.064 -26.467  33.986  0.00  0.00    -0.050 A 
ATOM     10  C   UNL     1      11.450 -27.621  33.506  0.00  0.00    +0.044 C 
ATOM     11  C   UNL     1      11.991 -26.120  35.344  0.00  0.00    +0.005 A 
ATOM     12  C   UNL     1      12.610 -24.974  35.855  0.00  0.00    +0.025 A 
ENDBRANCH   5   6
BRANCH  15  16
ATOM     16  C   UNL     1      16.176 -21.401  37.418  0.00  0.00    +0.001 C 
ATOM     17  C   UNL     1      16.665 -19.972  37.162  0.00  0.00    +0.017 C 
ATOM     18  C   UNL     1      17.373 -22.307  37.723  0.00  0.00    +0.017 C 
ATOM     19  C   UNL     1      15.295 -21.403  38.660  0.00  0.00    +0.017 C 
ENDBRANCH  15  16
ENDBRANCH   2   4
TORSDOF 8
