REMARK  Name = 0S6
REMARK  4 active torsions:
REMARK  status: ('A' for Active; 'I' for Inactive)
REMARK    1  A    between atoms: C12_7  and  C8_8
REMARK    2  A    between atoms: C20_23  and  C22_24
REMARK    3  A    between atoms: C22_24  and  C23_25
REMARK    4  A    between atoms: C23_25  and  O25_27
REMARK                            x       y       z     vdW  Elec       q    Type
REMARK                         _______ _______ _______ _____ _____    ______ ____
ROOT
ATOM      6  C   UNL     1      24.631  11.738 -12.483  0.00  0.00    +0.078 C 
ATOM      7  C   UNL     1      24.436  12.108 -11.091  0.00  0.00    +0.036 A 
ATOM      8  C   UNL     1      23.413  11.588 -10.318  0.00  0.00    +0.097 A 
ATOM      9  S   UNL     1      23.409  12.201  -8.710  0.00  0.00    -0.074 S 
ATOM     10  C   UNL     1      24.794  13.162  -9.032  0.00  0.00    +0.005 A 
ATOM     11  C   UNL     1      25.353  14.002  -7.958  0.00  0.00    +0.038 C 
ATOM     12  N   UNL     1      22.428  10.722 -10.791  0.00  0.00    -0.274 N 
ATOM     13  C   UNL     1      21.770   9.644 -10.255  0.00  0.00    +0.148 A 
ATOM     14  C   UNL     1      22.064   9.037  -8.945  0.00  0.00    +0.074 C 
ATOM     15  N   UNL     1      20.833   9.219 -11.070  0.00  0.00    -0.133 NA
ATOM     16  N   UNL     1      20.856  10.012 -12.176  0.00  0.00    -0.131 NA
ATOM     17  C   UNL     1      21.804  10.906 -12.000  0.00  0.00    +0.170 A 
ATOM     18  C   UNL     1      22.243  11.974 -12.923  0.00  0.00    +0.173 C 
ATOM     24  C   UNL     1      25.228  13.022 -10.337  0.00  0.00    -0.017 A 
ATOM     25  C   UNL     1      26.382  13.763 -10.873  0.00  0.00    +0.031 C 
ATOM     26  N   UNL     1      23.631  11.668 -13.313  0.00  0.00    -0.264 NA
ENDROOT
BRANCH   6   5
ATOM      1 CL   UNL     1      30.093  10.065 -14.361  0.00  0.00    -0.082 Cl
ATOM      2  C   UNL     1      28.517  10.553 -13.827  0.00  0.00    +0.058 A 
ATOM      3  C   UNL     1      28.145  10.369 -12.517  0.00  0.00    +0.011 A 
ATOM      4  C   UNL     1      26.888  10.760 -12.105  0.00  0.00    +0.002 A 
ATOM      5  C   UNL     1      25.978  11.343 -12.967  0.00  0.00    +0.017 A 
ATOM     27  C   UNL     1      26.370  11.523 -14.280  0.00  0.00    +0.002 A 
ATOM     28  C   UNL     1      27.626  11.133 -14.700  0.00  0.00    +0.011 A 
ENDBRANCH   6   5
BRANCH  18  19
ATOM     19  C   UNL     1      21.369  12.061 -14.157  0.00  0.00    +0.141 C 
BRANCH  19  20
ATOM     20  C   UNL     1      21.721  13.266 -14.986  0.00  0.00    +0.320 C 
ATOM     21  O   UNL     1      22.460  14.177 -14.639  0.00  0.00    -0.250 OA
BRANCH  20  22
ATOM     22  O   UNL     1      21.079  13.184 -16.182  0.00  0.00    -0.444 OA
ATOM     23  C   UNL     1      21.436  14.228 -17.091  0.00  0.00    +0.256 C 
ENDBRANCH  20  22
ENDBRANCH  19  20
ENDBRANCH  18  19
TORSDOF 4
