REMARK  Name = FKY
REMARK  8 active torsions:
REMARK  status: ('A' for Active; 'I' for Inactive)
REMARK    1  A    between atoms: C7_3  and  C1_12
REMARK    2  A    between atoms: C10_5  and  O13_19
REMARK    3  A    between atoms: C20_7  and  C22_8
REMARK    4  A    between atoms: C22_8  and  C23_26
REMARK    5  A    between atoms: C26_10  and  O29_29
REMARK    6  A    between atoms: C9_16  and  C35_35
REMARK    7  A    between atoms: O13_19  and  C14_20
REMARK    8  A    between atoms: O29_29  and  C30_30
REMARK                            x       y       z     vdW  Elec       q    Type
REMARK                         _______ _______ _______ _____ _____    ______ ____
ROOT
ATOM      8  C   UNL     1     -22.290   5.716 -21.980  0.00  0.00    +0.203 C 
ATOM      9  C   UNL     1     -22.790   6.766 -21.015  0.00  0.00    +0.220 C 
ATOM     10  C   UNL     1     -23.252   6.106 -19.657  0.00  0.00    +0.132 C 
ATOM     11  N   UNL     1     -22.142   5.325 -19.107  0.00  0.00    -0.276 N 
ATOM     12  C   UNL     1     -21.496   5.536 -17.940  0.00  0.00    +0.230 C 
ATOM     25  O   UNL     1     -20.426   5.003 -17.693  0.00  0.00    -0.275 OA
ATOM     26  C   UNL     1     -21.768   4.221 -20.003  0.00  0.00    +0.097 C 
ATOM     27  F   UNL     1     -21.766   7.693 -20.742  0.00  0.00    -0.232 F 
ATOM     28  C   UNL     1     -21.287   4.756 -21.352  0.00  0.00    +0.068 C 
ENDROOT
BRANCH   8   7
ATOM      7  O   UNL     1     -21.660   6.430 -23.071  0.00  0.00    -0.461 OA
BRANCH   7   6
ATOM      3  C   UNL     1     -20.400   4.527 -26.458  0.00  0.00    +0.039 A 
ATOM      4  C   UNL     1     -21.407   4.024 -25.646  0.00  0.00    +0.104 A 
ATOM      5  N   UNL     1     -21.797   4.609 -24.505  0.00  0.00    -0.210 NA
ATOM      6  C   UNL     1     -21.209   5.747 -24.154  0.00  0.00    +0.229 A 
ATOM     29  C   UNL     1     -20.175   6.368 -24.896  0.00  0.00    +0.110 A 
ATOM     33  C   UNL     1     -19.779   5.707 -26.061  0.00  0.00    +0.012 A 
BRANCH   3   2
ATOM      1  C   UNL     1     -20.487   2.710 -28.268  0.00  0.00    +0.097 A 
ATOM      2  C   UNL     1     -19.993   3.853 -27.704  0.00  0.00    +0.102 A 
ATOM     34  N   UNL     1     -18.951   4.414 -28.530  0.00  0.00    -0.224 NA
ATOM     35  C   UNL     1     -18.852   3.600 -29.554  0.00  0.00    +0.179 A 
ATOM     36  N   UNL     1     -19.787   2.546 -29.428  0.00  0.00    -0.306 N 
ATOM     37  C   UNL     1     -19.984   1.460 -30.390  0.00  0.00    +0.132 C 
ENDBRANCH   3   2
BRANCH  29  30
ATOM     30  C   UNL     1     -19.594   7.699 -24.524  0.00  0.00    +0.289 C 
ATOM     31  N   UNL     1     -19.371   7.952 -23.237  0.00  0.00    -0.084 NA
ATOM     32  O   UNL     1     -19.365   8.523 -25.405  0.00  0.00    -0.267 OA
ENDBRANCH  29  30
ENDBRANCH   7   6
ENDBRANCH   8   7
BRANCH  12  13
ATOM     13  C   UNL     1     -22.087   6.557 -16.985  0.00  0.00    +0.112 C 
BRANCH  13  14
ATOM     14  C   UNL     1     -21.384   6.559 -15.646  0.00  0.00    -0.013 A 
ATOM     15  C   UNL     1     -21.742   5.659 -14.652  0.00  0.00    -0.001 A 
ATOM     16  C   UNL     1     -21.036   5.592 -13.462  0.00  0.00    +0.037 A 
ATOM     17  C   UNL     1     -19.951   6.431 -13.257  0.00  0.00    +0.147 A 
ATOM     23  C   UNL     1     -19.581   7.339 -14.237  0.00  0.00    +0.037 A 
ATOM     24  C   UNL     1     -20.308   7.407 -15.415  0.00  0.00    -0.001 A 
BRANCH  17  18
ATOM     18  O   UNL     1     -19.246   6.471 -12.053  0.00  0.00    -0.405 OA
BRANCH  18  19
ATOM     19  C   UNL     1     -18.374   5.501 -11.807  0.00  0.00    +0.575 C 
ATOM     20  F   UNL     1     -17.767   5.805 -10.677  0.00  0.00    -0.133 F 
ATOM     21  F   UNL     1     -18.937   4.320 -11.636  0.00  0.00    -0.133 F 
ATOM     22  F   UNL     1     -17.459   5.382 -12.761  0.00  0.00    -0.133 F 
ENDBRANCH  18  19
ENDBRANCH  17  18
ENDBRANCH  13  14
ENDBRANCH  12  13
TORSDOF 8
