REMARK  Name = 2e9v_ligand
REMARK  4 active torsions:
REMARK  status: ('A' for Active; 'I' for Inactive)
REMARK    1  A    between atoms: C6_6  and  N7_7
REMARK    2  A    between atoms: N7_7  and  C28_28
REMARK    3  A    between atoms: C9_9  and  C18_18
REMARK    4  A    between atoms: C28_28  and  C29_29
REMARK                            x       y       z     vdW  Elec       q    Type
REMARK                         _______ _______ _______ _____ _____    ______ ____
ROOT
ATOM      1  C   UNL     1       3.619  13.766  -3.770  0.00  0.00    +0.013 A 
ATOM      2  C   UNL     1       4.769  14.432  -3.205  0.00  0.00    +0.030 A 
ATOM     12  C   UNL     1       4.742  14.781  -1.803  0.00  0.00    +0.032 A 
ATOM     13 CL   UNL     1       6.063  15.566  -1.087  0.00  0.00    -0.095 Cl
ATOM     14  C   UNL     1       3.628  14.496  -0.969  0.00  0.00    -0.002 A 
ATOM     15  C   UNL     1       2.433  13.818  -1.504  0.00  0.00    +0.085 A 
ATOM     16  N   UNL     1       1.286  13.520  -0.686  0.00  0.00    -0.222 N 
ATOM     17  H   UNL     1       0.646  12.859  -1.077  0.00  0.00    +0.219 HD
ATOM     18  C   UNL     1       0.926  14.025   0.596  0.00  0.00    +0.321 C 
ATOM     19  O   UNL     1       1.631  14.777   1.269  0.00  0.00    -0.379 OA
ATOM     20  N   UNL     1      -0.279  13.662   1.116  0.00  0.00    -0.189 N 
ATOM     21  H   UNL     1      -0.429  14.061   2.021  0.00  0.00    +0.239 HD
ATOM     22  C   UNL     1      -1.351  12.881   0.712  0.00  0.00    +0.168 A 
ATOM     23  C   UNL     1      -2.392  12.505   1.629  0.00  0.00    +0.139 A 
ATOM     24  N   UNL     1      -3.481  11.744   1.220  0.00  0.00    -0.264 NA
ATOM     25  C   UNL     1      -3.597  11.316  -0.101  0.00  0.00    +0.209 A 
ATOM     26  C   UNL     1      -2.558  11.666  -1.091  0.00  0.00    +0.212 A 
ATOM     27  O   UNL     1      -2.535  11.310  -2.483  0.00  0.00    -0.286 OA
ATOM     28  C   UNL     1      -1.753  10.165  -2.868  0.00  0.00    +0.204 C 
ATOM     29  C   UNL     1      -1.542  10.089  -4.405  0.00  0.00    +0.035 C 
ATOM     30  C   UNL     1      -0.781  11.447  -4.463  0.00  0.00    +0.005 C 
ATOM     31  C   UNL     1       0.505  11.527  -5.319  0.00  0.00    +0.033 C 
ATOM     32  C   UNL     1       1.366  11.556  -4.042  0.00  0.00    +0.189 C 
ATOM     33  O   UNL     1       1.239  12.808  -3.394  0.00  0.00    -0.327 OA
ATOM     36  N   UNL     1      -1.438  12.449  -0.663  0.00  0.00    -0.225 NA
ATOM     37  C   UNL     1       2.423  13.446  -2.935  0.00  0.00    +0.103 A 
ENDROOT
BRANCH   2   3
ATOM      3  N   UNL     1       5.851  14.721  -3.987  0.00  0.00    -0.319 N 
ATOM      4  H   UNL     1       6.732  14.230  -3.776  0.00  0.00    +0.174 HD
BRANCH   3   5
ATOM      5  C   UNL     1       5.861  15.651  -5.076  0.00  0.00    +0.202 C 
BRANCH   5   6
ATOM      6  C   UNL     1       7.257  16.121  -5.370  0.00  0.00    -0.002 A 
ATOM      7  C   UNL     1       7.875  17.091  -4.543  0.00  0.00    +0.035 A 
ATOM      8  C   UNL     1       9.191  17.508  -4.848  0.00  0.00    +0.083 A 
ATOM      9  N   UNL     1       9.894  17.013  -5.909  0.00  0.00    -0.307 NA
ATOM     10  C   UNL     1       9.295  16.075  -6.709  0.00  0.00    +0.083 A 
ATOM     11  C   UNL     1       7.981  15.603  -6.474  0.00  0.00    +0.035 A 
ENDBRANCH   5   6
ENDBRANCH   3   5
ENDBRANCH   2   3
BRANCH  25  34
ATOM     34  C   UNL     1      -4.744  10.534  -0.534  0.00  0.00    +0.106 C 
ATOM     35  N   UNL     1      -5.680   9.951  -0.846  0.00  0.00    -0.339 NA
ENDBRANCH  25  34
TORSDOF 4
