REMARK  Name = 1z5m_ligand
REMARK  11 active torsions:
REMARK  status: ('A' for Active; 'I' for Inactive)
REMARK    1  A    between atoms: C2_2  and  N25_23
REMARK    2  A    between atoms: N8_8  and  C10_9
REMARK    3  A    between atoms: C12_11  and  N16_15
REMARK    4  A    between atoms: N25_23  and  C27_24
REMARK    5  A    between atoms: C27_24  and  C28_25
REMARK    6  A    between atoms: C28_25  and  C33_29
REMARK    7  A    between atoms: N29_26  and  C33_29
REMARK    8  A    between atoms: C31_27  and  C34_30
REMARK    9  A    between atoms: C34_30  and  C35_31
REMARK   10  A    between atoms: C34_30  and  C36_32
REMARK   11  A    between atoms: C34_30  and  C37_33
REMARK                            x       y       z     vdW  Elec       q    Type
REMARK                         _______ _______ _______ _____ _____    ______ ____
ROOT
ATOM      1  C   UNL     1      -8.746  43.496  43.496  0.00  0.00    +0.067 A 
ATOM      2 BR   UNL     1      -9.806  44.989  43.127  0.00  0.00    -0.055 Br
ATOM      3  C   UNL     1      -9.323  42.238  43.329  0.00  0.00    +0.098 A 
ATOM      4  N   UNL     1      -8.625  41.134  43.613  0.00  0.00    -0.266 NA
ATOM      5  C   UNL     1      -7.361  41.177  44.069  0.00  0.00    +0.197 A 
ATOM      6  N   UNL     1      -6.768  40.008  44.326  0.00  0.00    -0.247 N 
ATOM      7  H   UNL     1      -7.312  39.173  44.064  0.00  0.00    +0.218 HD
ATOM     23  N   UNL     1      -6.770  42.383  44.231  0.00  0.00    -0.235 NA
ATOM     24  C   UNL     1      -7.390  43.556  43.964  0.00  0.00    +0.124 A 
ENDROOT
BRANCH   6   8
ATOM      8  C   UNL     1      -5.572  39.760  44.874  0.00  0.00    +0.052 A 
ATOM      9  C   UNL     1      -5.434  38.491  45.478  0.00  0.00    -0.012 A 
ATOM     10  C   UNL     1      -4.225  38.102  46.086  0.00  0.00    -0.030 A 
ATOM     11  C   UNL     1      -3.141  39.003  46.100  0.00  0.00    -0.012 A 
ATOM     12  C   UNL     1      -3.241  40.299  45.507  0.00  0.00    +0.057 A 
ATOM     22  C   UNL     1      -4.462  40.667  44.893  0.00  0.00    +0.022 A 
BRANCH  12  13
ATOM     13  N   UNL     1      -2.236  41.205  45.526  0.00  0.00    -0.222 N 
ATOM     14  H   UNL     1      -2.457  42.082  45.953  0.00  0.00    +0.225 HD
ATOM     15  C   UNL     1      -0.994  41.096  45.057  0.00  0.00    +0.289 C 
ATOM     16  N   UNL     1      -0.091  42.083  45.245  0.00  0.00    -0.254 N 
ATOM     17  C   UNL     1       1.275  41.994  44.853  0.00  0.00    +0.139 C 
ATOM     18  C   UNL     1       2.017  42.618  46.044  0.00  0.00    +0.026 C 
ATOM     19  C   UNL     1       0.998  43.646  46.620  0.00  0.00    +0.026 C 
ATOM     20  C   UNL     1      -0.345  43.305  45.924  0.00  0.00    +0.139 C 
ATOM     21  O   UNL     1      -0.637  40.057  44.464  0.00  0.00    -0.390 OA
ENDBRANCH  12  13
ENDBRANCH   6   8
BRANCH  24  25
ATOM     25  N   UNL     1      -6.737  44.734  44.156  0.00  0.00    -0.302 N 
ATOM     26  H   UNL     1      -7.217  45.594  43.854  0.00  0.00    +0.185 HD
BRANCH  25  27
ATOM     27  C   UNL     1      -5.441  44.880  44.741  0.00  0.00    +0.137 C 
BRANCH  27  28
ATOM     28  C   UNL     1      -4.308  44.649  43.719  0.00  0.00    +0.049 C 
BRANCH  28  29
ATOM     29  C   UNL     1      -4.423  45.514  42.444  0.00  0.00    +0.137 C 
BRANCH  29  30
ATOM     30  N   UNL     1      -4.685  46.901  42.728  0.00  0.00    -0.287 N 
ATOM     31  H   UNL     1      -5.559  47.275  42.417  0.00  0.00    +0.186 HD
ATOM     32  C   UNL     1      -3.842  47.749  43.386  0.00  0.00    +0.207 C 
ATOM     41  O   UNL     1      -2.728  47.280  43.801  0.00  0.00    -0.347 OA
BRANCH  32  33
ATOM     33  C   UNL     1      -4.159  49.233  43.638  0.00  0.00    +0.125 C 
ATOM     39  C   UNL     1      -5.088  49.853  42.527  0.00  0.00    +0.017 C 
ATOM     40  C   UNL     1      -2.822  50.050  43.616  0.00  0.00    +0.017 C 
BRANCH  33  34
ATOM     34  C   UNL     1      -4.764  49.403  44.987  0.00  0.00    +0.205 C 
ATOM     35  N   UNL     1      -4.180  48.911  46.075  0.00  0.00    -0.301 N 
ATOM     36  H   UNL     1      -3.316  48.414  45.997  0.00  0.00    +0.182 HD
ATOM     37  H   UNL     1      -4.605  49.038  46.971  0.00  0.00    +0.182 HD
ATOM     38  O   UNL     1      -5.837  50.019  45.191  0.00  0.00    -0.347 OA
ENDBRANCH  33  34
ENDBRANCH  32  33
ENDBRANCH  29  30
ENDBRANCH  28  29
ENDBRANCH  27  28
ENDBRANCH  25  27
ENDBRANCH  24  25
TORSDOF 9
