REMARK  Name = 4eev_ligand
REMARK  8 active torsions:
REMARK  status: ('A' for Active; 'I' for Inactive)
REMARK    1  A    between atoms: C14_14  and  C15_15
REMARK    2  A    between atoms: C17_17  and  N35_35
REMARK    3  A    between atoms: C18_18  and  N36_36
REMARK    4  A    between atoms: C19_19  and  O39_39
REMARK    5  A    between atoms: C20_20  and  O39_39
REMARK    6  A    between atoms: C25_25  and  C28_28
REMARK    7  A    between atoms: C26_26  and  C29_29
REMARK    8  A    between atoms: C30_30  and  N34_34
REMARK                            x       y       z     vdW  Elec       q    Type
REMARK                         _______ _______ _______ _____ _____    ______ ____
ROOT
ATOM     11  C   UNL     1      11.686  -1.145  46.151  0.00  0.00    +0.055 A 
ATOM     12  C   UNL     1      12.227  -2.079  46.996  0.00  0.00    +0.032 A 
ATOM     13  C   UNL     1      13.447  -2.664  46.685  0.00  0.00    +0.152 A 
ATOM     14  F   UNL     1      13.954  -3.587  47.537  0.00  0.00    -0.193 F 
ATOM     15  C   UNL     1      14.120  -2.338  45.532  0.00  0.00    +0.132 A 
ATOM     33  C   UNL     1      13.584  -1.401  44.677  0.00  0.00    +0.007 A 
ATOM     34  C   UNL     1      12.369  -0.804  44.996  0.00  0.00    -0.008 A 
ENDROOT
BRANCH  11   9
ATOM      7  C   UNL     1       9.828  -0.475  47.625  0.00  0.00    +0.231 C 
ATOM      8  O   UNL     1      10.154  -1.078  48.630  0.00  0.00    -0.380 OA
ATOM      9  N   UNL     1      10.439  -0.536  46.407  0.00  0.00    -0.237 N 
ATOM     10  H   UNL     1       9.965  -0.115  45.633  0.00  0.00    +0.223 HD
BRANCH   7   6
ATOM      3  N   UNL     1       6.821   1.605  46.594  0.00  0.00    -0.207 N 
ATOM      4  C   UNL     1       8.032   0.981  46.408  0.00  0.00    +0.237 C 
ATOM      5  O   UNL     1       8.671   0.942  45.360  0.00  0.00    -0.379 OA
ATOM      6  C   UNL     1       8.570   0.269  47.596  0.00  0.00    +0.255 C 
ATOM     35  C   UNL     1       7.858   0.266  48.743  0.00  0.00    -0.006 C 
ATOM     36  C   UNL     1       6.588   0.917  48.858  0.00  0.00    -0.013 C 
ATOM     37  C   UNL     1       6.093   1.554  47.782  0.00  0.00    +0.156 C 
ATOM     38  C   UNL     1       4.775   2.253  47.807  0.00  0.00    +0.053 C 
BRANCH   3   2
ATOM      1  C   UNL     1       6.317   3.670  45.406  0.00  0.00    +0.007 A 
ATOM      2  C   UNL     1       6.307   2.287  45.477  0.00  0.00    +0.068 A 
ATOM     39  C   UNL     1       5.841   1.484  44.482  0.00  0.00    +0.007 A 
ATOM     40  C   UNL     1       5.350   2.080  43.336  0.00  0.00    +0.015 A 
ATOM     41  C   UNL     1       5.353   3.448  43.259  0.00  0.00    +0.116 A 
ATOM     42  F   UNL     1       4.858   3.988  42.128  0.00  0.00    -0.196 F 
ATOM     43  C   UNL     1       5.829   4.257  44.246  0.00  0.00    +0.015 A 
ENDBRANCH   3   2
ENDBRANCH   7   6
ENDBRANCH  11   9
BRANCH  15  16
ATOM     16  O   UNL     1      15.359  -2.922  45.244  0.00  0.00    -0.274 OA
BRANCH  16  17
ATOM     17  C   UNL     1      15.477  -3.732  44.129  0.00  0.00    +0.103 A 
ATOM     18  C   UNL     1      16.736  -3.788  43.554  0.00  0.00    -0.007 A 
ATOM     25  C   UNL     1      17.017  -4.544  42.450  0.00  0.00    +0.009 A 
ATOM     26  C   UNL     1      15.944  -5.260  41.987  0.00  0.00    +0.076 A 
ATOM     27  N   UNL     1      15.862  -6.119  40.934  0.00  0.00    -0.210 N 
ATOM     28  N   UNL     1      14.634  -6.637  40.755  0.00  0.00    -0.209 NA
ATOM     29  C   UNL     1      13.915  -6.095  41.731  0.00  0.00    +0.084 A 
ATOM     30  C   UNL     1      16.964  -6.478  40.047  0.00  0.00    +0.226 C 
ATOM     31  C   UNL     1      14.675  -5.237  42.537  0.00  0.00    -0.004 A 
ATOM     32  C   UNL     1      14.393  -4.446  43.652  0.00  0.00    +0.011 A 
BRANCH  18  19
ATOM     19  C   UNL     1      17.838  -3.046  44.104  0.00  0.00    -0.003 A 
ATOM     20  C   UNL     1      17.826  -2.438  45.338  0.00  0.00    +0.071 A 
ATOM     21  N   UNL     1      19.056  -1.851  45.463  0.00  0.00    -0.217 NA
ATOM     22  N   UNL     1      19.834  -2.030  44.400  0.00  0.00    -0.218 N 
ATOM     23  H   UNL     1      20.791  -1.675  44.260  0.00  0.00    +0.259 HD
ATOM     24  C   UNL     1      19.115  -2.764  43.556  0.00  0.00    +0.159 A 
ENDBRANCH  18  19
ENDBRANCH  16  17
ENDBRANCH  15  16
TORSDOF 6
