REMARK  Name = 4YJO
REMARK  4 active torsions:
REMARK  status: ('A' for Active; 'I' for Inactive)
REMARK    1  A    between atoms: C_1  and  C_2
REMARK    2  A    between atoms: C_2  and  N_3
REMARK    3  A    between atoms: N_3  and  C_4
REMARK    4  A    between atoms: N_16  and  C_17
REMARK                            x       y       z     vdW  Elec       q    Type
REMARK                         _______ _______ _______ _____ _____    ______ ____
ROOT
ATOM      3  N   UNL     1      25.500  39.376  50.450  0.00  0.00    -0.283 N 
ATOM      4  C   UNL     1      25.502  40.205  51.533  0.00  0.00    +0.149 A 
ATOM      5  C   UNL     1      24.475  40.291  52.467  0.00  0.00    +0.099 A 
ATOM      6 CL   UNL     1      23.081  39.256  52.413  0.00  0.00    -0.078 Cl
ATOM      7  C   UNL     1      24.575  41.172  53.524  0.00  0.00    +0.138 A 
ATOM      8  N   UNL     1      25.655  41.943  53.667  0.00  0.00    -0.221 NA
ATOM      9  C   UNL     1      26.611  41.800  52.734  0.00  0.00    +0.221 A 
ATOM     10  N   UNL     1      27.685  42.578  52.952  0.00  0.00    -0.283 N 
ATOM     11  H   UNL     1      27.510  43.388  53.629  0.00  0.00    +0.155 HD
ATOM     24  N   UNL     1      26.593  40.972  51.673  0.00  0.00    -0.197 NA
ENDROOT
BRANCH  10  12
ATOM     12  C   UNL     1      29.003  42.519  52.448  0.00  0.00    +0.035 A 
ATOM     13  C   UNL     1      29.354  41.757  51.362  0.00  0.00    +0.052 A 
ATOM     14  C   UNL     1      30.649  41.780  50.875  0.00  0.00    +0.111 A 
ATOM     15  S   UNL     1      31.350  40.869  49.563  0.00  0.00    +0.059 S 
ATOM     16  O   UNL     1      30.539  40.938  48.389  0.00  0.00    -0.153 OA
ATOM     17  O   UNL     1      31.707  39.561  50.022  0.00  0.00    -0.153 OA
ATOM     18  N   UNL     1      32.633  41.907  49.493  0.00  0.00    -0.186 NA
ATOM     19  H   UNL     1      33.482  41.380  49.110  0.00  0.00    +0.148 HD
ATOM     20  C   UNL     1      32.972  42.456  50.809  0.00  0.00    +0.142 C 
ATOM     21  C   UNL     1      31.613  42.578  51.440  0.00  0.00    -0.005 A 
ATOM     22  C   UNL     1      31.247  43.366  52.526  0.00  0.00    +0.009 A 
ATOM     23  C   UNL     1      29.958  43.353  53.017  0.00  0.00    +0.024 A 
ENDBRANCH  10  12
BRANCH   3  25
ATOM     25  C   UNL     1      24.282  39.095  49.762  0.00  0.00    +0.046 A 
ATOM     26  C   UNL     1      23.916  37.758  49.487  0.00  0.00    +0.041 A 
ATOM     27  C   UNL     1      24.445  36.465  49.694  0.00  0.00    +0.144 A 
ATOM     28  N   UNL     1      23.660  35.534  49.191  0.00  0.00    -0.181 NA
ATOM     29  N   UNL     1      22.600  36.194  48.644  0.00  0.00    -0.277 N 
ATOM     30  H   UNL     1      21.784  35.710  48.149  0.00  0.00    +0.189 HD
ATOM     31  C   UNL     1      22.703  37.539  48.803  0.00  0.00    +0.068 A 
ATOM     32  C   UNL     1      21.878  38.578  48.396  0.00  0.00    +0.028 A 
ATOM     33  C   UNL     1      22.256  39.879  48.697  0.00  0.00    +0.004 A 
ATOM     34  C   UNL     1      23.446  40.137  49.364  0.00  0.00    +0.024 A 
ENDBRANCH   3  25
BRANCH   3   2
ATOM      1  C   UNL     1      27.686  38.197  50.617  0.00  0.00    +0.025 C 
ATOM      2  C   UNL     1      26.802  39.084  49.772  0.00  0.00    +0.109 C 
ENDBRANCH   3   2
TORSDOF 3
