REMARK  Name = 64Q
REMARK  2 active torsions:
REMARK  status: ('A' for Active; 'I' for Inactive)
REMARK    1  A    between atoms: C04_6  and  N05_7
REMARK    2  A    between atoms: N05_7  and  C06_8
REMARK                            x       y       z     vdW  Elec       q    Type
REMARK                         _______ _______ _______ _____ _____    ______ ____
ROOT
ATOM      7  C   UNL     1     -12.416  -5.870   0.297  0.00  0.00    +0.141 A 
ATOM      8  N   UNL     1     -13.700  -6.004   0.762  0.00  0.00    -0.242 N 
ATOM      9  C   UNL     1     -14.234  -6.918   1.646  0.00  0.00    +0.209 A 
ATOM     10  N   UNL     1     -15.536  -6.629   1.789  0.00  0.00    -0.124 NA
ATOM     11  N   UNL     1     -15.818  -5.545   1.028  0.00  0.00    -0.108 NA
ATOM     12  C   UNL     1     -14.653  -5.165   0.395  0.00  0.00    +0.258 A 
ATOM     13  N   UNL     1     -14.387  -4.153  -0.470  0.00  0.00    -0.214 NA
ATOM     14  C   UNL     1     -13.144  -3.986  -0.973  0.00  0.00    +0.065 A 
ATOM     15  C   UNL     1     -12.856  -2.855  -1.922  0.00  0.00    +0.052 C 
ATOM     16  C   UNL     1     -12.112  -4.835  -0.582  0.00  0.00    +0.050 A 
ENDROOT
BRANCH   7   6
ATOM      6  N   UNL     1     -11.477  -6.814   0.763  0.00  0.00    -0.196 NA
BRANCH   6   5
ATOM      1  C   UNL     1      -8.123  -7.036  -0.885  0.00  0.00    -0.003 A 
ATOM      2  C   UNL     1      -7.323  -6.964   0.233  0.00  0.00    -0.000 A 
ATOM      3  C   UNL     1      -7.890  -6.843   1.489  0.00  0.00    +0.001 A 
ATOM      4  C   UNL     1      -9.261  -6.785   1.642  0.00  0.00    +0.016 A 
ATOM      5  C   UNL     1     -10.076  -6.846   0.528  0.00  0.00    +0.068 A 
ATOM     17  C   UNL     1      -9.500  -6.977  -0.743  0.00  0.00    -0.006 A 
ATOM     18  C   UNL     1     -10.300  -7.034  -2.021  0.00  0.00    +0.032 C 
ENDBRANCH   6   5
ENDBRANCH   7   6
TORSDOF 2
