REMARK  Name = EKH
REMARK  2 active torsions:
REMARK  status: ('A' for Active; 'I' for Inactive)
REMARK    1  A    between atoms: N2_7  and  C5_12
REMARK    2  A    between atoms: C8_14  and  C9_15
REMARK                            x       y       z     vdW  Elec       q    Type
REMARK                         _______ _______ _______ _____ _____    ______ ____
ROOT
ATOM      1 CL   UNL     1      10.347  12.270  10.337  0.00  0.00    -0.081 Cl
ATOM      2  C   UNL     1      11.403  11.786  11.624  0.00  0.00    +0.081 A 
ATOM      3  C   UNL     1      11.466  12.394  12.902  0.00  0.00    +0.081 A 
ATOM      4  C   UNL     1      10.827  13.435  13.616  0.00  0.00    +0.175 A 
ATOM      5  N   UNL     1      11.226  13.698  14.881  0.00  0.00    -0.206 NA
ATOM      6  C   UNL     1      12.197  12.946  15.406  0.00  0.00    +0.202 A 
ATOM      7  N   UNL     1      12.858  11.929  14.842  0.00  0.00    -0.206 NA
ATOM      8  N   UNL     1       9.820  14.150  13.095  0.00  0.00    -0.107 NA
ATOM      9  C   UNL     1      12.476  11.685  13.585  0.00  0.00    +0.151 A 
ATOM     10  N   UNL     1      12.975  10.714  12.754  0.00  0.00    -0.286 N 
ATOM     20  C   UNL     1      12.298  10.780  11.555  0.00  0.00    +0.091 A 
ENDROOT
BRANCH  10  11
ATOM     11  C1* UNL     1      14.044   9.785  13.105  0.00  0.00    +0.240 C 
ATOM     12  C2* UNL     1      13.555   8.559  13.870  0.00  0.00    +0.234 C 
ATOM     13  O2* UNL     1      14.611   8.173  14.754  0.00  0.00    -0.216 OA
ATOM     14  C3* UNL     1      13.303   7.579  12.740  0.00  0.00    +0.216 C 
ATOM     15  O3* UNL     1      13.347   6.206  13.141  0.00  0.00    -0.218 OA
ATOM     16  C4* UNL     1      14.456   7.886  11.799  0.00  0.00    +0.183 C 
ATOM     19  O4* UNL     1      14.633   9.310  11.914  0.00  0.00    -0.331 OA
BRANCH  16  17
ATOM     17  C5* UNL     1      14.246   7.513  10.362  0.00  0.00    +0.214 C 
ATOM     18  O5* UNL     1      13.033   8.033   9.816  0.00  0.00    -0.218 OA
ENDBRANCH  16  17
ENDBRANCH  10  11
TORSDOF 2
