REMARK  Name = 3v04_ligand
REMARK  7 active torsions:
REMARK  status: ('A' for Active; 'I' for Inactive)
REMARK    1  A    between atoms: C1_1  and  C14_23
REMARK    2  A    between atoms: O2_8  and  N4_13
REMARK    3  A    between atoms: O2_8  and  C15_24
REMARK    4  A    between atoms: N3_10  and  C4_12
REMARK    5  A    between atoms: N3_10  and  C8_17
REMARK    6  A    between atoms: O3_11  and  C16_25
REMARK    7  A    between atoms: C15_24  and  C16_25
REMARK                            x       y       z     vdW  Elec       q    Type
REMARK                         _______ _______ _______ _____ _____    ______ ____
ROOT
ATOM      1  C   UNL     1      32.483 -30.442 -28.337  0.00  0.00    +0.074 A 
ATOM     11  C   UNL     1      33.660 -30.100 -27.656  0.00  0.00    +0.094 A 
ATOM     12  C   UNL     1      34.858 -30.748 -28.018  0.00  0.00    +0.060 A 
ATOM     13  C   UNL     1      36.199 -30.642 -27.545  0.00  0.00    +0.241 A 
ATOM     14  N   UNL     1      36.964 -31.488 -28.265  0.00  0.00    -0.246 N 
ATOM     15  H   UNL     1      37.965 -31.642 -28.149  0.00  0.00    +0.293 HD
ATOM     16  N   UNL     1      36.129 -32.119 -29.206  0.00  0.00    -0.335 NA
ATOM     17  C   UNL     1      34.858 -31.672 -29.059  0.00  0.00    -0.020 A 
ATOM     18  C   UNL     1      33.690 -31.991 -29.733  0.00  0.00    -0.013 A 
ATOM     29  C   UNL     1      32.505 -31.377 -29.369  0.00  0.00    +0.012 A 
ENDROOT
BRANCH   1   2
ATOM      2  C   UNL     1      31.140 -29.848 -28.021  0.00  0.00    +0.221 C 
ATOM      3  N   UNL     1      30.248 -29.820 -29.005  0.00  0.00    -0.163 N 
ATOM      4  H   UNL     1      30.505 -30.177 -29.925  0.00  0.00    +0.221 HD
ATOM     10  O   UNL     1      30.873 -29.442 -26.900  0.00  0.00    -0.392 OA
BRANCH   3   5
ATOM      5  O   UNL     1      29.001 -29.325 -28.807  0.00  0.00    -0.255 OA
BRANCH   5   6
ATOM      6  C   UNL     1      27.903 -30.240 -28.734  0.00  0.00    +0.225 C 
BRANCH   6   7
ATOM      7  C   UNL     1      27.432 -30.379 -27.290  0.00  0.00    +0.187 C 
BRANCH   7   8
ATOM      8  O   UNL     1      26.037 -30.670 -27.275  0.00  0.00    -0.393 OA
ATOM      9  H   UNL     1      25.739 -30.758 -26.366  0.00  0.00    +0.209 HD
ENDBRANCH   7   8
ENDBRANCH   6   7
ENDBRANCH   5   6
ENDBRANCH   3   5
ENDBRANCH   1   2
BRANCH  11  19
ATOM     19  N   UNL     1      33.582 -29.195 -26.632  0.00  0.00    -0.269 N 
ATOM     20  H   UNL     1      32.853 -29.408 -25.951  0.00  0.00    +0.210 HD
BRANCH  19  21
ATOM     21  C   UNL     1      34.291 -28.060 -26.342  0.00  0.00    +0.097 A 
ATOM     22  C   UNL     1      33.820 -27.288 -25.283  0.00  0.00    +0.156 A 
ATOM     23  C   UNL     1      34.472 -26.125 -24.896  0.00  0.00    +0.033 A 
ATOM     24  C   UNL     1      35.610 -25.713 -25.564  0.00  0.00    -0.005 A 
ATOM     25  C   UNL     1      36.101 -26.468 -26.625  0.00  0.00    -0.007 A 
ATOM     26  I   UNL     1      36.540 -23.950 -24.943  0.00  0.00    -0.061 I 
ATOM     27  F   UNL     1      32.717 -27.660 -24.610  0.00  0.00    -0.191 F 
ATOM     28  C   UNL     1      35.444 -27.634 -27.012  0.00  0.00    +0.015 A 
ENDBRANCH  19  21
ENDBRANCH  11  19
TORSDOF 7
