REMARK  Name = 5BVD
REMARK  6 active torsions:
REMARK  status: ('A' for Active; 'I' for Inactive)
REMARK    1  A    between atoms: C_5  and  C_24
REMARK    2  A    between atoms: C_7  and  C_8
REMARK    3  A    between atoms: C_7  and  N_22
REMARK    4  A    between atoms: C_7  and  C_23
REMARK    5  A    between atoms: C_14  and  N_27
REMARK    6  A    between atoms: O_21  and  C_23
REMARK                            x       y       z     vdW  Elec       q    Type
REMARK                         _______ _______ _______ _____ _____    ______ ____
ROOT
ATOM      1  C   UNL     1      12.294  -2.720  14.912  0.00  0.00    +0.105 A 
ATOM      2  N   UNL     1      13.010  -3.064  15.939  0.00  0.00    -0.341 N 
ATOM      3  C   UNL     1      14.271  -2.742  15.821  0.00  0.00    +0.096 A 
ATOM      4  C   UNL     1      14.405  -2.109  14.647  0.00  0.00    +0.019 A 
ATOM     19  C   UNL     1      12.417  -3.685  17.122  0.00  0.00    +0.141 C 
ATOM     20  C   UNL     1      11.307  -4.649  16.651  0.00  0.00    +0.130 C 
ATOM     21  N   UNL     1      10.385  -3.982  15.718  0.00  0.00    -0.285 N 
ATOM     33  C   UNL     1      10.866  -3.045  14.857  0.00  0.00    +0.264 C 
ATOM     34  O   UNL     1      10.176  -2.472  14.018  0.00  0.00    -0.268 OA
ATOM     35  C   UNL     1      13.075  -2.084  14.011  0.00  0.00    +0.042 A 
ENDROOT
BRANCH   4   5
ATOM      5  C   UNL     1      15.700  -1.478  14.187  0.00  0.00    +0.078 A 
ATOM      6  C   UNL     1      15.742  -0.556  13.141  0.00  0.00    +0.046 A 
ATOM      7  C   UNL     1      16.987  -0.003  12.817  0.00  0.00    +0.088 A 
ATOM      8  N   UNL     1      18.092  -0.366  13.497  0.00  0.00    -0.331 N 
ATOM      9  H   UNL     1      19.032   0.081  13.248  0.00  0.00    +0.168 HD
ATOM     10  C   UNL     1      18.038  -1.276  14.479  0.00  0.00    +0.224 A 
ATOM     11  N   UNL     1      19.173  -1.609  15.138  0.00  0.00    -0.247 NA
ATOM     18  N   UNL     1      16.851  -1.827  14.820  0.00  0.00    -0.212 NA
BRANCH  11  12
ATOM     12  C   UNL     1      19.237  -2.655  16.162  0.00  0.00    +0.113 C 
ATOM     13  C   UNL     1      18.776  -2.094  17.533  0.00  0.00    +0.055 C 
ATOM     14  C   UNL     1      18.862  -3.217  18.589  0.00  0.00    +0.162 C 
ATOM     15  O   UNL     1      20.248  -3.600  18.743  0.00  0.00    -0.380 OA
ATOM     16  C   UNL     1      20.764  -4.173  17.528  0.00  0.00    +0.162 C 
ATOM     17  C   UNL     1      20.691  -3.173  16.350  0.00  0.00    +0.055 C 
ENDBRANCH  11  12
ENDBRANCH   4   5
BRANCH  21  22
ATOM     22  C   UNL     1       8.959  -4.312  15.661  0.00  0.00    +0.132 C 
BRANCH  22  26
ATOM     26  C   UNL     1       8.714  -5.383  14.587  0.00  0.00    -0.024 A 
ATOM     27  C   UNL     1       9.772  -6.019  13.924  0.00  0.00    +0.006 A 
ATOM     28  C   UNL     1       9.519  -6.995  12.948  0.00  0.00    +0.002 A 
ATOM     29  C   UNL     1       8.192  -7.339  12.645  0.00  0.00    +0.020 A 
ATOM     30  C   UNL     1       7.135  -6.709  13.306  0.00  0.00    +0.041 A 
ATOM     31 CL   UNL     1       5.472  -7.165  12.987  0.00  0.00    -0.084 Cl
ATOM     32  C   UNL     1       7.395  -5.725  14.261  0.00  0.00    +0.025 A 
ENDBRANCH  22  26
BRANCH  22  23
ATOM     23  C   UNL     1       8.342  -4.880  16.972  0.00  0.00    +0.183 C 
BRANCH  23  24
ATOM     24  O   UNL     1       8.537  -3.913  18.008  0.00  0.00    -0.393 OA
ATOM     25  H   UNL     1       9.565  -3.740  18.137  0.00  0.00    +0.209 HD
ENDBRANCH  23  24
ENDBRANCH  22  23
ENDBRANCH  21  22
TORSDOF 6
