REMARK  Name = 3r00_ligand
REMARK  1 active torsions:
REMARK  status: ('A' for Active; 'I' for Inactive)
REMARK    1  A    between atoms: C1_1  and  C5_5
REMARK                            x       y       z     vdW  Elec       q    Type
REMARK                         _______ _______ _______ _____ _____    ______ ____
ROOT
ATOM      1  C   UNL     1     -17.584 -36.097  -2.001  0.00  0.00    +0.154 A 
ATOM      5  C   UNL     1     -18.179 -36.223  -0.768  0.00  0.00    +0.013 A 
ATOM      6  C   UNL     1     -19.060 -37.237  -0.915  0.00  0.00    -0.002 A 
ATOM      7  C   UNL     1     -20.001 -37.849  -0.047  0.00  0.00    +0.001 A 
ATOM      8  C   UNL     1     -20.756 -38.866  -0.617  0.00  0.00    -0.001 A 
ATOM      9 BR   UNL     1     -22.069 -39.888   0.351  0.00  0.00    -0.059 Br
ATOM     10  C   UNL     1     -20.652 -39.302  -1.908  0.00  0.00    -0.005 A 
ATOM     11  C   UNL     1     -19.790 -38.693  -2.773  0.00  0.00    +0.030 A 
ATOM     12  C   UNL     1     -18.997 -37.699  -2.229  0.00  0.00    +0.130 A 
ATOM     13  O   UNL     1     -18.061 -37.023  -2.885  0.00  0.00    -0.244 OA
ENDROOT
BRANCH   1   2
ATOM      2  C   UNL     1     -16.461 -35.265  -2.547  0.00  0.00    +0.099 C 
ATOM      3  O   UNL     1     -15.980 -35.646  -3.697  0.00  0.00    -0.558 OA
ATOM      4  O   UNL     1     -16.013 -34.327  -1.849  0.00  0.00    -0.558 OA
ENDBRANCH   1   2
TORSDOF 1
