REMARK  Name = 4WNP
REMARK  2 active torsions:
REMARK  status: ('A' for Active; 'I' for Inactive)
REMARK    1  A    between atoms: C_1  and  C_18
REMARK    2  A    between atoms: C_4  and  N_23
REMARK                            x       y       z     vdW  Elec       q    Type
REMARK                         _______ _______ _______ _____ _____    ______ ____
ROOT
ATOM      5  C   UNL     1     102.331  42.950  13.830  0.00  0.00    +0.041 A 
ATOM      6  N   UNL     1     101.775  41.898  13.214  0.00  0.00    -0.280 N 
ATOM      7  H   UNL     1     101.845  41.726  12.321  0.00  0.00    +0.189 HD
ATOM      8  N   UNL     1     101.047  41.148  14.083  0.00  0.00    -0.158 NA
ATOM      9  C   UNL     1     101.171  41.709  15.307  0.00  0.00    +0.146 A 
ATOM     10  N   UNL     1     100.491  41.076  16.407  0.00  0.00    -0.282 N 
ATOM     11  H   UNL     1      99.995  40.341  16.216  0.00  0.00    +0.155 HD
ATOM     12  C   UNL     1     100.602  41.443  17.773  0.00  0.00    +0.137 A 
ATOM     13  N   UNL     1     101.453  42.416  18.137  0.00  0.00    -0.199 NA
ATOM     14  C   UNL     1     101.532  42.732  19.449  0.00  0.00    +0.222 A 
ATOM     15  N   UNL     1     100.787  42.106  20.395  0.00  0.00    -0.214 NA
ATOM     16  C   UNL     1      99.894  41.112  20.038  0.00  0.00    +0.078 A 
ATOM     17  C   UNL     1      99.111  40.479  21.041  0.00  0.00    +0.028 A 
ATOM     18  C   UNL     1      98.236  39.478  20.669  0.00  0.00    +0.002 A 
ATOM     19  C   UNL     1      98.106  39.103  19.319  0.00  0.00    +0.001 A 
ATOM     20  C   UNL     1      98.871  39.730  18.330  0.00  0.00    +0.013 A 
ATOM     21  N   UNL     1     102.442  43.725  19.867  0.00  0.00    -0.283 N 
ATOM     22  H   UNL     1     102.277  44.141  20.652  0.00  0.00    +0.155 HD
ATOM     33  C   UNL     1      99.784  40.766  18.715  0.00  0.00    +0.041 A 
ATOM     34  C   UNL     1     101.967  42.874  15.195  0.00  0.00    +0.068 A 
ENDROOT
BRANCH  21  23
ATOM     23  C   UNL     1     103.313  44.377  18.957  0.00  0.00    +0.036 A 
ATOM     24  C   UNL     1     102.819  45.263  18.008  0.00  0.00    +0.025 A 
ATOM     25  C   UNL     1     103.712  45.923  17.162  0.00  0.00    +0.032 A 
ATOM     26  C   UNL     1     105.100  45.699  17.302  0.00  0.00    +0.089 A 
ATOM     27  N   UNL     1     106.210  46.193  16.633  0.00  0.00    -0.236 NA
ATOM     28  C   UNL     1     107.316  45.633  17.170  0.00  0.00    +0.197 A 
ATOM     29  N   UNL     1     106.927  44.792  18.158  0.00  0.00    -0.344 N 
ATOM     30  H   UNL     1     107.477  44.305  18.682  0.00  0.00    +0.167 HD
ATOM     31  C   UNL     1     105.570  44.832  18.254  0.00  0.00    +0.068 A 
ATOM     32  C   UNL     1     104.668  44.161  19.110  0.00  0.00    +0.051 A 
ENDBRANCH  21  23
BRANCH   5   1
ATOM      1  C   UNL     1     103.150  43.961  13.065  0.00  0.00    +0.037 C 
ATOM      2  C   UNL     1     104.482  44.157  13.698  0.00  0.00    +0.010 C 
ATOM      3  C   UNL     1     104.339  45.624  13.447  0.00  0.00    +0.001 C 
ATOM      4  C   UNL     1     102.868  45.430  13.274  0.00  0.00    +0.010 C 
ENDBRANCH   5   1
TORSDOF 2
