REMARK  Name = L28
REMARK  8 active torsions:
REMARK  status: ('A' for Active; 'I' for Inactive)
REMARK    1  A    between atoms: C4_4  and  C27_11
REMARK    2  A    between atoms: C3_5  and  C2_17
REMARK    3  A    between atoms: C11_6  and  N10_21
REMARK    4  A    between atoms: C13_8  and  S18_28
REMARK    5  A    between atoms: C7_9  and  C8_12
REMARK    6  A    between atoms: C22_18  and  N21_22
REMARK    7  A    between atoms: C24_19  and  N21_22
REMARK    8  A    between atoms: N21_22  and  S18_28
REMARK                            x       y       z     vdW  Elec       q    Type
REMARK                         _______ _______ _______ _____ _____    ______ ____
ROOT
ATOM      1  C   UNL     1       1.268  55.001  24.749  0.00  0.00    +0.045 A 
ATOM      2  C   UNL     1       2.197  55.973  24.379  0.00  0.00    +0.211 A 
ATOM      3  O   UNL     1       2.637  56.873  25.299  0.00  0.00    -0.285 OA
ATOM      4  C   UNL     1       2.698  56.037  23.084  0.00  0.00    +0.114 A 
ATOM     19  C   UNL     1       2.221  55.102  22.144  0.00  0.00    +0.040 A 
ATOM     20  C   UNL     1       1.280  54.107  22.505  0.00  0.00    +0.124 A 
ATOM     29  C   UNL     1       0.805  54.084  23.815  0.00  0.00    +0.023 A 
ENDROOT
BRANCH   4   5
ATOM      5  N   UNL     1       3.608  57.048  22.871  0.00  0.00    -0.171 NA
ATOM      6  C   UNL     1       4.140  57.393  21.697  0.00  0.00    +0.286 C 
ATOM     18  O   UNL     1       4.027  56.698  20.711  0.00  0.00    -0.266 OA
BRANCH   6   7
ATOM      7  C   UNL     1       4.867  58.681  21.477  0.00  0.00    +0.132 A 
ATOM      8  C   UNL     1       4.622  59.968  22.205  0.00  0.00    +0.006 A 
ATOM     11  C   UNL     1       5.520  60.854  21.595  0.00  0.00    +0.068 A 
ATOM     15  C   UNL     1       6.251  60.115  20.537  0.00  0.00    +0.064 A 
ATOM     16  C   UNL     1       7.316  60.631  19.604  0.00  0.00    +0.052 C 
ATOM     17  N   UNL     1       5.794  58.861  20.530  0.00  0.00    -0.245 NA
BRANCH  11  12
ATOM     12  C   UNL     1       5.782  62.303  21.882  0.00  0.00    +0.285 C 
ATOM     13  N   UNL     1       5.145  62.982  22.943  0.00  0.00    -0.084 NA
ATOM     14  O   UNL     1       6.580  62.926  21.196  0.00  0.00    -0.267 OA
ENDBRANCH  11  12
BRANCH   8   9
ATOM      9  C   UNL     1       3.649  60.225  23.339  0.00  0.00    +0.028 C 
ATOM     10  C   UNL     1       4.327  60.004  24.682  0.00  0.00    +0.005 C 
ENDBRANCH   8   9
ENDBRANCH   6   7
ENDBRANCH   4   5
BRANCH  20  21
ATOM     21  S   UNL     1       0.708  53.024  21.443  0.00  0.00    +0.063 S 
ATOM     22  O   UNL     1      -0.635  52.690  21.805  0.00  0.00    -0.153 OA
ATOM     28  O   UNL     1       0.697  53.680  20.167  0.00  0.00    -0.153 OA
BRANCH  21  23
ATOM     23  N   UNL     1       1.588  51.765  21.421  0.00  0.00    -0.156 NA
BRANCH  23  24
ATOM     24  C   UNL     1       1.242  50.603  22.240  0.00  0.00    +0.096 C 
ATOM     25  C   UNL     1       2.157  50.547  23.447  0.00  0.00    +0.021 C 
ENDBRANCH  23  24
BRANCH  23  26
ATOM     26  C   UNL     1       2.821  51.731  20.631  0.00  0.00    +0.096 C 
ATOM     27  C   UNL     1       2.790  50.660  19.558  0.00  0.00    +0.021 C 
ENDBRANCH  23  26
ENDBRANCH  21  23
ENDBRANCH  20  21
TORSDOF 8
