REMARK  Name = 3cth_ligand
REMARK  5 active torsions:
REMARK  status: ('A' for Active; 'I' for Inactive)
REMARK    1  A    between atoms: C11_11  and  C20_20
REMARK    2  A    between atoms: C12_12  and  N23_23
REMARK    3  A    between atoms: C13_13  and  O27_27
REMARK    4  A    between atoms: C14_14  and  O27_27
REMARK    5  A    between atoms: C18_18  and  C20_20
REMARK                            x       y       z     vdW  Elec       q    Type
REMARK                         _______ _______ _______ _____ _____    ______ ____
ROOT
ATOM     12  C   UNL     1       0.552   8.048  53.644  0.00  0.00    +0.056 A 
ATOM     13  C   UNL     1       0.292   9.247  52.984  0.00  0.00    +0.032 A 
ATOM     14  C   UNL     1       0.391  10.457  53.660  0.00  0.00    +0.153 A 
ATOM     15  F   UNL     1       0.117  11.594  52.989  0.00  0.00    -0.192 F 
ATOM     16  C   UNL     1       0.764  10.483  55.004  0.00  0.00    +0.138 A 
ATOM     27  C   UNL     1       1.035   9.286  55.669  0.00  0.00    +0.009 A 
ATOM     28  C   UNL     1       0.919   8.066  54.999  0.00  0.00    -0.007 A 
ENDROOT
BRANCH  12  10
ATOM      4  C   UNL     1      -0.644   4.308  52.461  0.00  0.00    +0.216 C 
ATOM      5  O   UNL     1       0.010   4.322  53.488  0.00  0.00    -0.384 OA
ATOM      6  N   UNL     1      -0.648   5.356  51.552  0.00  0.00    -0.179 N 
ATOM      7  H   UNL     1      -1.088   5.185  50.671  0.00  0.00    +0.226 HD
ATOM      8  C   UNL     1      -0.105   6.613  51.741  0.00  0.00    +0.315 C 
ATOM      9  O   UNL     1      -0.158   7.426  50.829  0.00  0.00    -0.382 OA
ATOM     10  N   UNL     1       0.449   6.803  52.992  0.00  0.00    -0.221 N 
ATOM     11  H   UNL     1       0.803   5.999  53.470  0.00  0.00    +0.223 HD
BRANCH   4   3
ATOM      3  C   UNL     1      -1.103   3.038  51.784  0.00  0.00    +0.205 C 
BRANCH   3   2
ATOM      1  C   UNL     1       0.114   1.053  52.675  0.00  0.00    -0.004 A 
ATOM      2  C   UNL     1      -1.010   1.891  52.732  0.00  0.00    -0.028 A 
ATOM     29  C   UNL     1      -2.030   1.669  53.684  0.00  0.00    -0.004 A 
ATOM     30  C   UNL     1      -1.921   0.598  54.572  0.00  0.00    +0.024 A 
ATOM     31  C   UNL     1      -0.798  -0.231  54.488  0.00  0.00    +0.125 A 
ATOM     32  F   UNL     1      -0.681  -1.265  55.325  0.00  0.00    -0.189 F 
ATOM     33  C   UNL     1       0.213  -0.013  53.553  0.00  0.00    +0.024 A 
ENDBRANCH   3   2
ENDBRANCH   4   3
ENDBRANCH  12  10
BRANCH  16  17
ATOM     17  O   UNL     1       0.860  11.692  55.657  0.00  0.00    -0.261 OA
BRANCH  17  18
ATOM     18  C   UNL     1      -0.191  12.054  56.490  0.00  0.00    +0.120 A 
ATOM     19  C   UNL     1       0.104  12.981  57.491  0.00  0.00    +0.066 A 
ATOM     20  C   UNL     1      -0.909  13.403  58.363  0.00  0.00    +0.097 A 
ATOM     21  N   UNL     1      -0.602  14.345  59.377  0.00  0.00    -0.325 N 
ATOM     22  H   UNL     1       0.356  14.711  59.467  0.00  0.00    +0.176 HD
ATOM     23  H   UNL     1      -1.337  14.663  60.024  0.00  0.00    +0.176 HD
ATOM     24  N   UNL     1      -2.175  12.928  58.264  0.00  0.00    -0.301 NA
ATOM     25  C   UNL     1      -2.436  12.023  57.286  0.00  0.00    +0.061 A 
ATOM     26  C   UNL     1      -1.492  11.564  56.384  0.00  0.00    +0.038 A 
ENDBRANCH  17  18
ENDBRANCH  16  17
TORSDOF 5
