REMARK  Name = 201
REMARK  3 active torsions:
REMARK  status: ('A' for Active; 'I' for Inactive)
REMARK    1  A    between atoms: C26_11  and  C21_16
REMARK    2  A    between atoms: C24_13  and  C23_14
REMARK    3  A    between atoms: C23_14  and  C22_15
REMARK                            x       y       z     vdW  Elec       q    Type
REMARK                         _______ _______ _______ _____ _____    ______ ____
ROOT
ATOM      1  C   UNL     1       0.000  10.134  -4.171  0.00  0.00    +0.000 A 
ATOM      2  C   UNL     1       1.000  10.308  -3.344  0.00  0.00    +0.000 A 
ATOM      3  C   UNL     1       2.000   9.959  -3.791  0.00  0.00    +0.000 A 
ATOM      4  C   UNL     1       2.000   9.409  -5.050  0.00  0.00    +0.000 A 
ATOM      5  C   UNL     1       1.000   9.236  -5.923  0.00  0.00    +0.000 A 
ATOM      6  C   UNL     1       0.000   9.611  -5.462  0.00  0.00    +0.000 A 
ENDROOT
TORSDOF 0
