REMARK  Name = APGE
REMARK  7 active torsions:
REMARK  status: ('A' for Active; 'I' for Inactive)
REMARK    1  A    between atoms: C1_1  and  C2_3
REMARK    2  A    between atoms: C2_3  and  O2_4
REMARK    3  A    between atoms: O2_4  and  C3_5
REMARK    4  A    between atoms: C3_5  and  C4_6
REMARK    5  A    between atoms: C4_6  and  O3_10
REMARK    6  A    between atoms: C6_8  and  C5_9
REMARK    7  A    between atoms: C5_9  and  O3_10
REMARK                            x       y       z     vdW  Elec       q    Type
REMARK                         _______ _______ _______ _____ _____    ______ ____
ROOT
ATOM      4  C   UNL     1      -4.269  -4.548  38.263  0.00  0.00    +0.174 C 
ENDROOT
BRANCH   4   3
ATOM      3  O   UNL     1      -5.179  -3.585  37.812  0.00  0.00    -0.348 OA
BRANCH   3   2
ATOM      2  C   UNL     1      -4.874  -3.057  36.553  0.00  0.00    +0.178 C 
BRANCH   2   1
ATOM      1  C   UNL     1      -4.412  -4.186  35.635  0.00  0.00    +0.214 C 
ATOM     10  O   UNL     1      -5.309  -5.259  35.724  0.00  0.00    -0.218 OA
ENDBRANCH   2   1
ENDBRANCH   3   2
ENDBRANCH   4   3
BRANCH   4   5
ATOM      5  C   UNL     1      -4.928  -5.373  39.364  0.00  0.00    +0.174 C 
BRANCH   5   6
ATOM      6  O   UNL     1      -4.069  -6.393  39.787  0.00  0.00    -0.348 OA
BRANCH   6   7
ATOM      7  C   UNL     1      -3.011  -5.975  40.607  0.00  0.00    +0.178 C 
BRANCH   7   8
ATOM      8  C   UNL     1      -3.355  -4.681  41.345  0.00  0.00    +0.214 C 
ATOM      9  O   UNL     1      -4.522  -4.841  42.099  0.00  0.00    -0.218 OA
ENDBRANCH   7   8
ENDBRANCH   6   7
ENDBRANCH   5   6
ENDBRANCH   4   5
TORSDOF 7
