REMARK  Name = 4XHK
REMARK  5 active torsions:
REMARK  status: ('A' for Active; 'I' for Inactive)
REMARK    1  A    between atoms: C_2  and  C_4
REMARK    2  A    between atoms: C_5  and  N_19
REMARK    3  A    between atoms: C_7  and  C_12
REMARK    4  A    between atoms: O_13  and  C_20
REMARK    5  A    between atoms: O_13  and  C_24
REMARK                            x       y       z     vdW  Elec       q    Type
REMARK                         _______ _______ _______ _____ _____    ______ ____
ROOT
ATOM      1  O   UNL     1     -18.358  36.472   3.698  0.00  0.00    -0.268 OA
ATOM      2  C   UNL     1     -18.738  36.852   2.577  0.00  0.00    +0.267 C 
ATOM      3  N   UNL     1     -18.427  36.110   1.490  0.00  0.00    -0.276 N 
ATOM      4  H   UNL     1     -18.900  36.413   0.579  0.00  0.00    +0.155 HD
ENDROOT
BRANCH   3   5
ATOM      5  C   UNL     1     -17.561  34.983   1.380  0.00  0.00    +0.094 A 
ATOM      6  C   UNL     1     -17.264  34.508   0.145  0.00  0.00    +0.145 A 
ATOM      7  C   UNL     1     -16.366  33.444  -0.111  0.00  0.00    +0.067 A 
ATOM      8  C   UNL     1     -15.787  32.785   1.004  0.00  0.00    +0.114 A 
ATOM      9  N   UNL     1     -16.066  33.258   2.208  0.00  0.00    -0.261 NA
ATOM     17  C   UNL     1     -16.899  34.274   2.401  0.00  0.00    +0.137 A 
BRANCH   6  10
ATOM     10  O   UNL     1     -17.855  35.141  -0.909  0.00  0.00    -0.486 OA
BRANCH  10  11
ATOM     11  C   UNL     1     -18.043  34.433  -2.162  0.00  0.00    +0.188 C 
ATOM     12  C   UNL     1     -19.320  34.928  -2.836  0.00  0.00    +0.061 C 
ATOM     13  C   UNL     1     -18.866  36.127  -3.621  0.00  0.00    +0.084 C 
ATOM     14  N   UNL     1     -17.620  35.603  -4.082  0.00  0.00    -0.312 NA
ATOM     15  H   UNL     1     -17.230  35.809  -5.057  0.00  0.00    +0.122 HD
ATOM     16  C   UNL     1     -16.922  34.762  -3.113  0.00  0.00    +0.125 C 
ENDBRANCH  10  11
ENDBRANCH   6  10
ENDBRANCH   3   5
BRANCH   2  18
ATOM     18  C   UNL     1     -19.825  37.776   2.188  0.00  0.00    +0.134 A 
ATOM     19  N   UNL     1     -20.050  37.980   0.875  0.00  0.00    -0.234 NA
ATOM     20  C   UNL     1     -21.018  38.825   0.563  0.00  0.00    +0.115 A 
ATOM     21  S   UNL     1     -21.589  39.427   2.067  0.00  0.00    -0.075 S 
ATOM     30  C   UNL     1     -20.650  38.435   2.994  0.00  0.00    +0.080 A 
BRANCH  20  22
ATOM     22  C   UNL     1     -21.349  39.246  -0.761  0.00  0.00    +0.077 A 
ATOM     23  C   UNL     1     -22.469  39.972  -1.034  0.00  0.00    +0.136 A 
ATOM     24  F   UNL     1     -23.293  40.215  -0.026  0.00  0.00    -0.205 F 
ATOM     25  C   UNL     1     -22.777  40.341  -2.314  0.00  0.00    +0.039 A 
ATOM     26  C   UNL     1     -21.956  39.981  -3.364  0.00  0.00    +0.006 A 
ATOM     27  C   UNL     1     -20.865  39.250  -3.152  0.00  0.00    +0.039 A 
ATOM     28  C   UNL     1     -20.583  38.949  -1.829  0.00  0.00    +0.136 A 
ATOM     29  F   UNL     1     -19.439  38.343  -1.654  0.00  0.00    -0.205 F 
ENDBRANCH  20  22
ENDBRANCH   2  18
TORSDOF 5
