REMARK  Name = 5K4I
REMARK  7 active torsions:
REMARK  status: ('A' for Active; 'I' for Inactive)
REMARK    1  A    between atoms: C_7  and  N_21
REMARK    2  A    between atoms: C_7  and  C_24
REMARK    3  A    between atoms: C_7  and  C_26
REMARK    4  A    between atoms: C_10  and  N_11
REMARK    5  A    between atoms: C_12  and  N_14
REMARK    6  A    between atoms: C_17  and  C_19
REMARK    7  A    between atoms: C_24  and  O_25
REMARK                            x       y       z     vdW  Elec       q    Type
REMARK                         _______ _______ _______ _____ _____    ______ ____
ROOT
ATOM      8  C   UNL     1      13.984  -1.650  14.130  0.00  0.00    +0.007 C 
ATOM      9  C   UNL     1      12.804  -1.200  13.539  0.00  0.00    +0.080 C 
ATOM     10  C   UNL     1      11.570  -1.655  14.054  0.00  0.00    +0.253 C 
ATOM     11  O   UNL     1      10.513  -1.263  13.562  0.00  0.00    -0.268 OA
ATOM     12  N   UNL     1      11.571  -2.505  15.102  0.00  0.00    -0.306 N 
ATOM     13  C   UNL     1      12.728  -2.951  15.666  0.00  0.00    +0.090 C 
ATOM     26  C   UNL     1      13.935  -2.546  15.212  0.00  0.00    +0.028 C 
ENDROOT
BRANCH   8   7
ATOM      3  N   UNL     1      18.668  -1.532  14.915  0.00  0.00    -0.269 N 
ATOM      4  H   UNL     1      19.636  -1.317  14.514  0.00  0.00    +0.156 HD
ATOM      5  C   UNL     1      17.580  -1.111  14.170  0.00  0.00    +0.221 A 
ATOM      6  N   UNL     1      16.370  -1.545  14.442  0.00  0.00    -0.214 NA
ATOM      7  C   UNL     1      15.321  -1.185  13.700  0.00  0.00    +0.076 A 
ATOM     27  C   UNL     1      15.511  -0.287  12.646  0.00  0.00    +0.048 A 
ATOM     28  C   UNL     1      16.806   0.151  12.397  0.00  0.00    +0.116 A 
ATOM     29  N   UNL     1      17.800  -0.277  13.160  0.00  0.00    -0.223 NA
BRANCH   3   2
ATOM      1  C   UNL     1      17.642  -2.215  17.070  0.00  0.00    +0.065 A 
ATOM      2  C   UNL     1      18.632  -2.206  16.132  0.00  0.00    +0.123 A 
ATOM     30  N   UNL     1      19.648  -2.973  16.599  0.00  0.00    -0.254 N 
ATOM     31  N   UNL     1      19.280  -3.468  17.854  0.00  0.00    -0.178 NA
ATOM     32  C   UNL     1      20.911  -3.242  15.900  0.00  0.00    +0.174 C 
ATOM     33  C   UNL     1      18.075  -3.020  18.132  0.00  0.00    +0.136 A 
ENDBRANCH   3   2
ENDBRANCH   8   7
BRANCH  12  14
ATOM     14  C   UNL     1      10.296  -2.948  15.671  0.00  0.00    +0.145 C 
BRANCH  14  15
ATOM     15  C   UNL     1       9.942  -4.327  15.192  0.00  0.00    -0.020 A 
ATOM     16  C   UNL     1      10.746  -5.404  15.512  0.00  0.00    +0.045 A 
ATOM     17  C   UNL     1      10.425  -6.664  15.061  0.00  0.00    +0.142 A 
ATOM     18  F   UNL     1      11.207  -7.719  15.368  0.00  0.00    -0.204 F 
ATOM     19  C   UNL     1       9.294  -6.838  14.295  0.00  0.00    +0.076 A 
ATOM     20 CL   UNL     1       8.885  -8.420  13.746  0.00  0.00    -0.081 Cl
ATOM     21  C   UNL     1       8.480  -5.768  13.979  0.00  0.00    +0.023 A 
ATOM     22  C   UNL     1       8.809  -4.503  14.426  0.00  0.00    +0.007 A 
ENDBRANCH  14  15
BRANCH  14  23
ATOM     23  C   UNL     1      10.462  -2.944  17.190  0.00  0.00    +0.185 C 
BRANCH  23  24
ATOM     24  O   UNL     1       9.162  -3.040  17.772  0.00  0.00    -0.393 OA
ATOM     25  H   UNL     1       8.580  -2.221  17.468  0.00  0.00    +0.209 HD
ENDBRANCH  23  24
ENDBRANCH  14  23
ENDBRANCH  12  14
TORSDOF 6
