REMARK  Name = 5B0X
REMARK  5 active torsions:
REMARK  status: ('A' for Active; 'I' for Inactive)
REMARK    1  A    between atoms: C_2  and  C_7
REMARK    2  A    between atoms: C_5  and  C_12
REMARK    3  A    between atoms: C_16  and  C_17
REMARK    4  A    between atoms: C_21  and  O_24
REMARK    5  A    between atoms: O_24  and  C_25
REMARK                            x       y       z     vdW  Elec       q    Type
REMARK                         _______ _______ _______ _____ _____    ______ ____
ROOT
ATOM     10  C   UNL     1     -12.754   6.727  12.602  0.00  0.00    +0.041 A 
ATOM     11  S   UNL     1     -13.353   7.166  11.089  0.00  0.00    -0.052 S 
ATOM     12  C   UNL     1     -13.094   8.825  11.454  0.00  0.00    +0.165 A 
ATOM     13  N   UNL     1     -13.386   9.922  10.516  0.00  0.00    -0.261 N 
ATOM     14  H   UNL     1     -13.329  10.937  10.850  0.00  0.00    +0.157 HD
ATOM     15  C   UNL     1     -13.726   9.653   9.233  0.00  0.00    +0.250 C 
ATOM     16  O   UNL     1     -14.046   8.522   8.888  0.00  0.00    -0.270 OA
ATOM     25  N   UNL     1     -12.569   9.010  12.710  0.00  0.00    -0.232 NA
ATOM     26  C   UNL     1     -12.362   7.832  13.387  0.00  0.00    +0.129 A 
ENDROOT
BRANCH  10   9
ATOM      1  C   UNL     1     -12.058   5.072  14.232  0.00  0.00    +0.009 A 
ATOM      2  C   UNL     1     -11.943   3.727  14.580  0.00  0.00    +0.010 A 
ATOM      3  C   UNL     1     -12.419   2.730  13.701  0.00  0.00    -0.003 A 
ATOM      7  C   UNL     1     -13.055   3.061  12.484  0.00  0.00    +0.010 A 
ATOM      8  C   UNL     1     -13.166   4.411  12.132  0.00  0.00    +0.009 A 
ATOM      9  C   UNL     1     -12.650   5.401  12.997  0.00  0.00    -0.010 A 
BRANCH   3   4
ATOM      4  C   UNL     1     -12.259   1.324  14.085  0.00  0.00    +0.072 C 
ATOM      5  O   UNL     1     -12.899   0.449  13.497  0.00  0.00    -0.545 OA
ATOM      6  O   UNL     1     -11.442   1.060  14.967  0.00  0.00    -0.545 OA
ENDBRANCH   3   4
ENDBRANCH  10   9
BRANCH  15  17
ATOM     17  C   UNL     1     -13.653  10.787   8.292  0.00  0.00    +0.037 A 
ATOM     18  C   UNL     1     -13.575  12.119   8.758  0.00  0.00    +0.016 A 
ATOM     19  C   UNL     1     -13.495  13.175   7.833  0.00  0.00    +0.046 A 
ATOM     20  C   UNL     1     -13.487  12.897   6.448  0.00  0.00    +0.120 A 
ATOM     23  C   UNL     1     -13.594  11.565   5.981  0.00  0.00    +0.046 A 
ATOM     24  C   UNL     1     -13.673  10.509   6.905  0.00  0.00    +0.016 A 
BRANCH  20  21
ATOM     21  O   UNL     1     -13.394  13.999   5.594  0.00  0.00    -0.495 OA
ATOM     22  C   UNL     1     -13.415  13.756   4.187  0.00  0.00    +0.277 C 
ENDBRANCH  20  21
ENDBRANCH  15  17
TORSDOF 4
