REMARK  Name = DXH
REMARK  5 active torsions:
REMARK  status: ('A' for Active; 'I' for Inactive)
REMARK    1  A    between atoms: C03_3  and  N21_21
REMARK    2  A    between atoms: C05_5  and  C08_8
REMARK    3  A    between atoms: N10_10  and  C11_11
REMARK    4  A    between atoms: C15_15  and  C17_17
REMARK    5  A    between atoms: C24_24  and  C32_32
REMARK                            x       y       z     vdW  Elec       q    Type
REMARK                         _______ _______ _______ _____ _____    ______ ____
ROOT
ATOM      1  C   UNL     1     -82.142 -22.359  84.367  0.00  0.00    +0.032 C 
ATOM      2  C   UNL     1     -82.721 -21.306  85.278  0.00  0.00    -0.006 A 
ATOM      3  C   UNL     1     -83.430 -21.684  86.362  0.00  0.00    -0.003 A 
ATOM      4  C   UNL     1     -83.977 -20.702  87.181  0.00  0.00    +0.004 A 
ATOM      5  C   UNL     1     -83.798 -19.381  86.878  0.00  0.00    +0.057 A 
ATOM     19  C   UNL     1     -83.106 -19.008  85.781  0.00  0.00    +0.021 A 
ATOM     20  C   UNL     1     -82.568 -19.949  84.974  0.00  0.00    +0.069 A 
ENDROOT
BRANCH  20  21
ATOM     21  N   UNL     1     -81.866 -19.437  83.805  0.00  0.00    -0.184 NA
ATOM     22  C   UNL     1     -80.412 -19.227  83.778  0.00  0.00    +0.209 C 
ATOM     23  N   UNL     1     -79.723 -19.501  84.820  0.00  0.00    -0.368 NA
ATOM     24  C   UNL     1     -78.439 -19.323  84.840  0.00  0.00    +0.208 C 
ATOM     31  N   UNL     1     -77.753 -18.873  83.832  0.00  0.00    -0.165 NA
ATOM     32  C   UNL     1     -78.368 -18.551  82.709  0.00  0.00    +0.157 A 
ATOM     33  N   UNL     1     -77.958 -18.054  81.555  0.00  0.00    -0.234 N 
ATOM     34  C   UNL     1     -76.621 -17.747  81.214  0.00  0.00    +0.155 C 
ATOM     35  N   UNL     1     -78.959 -17.904  80.757  0.00  0.00    -0.166 NA
ATOM     36  C   UNL     1     -80.060 -18.280  81.366  0.00  0.00    +0.127 A 
ATOM     37  C   UNL     1     -79.714 -18.710  82.635  0.00  0.00    +0.100 A 
BRANCH  24  25
ATOM     25  C   UNL     1     -77.700 -19.699  86.100  0.00  0.00    +0.065 A 
ATOM     26  C   UNL     1     -78.408 -20.214  87.153  0.00  0.00    +0.103 A 
ATOM     27  N   UNL     1     -77.796 -20.547  88.220  0.00  0.00    -0.242 NA
ATOM     28  C   UNL     1     -76.516 -20.407  88.339  0.00  0.00    +0.099 A 
ATOM     29  C   UNL     1     -75.740 -19.889  87.323  0.00  0.00    +0.021 A 
ATOM     30  C   UNL     1     -76.349 -19.520  86.173  0.00  0.00    +0.007 A 
ENDBRANCH  24  25
ENDBRANCH  20  21
BRANCH   5   6
ATOM      6  C   UNL     1     -84.385 -18.242  87.714  0.00  0.00    +0.269 C 
ATOM      7  N   UNL     1     -85.479 -18.605  88.620  0.00  0.00    -0.175 NA
ATOM     18  O   UNL     1     -84.020 -17.179  87.601  0.00  0.00    -0.268 OA
BRANCH   7   8
ATOM      8  C   UNL     1     -86.121 -17.624  89.392  0.00  0.00    +0.074 A 
ATOM      9  C   UNL     1     -86.443 -17.930  90.684  0.00  0.00    +0.017 A 
ATOM     10  C   UNL     1     -87.115 -17.009  91.449  0.00  0.00    +0.001 A 
ATOM     11  C   UNL     1     -87.436 -15.800  90.941  0.00  0.00    +0.004 A 
ATOM     12  C   UNL     1     -87.125 -15.499  89.654  0.00  0.00    +0.073 A 
ATOM     17  C   UNL     1     -86.439 -16.450  88.856  0.00  0.00    +0.021 A 
BRANCH  12  13
ATOM     13  C   UNL     1     -87.501 -14.134  89.126  0.00  0.00    +0.419 C 
ATOM     14  F   UNL     1     -88.623 -13.635  89.630  0.00  0.00    -0.166 F 
ATOM     15  F   UNL     1     -86.536 -13.353  89.536  0.00  0.00    -0.166 F 
ATOM     16  F   UNL     1     -87.638 -14.112  87.830  0.00  0.00    -0.166 F 
ENDBRANCH  12  13
ENDBRANCH   7   8
ENDBRANCH   5   6
TORSDOF 5
