REMARK  Name = A42J
REMARK  4 active torsions:
REMARK  status: ('A' for Active; 'I' for Inactive)
REMARK    1  A    between atoms: C2_8  and  C1_9
REMARK    2  A    between atoms: C1_9  and  C_10
REMARK    3  A    between atoms: C2_19  and  C1_20
REMARK    4  A    between atoms: C1_20  and  C_21
REMARK                            x       y       z     vdW  Elec       q    Type
REMARK                         _______ _______ _______ _____ _____    ______ ____
ROOT
ATOM      1 CL   UNL     1       4.210 162.968 388.051  0.00  0.00    -0.081 Cl
ATOM      2  C   UNL     1       4.493 161.745 389.245  0.00  0.00    +0.068 A 
ATOM      3  C   UNL     1       5.314 161.982 390.344  0.00  0.00    +0.068 A 
ATOM      4  C   UNL     1       5.564 160.968 391.245  0.00  0.00    +0.012 A 
ATOM      5  C   UNL     1       4.988 159.726 391.055  0.00  0.00    -0.003 A 
ATOM      6  C   UNL     1       4.133 159.486 389.985  0.00  0.00    -0.020 A 
ATOM     10 CL   UNL     1       6.006 163.541 390.635  0.00  0.00    -0.081 Cl
ATOM     11  C   UNL     1       3.898 160.510 389.073  0.00  0.00    +0.008 A 
ENDROOT
BRANCH   6   7
ATOM      7  C   UNL     1       3.376 158.188 389.870  0.00  0.00    +0.047 C 
BRANCH   7   8
ATOM      8  C   UNL     1       4.031 157.071 390.661  0.00  0.00    +0.114 C 
ATOM      9  N   UNL     1       4.441 157.285 392.049  0.00  0.00    -0.131 NA
ENDBRANCH   7   8
ENDBRANCH   6   7
TORSDOF 2
