REMARK  Name = 3VS6
REMARK  13 active torsions:
REMARK  status: ('A' for Active; 'I' for Inactive)
REMARK    1  A    between atoms: C_2  and  O_3
REMARK    2  A    between atoms: O_3  and  C_4
REMARK    3  A    between atoms: C_4  and  C_5
REMARK    4  A    between atoms: C_4  and  C_6
REMARK    5  A    between atoms: C_4  and  C_7
REMARK    6  A    between atoms: N_8  and  C_9
REMARK    7  A    between atoms: C_11  and  O_12
REMARK    8  A    between atoms: O_12  and  C_13
REMARK    9  A    between atoms: C_15  and  C_17
REMARK   10  A    between atoms: N_19  and  C_20
REMARK   11  A    between atoms: C_20  and  C_21
REMARK   12  A    between atoms: C_20  and  C_22
REMARK   13  A    between atoms: C_26  and  N_27
REMARK                            x       y       z     vdW  Elec       q    Type
REMARK                         _______ _______ _______ _____ _____    ______ ____
ROOT
ATOM      5  C   UNL     1      -3.769  -2.370  72.891  0.00  0.00    +0.078 A 
ATOM      6  C   UNL     1      -3.391  -1.850  74.115  0.00  0.00    +0.142 A 
ATOM      7  C   UNL     1      -3.823  -0.575  74.516  0.00  0.00    +0.057 A 
ATOM      8  C   UNL     1      -4.660   0.184  73.686  0.00  0.00    +0.006 A 
ATOM     24  C   UNL     1      -5.053  -0.358  72.463  0.00  0.00    +0.012 A 
ATOM     27  C   UNL     1      -4.616  -1.626  72.067  0.00  0.00    +0.028 A 
ENDROOT
BRANCH   8   9
ATOM      9  C   UNL     1      -5.129   1.535  74.145  0.00  0.00    +0.105 A 
ATOM     10  C   UNL     1      -4.339   2.621  74.551  0.00  0.00    +0.086 A 
ATOM     11  C   UNL     1      -2.964   2.848  74.640  0.00  0.00    +0.131 A 
ATOM     12  N   UNL     1      -2.499   4.053  75.071  0.00  0.00    -0.220 NA
ATOM     13  C   UNL     1      -3.345   5.032  75.417  0.00  0.00    +0.225 A 
ATOM     14  N   UNL     1      -4.673   4.859  75.342  0.00  0.00    -0.216 NA
ATOM     18  C   UNL     1      -5.186   3.672  74.914  0.00  0.00    +0.164 A 
ATOM     19  N   UNL     1      -6.433   3.234  74.740  0.00  0.00    -0.243 N 
ATOM     23  N   UNL     1      -6.432   1.914  74.256  0.00  0.00    -0.168 NA
BRANCH  11  15
ATOM     15  N   UNL     1      -2.069   1.887  74.300  0.00  0.00    -0.343 N 
ATOM     16  H   UNL     1      -1.020   2.082  74.376  0.00  0.00    +0.144 HD
ATOM     17  H   UNL     1      -2.412   0.934  73.956  0.00  0.00    +0.144 HD
ENDBRANCH  11  15
BRANCH  19  20
ATOM     20  C   UNL     1      -7.764   3.874  74.953  0.00  0.00    +0.103 C 
ATOM     21  C   UNL     1      -8.444   4.231  73.626  0.00  0.00    +0.032 C 
ATOM     22  C   UNL     1      -8.628   2.959  75.812  0.00  0.00    +0.032 C 
ENDBRANCH  19  20
ENDBRANCH   8   9
BRANCH   5   3
ATOM      1  O   UNL     1      -3.018  -3.362  70.347  0.00  0.00    -0.226 OA
ATOM      2  C   UNL     1      -2.932  -4.070  71.345  0.00  0.00    +0.405 C 
ATOM      3  N   UNL     1      -3.293  -3.657  72.565  0.00  0.00    -0.248 N 
ATOM      4  H   UNL     1      -3.214  -4.365  73.363  0.00  0.00    +0.158 HD
BRANCH   2  28
ATOM     28  O   UNL     1      -2.488  -5.457  71.186  0.00  0.00    -0.444 OA
BRANCH  28  29
ATOM     29  C   UNL     1      -1.427  -5.898  70.325  0.00  0.00    +0.107 C 
ATOM     30  C   UNL     1      -0.327  -4.854  70.194  0.00  0.00    +0.055 C 
ATOM     31  C   UNL     1      -0.832  -7.171  70.914  0.00  0.00    +0.055 C 
ATOM     32  C   UNL     1      -2.056  -6.222  68.976  0.00  0.00    +0.055 C 
ENDBRANCH  28  29
ENDBRANCH   2  28
ENDBRANCH   5   3
BRANCH   6  25
ATOM     25  O   UNL     1      -2.565  -2.626  74.893  0.00  0.00    -0.493 OA
ATOM     26  C   UNL     1      -2.102  -2.145  76.151  0.00  0.00    +0.277 C 
ENDBRANCH   6  25
TORSDOF 7
