REMARK  Name = 4FT9
REMARK  2 active torsions:
REMARK  status: ('A' for Active; 'I' for Inactive)
REMARK    1  A    between atoms: C_2  and  C_3
REMARK    2  A    between atoms: C_8  and  N_9
REMARK                            x       y       z     vdW  Elec       q    Type
REMARK                         _______ _______ _______ _____ _____    ______ ____
ROOT
ATOM      7  N   UNL     1      14.999  -2.415   9.530  0.00  0.00    -0.253 N 
ATOM      8  H   UNL     1      14.510  -1.613   9.144  0.00  0.00    +0.158 HD
ATOM      9  C   UNL     1      16.287  -2.608   9.108  0.00  0.00    +0.310 C 
ATOM     10  N   UNL     1      16.940  -3.649   9.731  0.00  0.00    -0.254 N 
ATOM     11  H   UNL     1      16.442  -4.245  10.385  0.00  0.00    +0.158 HD
ATOM     12  C   UNL     1      18.281  -4.045   9.589  0.00  0.00    +0.127 A 
ATOM     13  C   UNL     1      19.243  -3.401   8.745  0.00  0.00    +0.052 A 
ATOM     14  C   UNL     1      20.574  -3.894   8.766  0.00  0.00    -0.013 A 
ATOM     15  C   UNL     1      21.609  -3.320   7.988  0.00  0.00    +0.008 A 
ATOM     16  C   UNL     1      22.882  -3.823   8.032  0.00  0.00    +0.001 A 
ATOM     17  C   UNL     1      23.183  -4.907   8.834  0.00  0.00    +0.001 A 
ATOM     18  C   UNL     1      22.215  -5.493   9.602  0.00  0.00    +0.010 A 
ATOM     19  C   UNL     1      20.885  -4.999   9.600  0.00  0.00    +0.000 A 
ATOM     20  C   UNL     1      19.854  -5.545  10.407  0.00  0.00    +0.121 A 
ATOM     21  N   UNL     1      18.627  -5.072  10.379  0.00  0.00    -0.239 NA
ATOM     22  O   UNL     1      16.809  -1.886   8.269  0.00  0.00    -0.252 OA
ENDROOT
BRANCH   7   6
ATOM      3  C   UNL     1      12.549  -4.397  12.145  0.00  0.00    +0.158 A 
ATOM      4  C   UNL     1      13.806  -4.942  11.762  0.00  0.00    +0.151 A 
ATOM      5  N   UNL     1      14.604  -4.286  10.909  0.00  0.00    -0.236 NA
ATOM      6  C   UNL     1      14.165  -3.112  10.419  0.00  0.00    +0.144 A 
ATOM     23  C   UNL     1      12.908  -2.593  10.776  0.00  0.00    +0.156 A 
ATOM     24  N   UNL     1      12.121  -3.216  11.660  0.00  0.00    -0.240 NA
BRANCH   3   2
ATOM      1  N   UNL     1      10.967  -5.698  13.689  0.00  0.00    -0.189 NA
ATOM      2  C   UNL     1      11.683  -5.122  13.015  0.00  0.00    +0.121 C 
ENDBRANCH   3   2
ENDBRANCH   7   6
TORSDOF 2
