REMARK  Name = G6A
REMARK  4 active torsions:
REMARK  status: ('A' for Active; 'I' for Inactive)
REMARK    1  A    between atoms: C19_4  and  N16_22
REMARK    2  A    between atoms: C18_9  and  C15_10
REMARK    3  A    between atoms: C2_16  and  C1_17
REMARK    4  A    between atoms: C7_19  and  C13_20
REMARK                            x       y       z     vdW  Elec       q    Type
REMARK                         _______ _______ _______ _____ _____    ______ ____
ROOT
ATOM      6  C   UNL     1      44.301  33.407  31.836  0.00  0.00    +0.055 A 
ATOM      7  C   UNL     1      43.213  33.802  32.620  0.00  0.00    +0.005 A 
ATOM      8  C   UNL     1      42.087  32.984  32.639  0.00  0.00    -0.000 A 
ATOM      9  C   UNL     1      41.990  31.788  31.947  0.00  0.00    -0.004 A 
ATOM     23  C   UNL     1      43.076  31.371  31.184  0.00  0.00    -0.022 A 
ATOM     24  C   UNL     1      43.036  30.067  30.425  0.00  0.00    +0.031 C 
ATOM     25  C   UNL     1      44.210  32.203  31.116  0.00  0.00    +0.000 A 
ENDROOT
BRANCH   9  10
ATOM     10  C   UNL     1      40.750  30.951  32.047  0.00  0.00    -0.004 A 
ATOM     11  C   UNL     1      40.645  30.043  33.117  0.00  0.00    +0.004 A 
ATOM     12  C   UNL     1      39.521  29.201  33.298  0.00  0.00    +0.055 A 
ATOM     19  C   UNL     1      38.460  29.323  32.361  0.00  0.00    +0.004 A 
ATOM     20  C   UNL     1      38.545  30.229  31.301  0.00  0.00    -0.004 A 
ATOM     21  C   UNL     1      39.693  31.046  31.133  0.00  0.00    -0.022 A 
ATOM     22  C   UNL     1      39.783  32.054  29.989  0.00  0.00    +0.031 C 
BRANCH  12  13
ATOM     13  C   UNL     1      39.549  28.286  34.481  0.00  0.00    +0.265 C 
ATOM     14  O   UNL     1      40.402  28.483  35.364  0.00  0.00    -0.268 OA
ATOM     15  N   UNL     1      38.585  27.297  34.601  0.00  0.00    -0.203 NA
BRANCH  15  16
ATOM     16  C   UNL     1      38.519  26.357  35.702  0.00  0.00    +0.096 C 
ATOM     17  C   UNL     1      38.264  27.171  36.954  0.00  0.00    +0.023 C 
ATOM     18  C   UNL     1      37.132  26.514  36.233  0.00  0.00    +0.023 C 
ENDBRANCH  15  16
ENDBRANCH  12  13
ENDBRANCH   9  10
BRANCH   6   5
ATOM      1  C   UNL     1      48.901  34.813  30.481  0.00  0.00    +0.097 C 
ATOM      2  C   UNL     1      47.528  34.847  31.169  0.00  0.00    +0.227 A 
ATOM      3  N   UNL     1      46.990  35.743  32.032  0.00  0.00    -0.111 NA
ATOM      4  N   UNL     1      45.827  35.362  32.369  0.00  0.00    -0.107 NA
ATOM      5  C   UNL     1      45.547  34.189  31.729  0.00  0.00    +0.250 A 
ATOM     26  O   UNL     1      46.635  33.893  30.975  0.00  0.00    -0.419 OA
ENDBRANCH   6   5
TORSDOF 4
