REMARK  Name = 4c61_ligand
REMARK  6 active torsions:
REMARK  status: ('A' for Active; 'I' for Inactive)
REMARK    1  A    between atoms: C22_5  and  C19_8
REMARK    2  A    between atoms: C19_8  and  C21_9
REMARK    3  A    between atoms: C19_8  and  N18_10
REMARK    4  A    between atoms: C2_14  and  C1_15
REMARK    5  A    between atoms: N11_21  and  C12_22
REMARK    6  A    between atoms: N14_25  and  C17_26
REMARK                            x       y       z     vdW  Elec       q    Type
REMARK                         _______ _______ _______ _____ _____    ______ ____
ROOT
ATOM      7  N   UNL     1      15.840   4.014  43.094  0.00  0.00    -0.279 N 
ATOM      8  H   UNL     1      16.719   4.403  43.464  0.00  0.00    +0.187 HD
ATOM      9  C   UNL     1      15.791   3.776  41.767  0.00  0.00    +0.156 A 
ATOM     10  N   UNL     1      14.668   3.212  41.284  0.00  0.00    -0.252 NA
ATOM     11  C   UNL     1      14.616   2.884  39.984  0.00  0.00    +0.141 A 
ATOM     12  N   UNL     1      13.465   2.272  39.449  0.00  0.00    -0.267 N 
ATOM     13  H   UNL     1      13.491   2.039  38.446  0.00  0.00    +0.208 HD
ATOM     20  C   UNL     1      15.742   3.130  39.149  0.00  0.00    +0.092 A 
ATOM     21  S   UNL     1      16.022   2.776  37.479  0.00  0.00    -0.044 S 
ATOM     22  C   UNL     1      17.615   3.415  37.566  0.00  0.00    +0.072 A 
ATOM     23  C   UNL     1      17.967   3.867  38.805  0.00  0.00    -0.032 A 
ATOM     24  C   UNL     1      19.360   4.344  39.098  0.00  0.00    +0.064 C 
ATOM     25  C   UNL     1      16.850   3.728  39.771  0.00  0.00    +0.031 A 
ATOM     26  N   UNL     1      16.896   4.074  41.067  0.00  0.00    -0.295 NA
ENDROOT
BRANCH  12  14
ATOM     14  C   UNL     1      12.302   1.950  40.130  0.00  0.00    +0.102 A 
ATOM     15  C   UNL     1      11.942   2.132  41.428  0.00  0.00    +0.119 A 
ATOM     16  N   UNL     1      10.686   1.619  41.566  0.00  0.00    -0.267 N 
ATOM     17  C   UNL     1       9.900   1.605  42.803  0.00  0.00    +0.217 C 
ATOM     18  C   UNL     1      10.314   1.120  40.311  0.00  0.00    +0.212 A 
ATOM     19  N   UNL     1      11.297   1.321  39.464  0.00  0.00    -0.301 NA
ENDBRANCH  12  14
BRANCH   7   6
ATOM      6  C   UNL     1      14.760   3.772  44.064  0.00  0.00    +0.183 C 
ATOM     27  C   UNL     1      15.303   3.967  45.477  0.00  0.00    +0.057 C 
BRANCH   6   5
ATOM      1  F   UNL     1      10.637   7.469  43.565  0.00  0.00    -0.173 F 
ATOM      2  C   UNL     1      11.605   6.520  43.640  0.00  0.00    +0.178 A 
ATOM      3  C   UNL     1      12.905   6.856  43.279  0.00  0.00    +0.146 A 
ATOM      4  N   UNL     1      13.902   5.970  43.394  0.00  0.00    -0.264 NA
ATOM      5  C   UNL     1      13.563   4.764  43.873  0.00  0.00    +0.125 A 
ATOM     28  N   UNL     1      12.347   4.316  44.222  0.00  0.00    -0.264 NA
ATOM     29  C   UNL     1      11.347   5.200  44.099  0.00  0.00    +0.146 A 
ENDBRANCH   6   5
ENDBRANCH   7   6
TORSDOF 3
