REMARK  Name = 3E88
REMARK  15 active torsions:
REMARK  status: ('A' for Active; 'I' for Inactive)
REMARK    1  A    between atoms: N_2  and  C_7
REMARK    2  A    between atoms: C_6  and  O_29
REMARK    3  A    between atoms: C_6  and  C_30
REMARK    4  A    between atoms: C_8  and  O_29
REMARK    5  A    between atoms: C_9  and  C_19
REMARK    6  A    between atoms: C_11  and  C_17
REMARK    7  A    between atoms: C_12  and  C_17
REMARK    8  A    between atoms: C_13  and  C_14
REMARK    9  A    between atoms: C_13  and  N_24
REMARK   10  A    between atoms: C_15  and  C_30
REMARK   11  A    between atoms: C_15  and  C_32
REMARK   12  A    between atoms: O_16  and  C_17
REMARK   13  A    between atoms: C_17  and  C_18
REMARK   14  A    between atoms: C_23  and  C_25
REMARK   15  A    between atoms: C_30  and  N_31
REMARK                            x       y       z     vdW  Elec       q    Type
REMARK                         _______ _______ _______ _____ _____    ______ ____
ROOT
ATOM     10  C   UNL     1     -22.468  50.227  -9.623  0.00  0.00    +0.164 C 
ATOM     11  N   UNL     1     -22.270  48.914  -9.847  0.00  0.00    -0.323 N 
ATOM     14  C   UNL     1     -22.480  48.334  -8.658  0.00  0.00    +0.073 C 
ATOM     15  C   UNL     1     -22.419  47.004  -8.262  0.00  0.00    +0.094 C 
ATOM     16  C   UNL     1     -22.684  46.660  -6.942  0.00  0.00    +0.214 C 
ATOM     30  N   UNL     1     -23.003  47.629  -6.041  0.00  0.00    -0.221 NA
ATOM     31  C   UNL     1     -23.067  48.940  -6.393  0.00  0.00    +0.210 C 
ATOM     39  C   UNL     1     -22.807  49.312  -7.715  0.00  0.00    +0.111 C 
ATOM     40  N   UNL     1     -22.795  50.503  -8.346  0.00  0.00    -0.227 NA
ENDROOT
BRANCH  10   9
ATOM      1  N   UNL     1     -22.046  51.041 -11.879  0.00  0.00    -0.189 NA
ATOM      2  H   UNL     1     -21.832  50.118 -12.376  0.00  0.00    +0.210 HD
ATOM      3  O   UNL     1     -22.067  52.378 -12.420  0.00  0.00    -0.266 OA
ATOM      4  N   UNL     1     -22.398  53.383 -11.445  0.00  0.00    -0.036 NA
ATOM      5  C   UNL     1     -22.566  52.618 -10.345  0.00  0.00    +0.188 C 
ATOM      9  C   UNL     1     -22.366  51.255 -10.584  0.00  0.00    +0.160 C 
BRANCH   5   6
ATOM      6  N   UNL     1     -22.905  53.181  -9.160  0.00  0.00    -0.339 NA
ATOM      7  H   UNL     1     -23.034  54.241  -9.088  0.00  0.00    +0.144 HD
ATOM      8  H   UNL     1     -23.044  52.566  -8.296  0.00  0.00    +0.144 HD
ENDBRANCH   5   6
ENDBRANCH  10   9
BRANCH  11  12
ATOM     12  C   UNL     1     -21.900  48.177 -11.065  0.00  0.00    +0.121 C 
ATOM     13  C   UNL     1     -23.122  47.569 -11.721  0.00  0.00    +0.027 C 
ENDBRANCH  11  12
BRANCH  31  32
ATOM     32  C   UNL     1     -23.375  49.829  -5.508  0.00  0.00    -0.059 C 
ATOM     33  C   UNL     1     -23.525  50.664  -4.669  0.00  0.00    -0.065 C 
BRANCH  33  34
ATOM     34  C   UNL     1     -23.816  51.560  -3.525  0.00  0.00    +0.121 C 
ATOM     35  C   UNL     1     -23.110  52.899  -3.719  0.00  0.00    +0.055 C 
ATOM     38  C   UNL     1     -25.326  51.756  -3.406  0.00  0.00    +0.055 C 
BRANCH  34  36
ATOM     36  O   UNL     1     -23.336  50.980  -2.307  0.00  0.00    -0.377 OA
ATOM     37  H   UNL     1     -23.809  50.056  -2.148  0.00  0.00    +0.211 HD
ENDBRANCH  34  36
ENDBRANCH  33  34
ENDBRANCH  31  32
BRANCH  16  17
ATOM     17  O   UNL     1     -22.617  45.331  -6.595  0.00  0.00    -0.475 OA
BRANCH  17  18
ATOM     18  C   UNL     1     -23.009  44.849  -5.308  0.00  0.00    +0.249 C 
BRANCH  18  19
ATOM     19  C   UNL     1     -22.706  43.352  -5.172  0.00  0.00    +0.093 C 
BRANCH  19  20
ATOM     20  N   UNL     1     -21.270  43.158  -5.145  0.00  0.00    -0.324 NA
ATOM     21  H   UNL     1     -20.842  43.530  -6.053  0.00  0.00    +0.119 HD
ATOM     22  H   UNL     1     -20.854  43.686  -4.312  0.00  0.00    +0.119 HD
ENDBRANCH  19  20
BRANCH  19  23
ATOM     23  C   UNL     1     -23.282  42.530  -6.325  0.00  0.00    +0.056 C 
BRANCH  23  24
ATOM     24  C   UNL     1     -24.722  42.907  -6.566  0.00  0.00    -0.046 A 
ATOM     25  C   UNL     1     -25.675  42.647  -5.584  0.00  0.00    +0.003 A 
ATOM     26  C   UNL     1     -27.004  43.001  -5.796  0.00  0.00    +0.000 A 
ATOM     27  C   UNL     1     -27.375  43.621  -6.984  0.00  0.00    +0.000 A 
ATOM     28  C   UNL     1     -26.421  43.885  -7.967  0.00  0.00    +0.000 A 
ATOM     29  C   UNL     1     -25.091  43.531  -7.757  0.00  0.00    +0.003 A 
ENDBRANCH  23  24
ENDBRANCH  19  23
ENDBRANCH  18  19
ENDBRANCH  17  18
ENDBRANCH  16  17
TORSDOF 12
