REMARK  Name = 3u4u_ligand
REMARK  9 active torsions:
REMARK  status: ('A' for Active; 'I' for Inactive)
REMARK    1  A    between atoms: C1_1  and  C2_2
REMARK    2  A    between atoms: N4_4  and  C5_5
REMARK    3  A    between atoms: C11_11  and  C19_19
REMARK    4  A    between atoms: N13_13  and  C14_14
REMARK    5  A    between atoms: C14_14  and  C15_15
REMARK    6  A    between atoms: C15_15  and  C16_16
REMARK    7  A    between atoms: C21_21  and  N30_30
REMARK    8  A    between atoms: C25_25  and  C28_28
REMARK    9  A    between atoms: N30_30  and  C31_31
REMARK                            x       y       z     vdW  Elec       q    Type
REMARK                         _______ _______ _______ _____ _____    ______ ____
ROOT
ATOM      5  C   UNL     1      24.341  28.832  11.303  0.00  0.00    +0.050 A 
ATOM      6  C   UNL     1      23.433  29.490  10.496  0.00  0.00    -0.015 A 
ATOM      7  C   UNL     1      23.403  30.872  10.559  0.00  0.00    -0.023 A 
ATOM      8  C   UNL     1      22.618  31.854   9.879  0.00  0.00    +0.006 A 
ATOM     25  C   UNL     1      23.017  33.090  10.331  0.00  0.00    +0.161 A 
ATOM     26  N   UNL     1      24.011  32.859  11.251  0.00  0.00    -0.257 N 
ATOM     32  C   UNL     1      24.271  31.523  11.424  0.00  0.00    +0.062 A 
ATOM     33  C   UNL     1      25.192  30.901  12.255  0.00  0.00    +0.004 A 
ATOM     34  C   UNL     1      25.197  29.524  12.154  0.00  0.00    -0.005 A 
ENDROOT
BRANCH   8   9
ATOM      9  C   UNL     1      21.568  31.605   8.867  0.00  0.00    +0.012 A 
ATOM     10  N   UNL     1      21.328  30.255   8.392  0.00  0.00    -0.293 NA
ATOM     11  C   UNL     1      20.358  30.128   7.422  0.00  0.00    +0.182 A 
ATOM     12  C   UNL     1      19.973  28.964   6.796  0.00  0.00    +0.110 A 
ATOM     15  C   UNL     1      18.951  29.353   5.909  0.00  0.00    +0.089 A 
ATOM     16  N   UNL     1      18.758  30.682   5.992  0.00  0.00    -0.199 NA
ATOM     17  N   UNL     1      19.621  31.154   6.920  0.00  0.00    -0.100 N 
ATOM     18  C   UNL     1      19.794  32.447   7.351  0.00  0.00    +0.225 A 
ATOM     24  C   UNL     1      20.725  32.689   8.280  0.00  0.00    +0.061 A 
BRANCH  12  13
ATOM     13  C   UNL     1      20.528  27.668   7.023  0.00  0.00    +0.042 C 
ATOM     14  N   UNL     1      21.047  26.642   7.167  0.00  0.00    -0.382 NA
ENDBRANCH  12  13
BRANCH  18  19
ATOM     19  N   UNL     1      18.984  33.399   6.767  0.00  0.00    -0.267 N 
ATOM     20  H   UNL     1      18.259  33.128   6.088  0.00  0.00    +0.195 HD
BRANCH  19  21
ATOM     21  C   UNL     1      19.179  34.815   7.137  0.00  0.00    +0.105 C 
ATOM     22  C   UNL     1      20.121  35.678   6.334  0.00  0.00    +0.031 C 
ATOM     23  C   UNL     1      18.643  35.892   6.228  0.00  0.00    +0.031 C 
ENDBRANCH  19  21
ENDBRANCH  18  19
ENDBRANCH   8   9
BRANCH   5   3
ATOM      1  C   UNL     1      24.427  27.210   8.788  0.00  0.00    +0.172 C 
ATOM      2  C   UNL     1      24.290  26.588  10.156  0.00  0.00    +0.198 C 
ATOM      3  N   UNL     1      24.413  27.415  11.277  0.00  0.00    -0.241 N 
ATOM      4  H   UNL     1      24.568  26.959  12.153  0.00  0.00    +0.222 HD
ATOM     35  O   UNL     1      24.108  25.383  10.233  0.00  0.00    -0.387 OA
ENDBRANCH   5   3
BRANCH  26  27
ATOM     27  C   UNL     1      24.696  33.912  11.999  0.00  0.00    +0.191 C 
BRANCH  27  28
ATOM     28  C   UNL     1      24.166  33.788  13.426  0.00  0.00    +0.119 C 
BRANCH  28  29
ATOM     29  C   UNL     1      25.039  34.668  14.314  0.00  0.00    +0.037 C 
ATOM     30  O   UNL     1      24.415  35.048  15.346  0.00  0.00    -0.569 OA
ATOM     31  O   UNL     1      26.252  34.877  14.005  0.00  0.00    -0.569 OA
ENDBRANCH  28  29
ENDBRANCH  27  28
ENDBRANCH  26  27
TORSDOF 8
