REMARK  Name = 3uyt_ligand
REMARK  3 active torsions:
REMARK  status: ('A' for Active; 'I' for Inactive)
REMARK    1  A    between atoms: C7_1  and  C13_11
REMARK    2  A    between atoms: N2_2  and  C15_14
REMARK    3  A    between atoms: C9_5  and  C5_23
REMARK                            x       y       z     vdW  Elec       q    Type
REMARK                         _______ _______ _______ _____ _____    ______ ____
ROOT
ATOM      1  C   UNL     1      -6.056  -6.812  -9.961  0.00  0.00    +0.115 A 
ATOM     11  C   UNL     1      -7.040  -7.544  -9.066  0.00  0.00    +0.046 A 
ATOM     19  N   UNL     1      -6.336  -8.212  -8.091  0.00  0.00    -0.303 NA
ATOM     20  C   UNL     1      -5.041  -7.929  -8.380  0.00  0.00    +0.240 A 
ATOM     21  N   UNL     1      -4.791  -7.124  -9.464  0.00  0.00    -0.232 N 
ENDROOT
BRANCH   1   2
ATOM      2  C   UNL     1      -6.321  -5.872 -11.148  0.00  0.00    +0.071 A 
ATOM      3  N   UNL     1      -5.346  -5.724 -12.190  0.00  0.00    -0.258 NA
ATOM      4  C   UNL     1      -5.583  -4.857 -13.239  0.00  0.00    +0.179 A 
ATOM      5  N   UNL     1      -4.628  -4.740 -14.198  0.00  0.00    -0.304 N 
ATOM      6  H   UNL     1      -4.771  -4.109 -14.986  0.00  0.00    +0.182 HD
ATOM      7  H   UNL     1      -3.768  -5.284 -14.130  0.00  0.00    +0.182 HD
ATOM      8  N   UNL     1      -6.750  -4.097 -13.350  0.00  0.00    -0.263 NA
ATOM      9  C   UNL     1      -7.729  -4.202 -12.368  0.00  0.00    +0.094 A 
ATOM     10  C   UNL     1      -7.541  -5.078 -11.261  0.00  0.00    +0.043 A 
ENDBRANCH   1   2
BRANCH  11  12
ATOM     12  C   UNL     1      -8.550  -7.666  -9.174  0.00  0.00    -0.021 A 
ATOM     13  C   UNL     1      -9.140  -7.990 -10.491  0.00  0.00    +0.001 A 
ATOM     14  C   UNL     1     -10.581  -8.144 -10.686  0.00  0.00    +0.031 A 
ATOM     15  C   UNL     1     -11.437  -7.964  -9.521  0.00  0.00    +0.131 A 
ATOM     16  F   UNL     1     -12.791  -8.078  -9.698  0.00  0.00    -0.184 F 
ATOM     17  C   UNL     1     -10.893  -7.646  -8.193  0.00  0.00    +0.031 A 
ATOM     18  C   UNL     1      -9.440  -7.495  -8.020  0.00  0.00    +0.001 A 
ENDBRANCH  11  12
BRANCH  21  22
ATOM     22  C   UNL     1      -3.448  -6.830  -9.955  0.00  0.00    +0.137 C 
ATOM     23  C   UNL     1      -2.937  -7.746 -11.069  0.00  0.00    +0.037 C 
ATOM     24  C   UNL     1      -1.633  -7.274 -11.720  0.00  0.00    +0.003 C 
ATOM     25  C   UNL     1      -0.536  -6.939 -10.684  0.00  0.00    +0.000 C 
ATOM     26  C   UNL     1      -1.058  -5.999  -9.596  0.00  0.00    +0.003 C 
ATOM     27  C   UNL     1      -2.330  -6.535  -8.956  0.00  0.00    +0.037 C 
ENDBRANCH  21  22
TORSDOF 3
