REMARK  Name = 3RPO
REMARK  11 active torsions:
REMARK  status: ('A' for Active; 'I' for Inactive)
REMARK    1  A    between atoms: N_1  and  C_8
REMARK    2  A    between atoms: N_1  and  C_13
REMARK    3  A    between atoms: N_4  and  C_10
REMARK    4  A    between atoms: N_4  and  C_19
REMARK    5  A    between atoms: N_5  and  C_11
REMARK    6  A    between atoms: C_7  and  C_12
REMARK    7  A    between atoms: C_13  and  C_14
REMARK    8  A    between atoms: C_19  and  C_20
REMARK    9  A    between atoms: C_20  and  C_21
REMARK   10  A    between atoms: C_21  and  C_22
REMARK   11  A    between atoms: C_22  and  O_24
REMARK                            x       y       z     vdW  Elec       q    Type
REMARK                         _______ _______ _______ _____ _____    ______ ____
ROOT
ATOM     10  C   UNL     1      64.936  81.550  24.666  0.00  0.00    +0.042 A 
ATOM     11  C   UNL     1      65.084  80.924  25.957  0.00  0.00    +0.049 A 
ATOM     12  C   UNL     1      66.330  80.399  26.401  0.00  0.00    +0.059 A 
ATOM     13  C   UNL     1      67.486  80.494  25.535  0.00  0.00    +0.148 A 
ATOM     14  C   UNL     1      67.344  81.115  24.254  0.00  0.00    +0.049 A 
ATOM     27  C   UNL     1      66.090  81.643  23.804  0.00  0.00    +0.059 A 
ENDROOT
BRANCH  27  28
ATOM     28  C   UNL     1      66.031  82.226  22.532  0.00  0.00    +0.243 C 
ATOM     29  O   UNL     1      65.189  83.042  22.238  0.00  0.00    -0.270 OA
ATOM     30  N   UNL     1      66.932  81.867  21.582  0.00  0.00    -0.325 N 
ATOM     31  H   UNL     1      66.889  82.311  20.609  0.00  0.00    +0.145 HD
ATOM     32  H   UNL     1      67.685  81.140  21.806  0.00  0.00    +0.145 HD
ENDBRANCH  27  28
BRANCH  13  15
ATOM     15  N   UNL     1      68.639  80.035  25.885  0.00  0.00    +0.058 N 
ATOM     16  O   UNL     1      68.788  79.344  26.982  0.00  0.00    -0.126 OA
ATOM     17  O   UNL     1      69.705  80.253  25.130  0.00  0.00    -0.126 OA
ENDBRANCH  13  15
BRANCH  10   1
ATOM      1  N   UNL     1      63.787  82.024  24.274  0.00  0.00    -0.339 N 
ATOM      2  H   UNL     1      63.782  82.649  23.405  0.00  0.00    +0.146 HD
BRANCH   1   3
ATOM      3  C   UNL     1      62.476  81.764  24.942  0.00  0.00    +0.138 C 
BRANCH   3   4
ATOM      4  C   UNL     1      62.266  82.723  26.102  0.00  0.00    -0.012 A 
ATOM      5  C   UNL     1      61.849  82.246  27.373  0.00  0.00    +0.008 A 
ATOM      6  C   UNL     1      61.664  83.139  28.448  0.00  0.00    +0.020 A 
ATOM      7  C   UNL     1      61.909  84.504  28.212  0.00  0.00    +0.111 A 
ATOM      8  N   UNL     1      62.315  85.003  26.999  0.00  0.00    -0.263 NA
ATOM      9  C   UNL     1      62.487  84.108  25.963  0.00  0.00    +0.115 A 
ENDBRANCH   3   4
ENDBRANCH   1   3
ENDBRANCH  10   1
BRANCH  12  18
ATOM     18  N   UNL     1      66.412  79.845  27.573  0.00  0.00    -0.342 N 
ATOM     19  H   UNL     1      67.202  80.135  28.234  0.00  0.00    +0.146 HD
BRANCH  18  20
ATOM     20  C   UNL     1      65.439  78.823  28.015  0.00  0.00    +0.102 C 
BRANCH  20  21
ATOM     21  C   UNL     1      65.104  79.020  29.489  0.00  0.00    +0.030 C 
BRANCH  21  22
ATOM     22  C   UNL     1      65.652  77.840  30.287  0.00  0.00    +0.122 C 
BRANCH  22  23
ATOM     23  C   UNL     1      65.223  77.942  31.737  0.00  0.00    +0.305 C 
ATOM     24  O   UNL     1      64.228  77.365  32.114  0.00  0.00    -0.251 OA
BRANCH  23  25
ATOM     25  O   UNL     1      65.947  78.665  32.603  0.00  0.00    -0.481 OA
ATOM     26  H   UNL     1      66.921  78.277  32.655  0.00  0.00    +0.295 HD
ENDBRANCH  23  25
ENDBRANCH  22  23
ENDBRANCH  21  22
ENDBRANCH  20  21
ENDBRANCH  18  20
ENDBRANCH  12  18
TORSDOF 11
