REMARK  Name = AE6T
REMARK  0 active torsions:
REMARK  status: ('A' for Active; 'I' for Inactive)
REMARK                            x       y       z     vdW  Elec       q    Type
REMARK                         _______ _______ _______ _____ _____    ______ ____
ROOT
ATOM      1  C   UNL     1     -19.723  19.354  12.364  0.00  0.00    +0.002 A 
ATOM      2  C   UNL     1     -19.031  18.254  13.030  0.00  0.00    +0.075 C 
ATOM      3  C   UNL     1     -18.458  17.505  12.027  0.00  0.00    +0.077 C 
ATOM      4  N   UNL     1     -18.753  18.045  10.799  0.00  0.00    -0.248 NA
ATOM      5  C   UNL     1     -20.435  20.474  12.815  0.00  0.00    -0.002 A 
ATOM      6  C   UNL     1     -20.913  21.408  11.905  0.00  0.00    +0.001 A 
ATOM      7  C   UNL     1     -20.680  21.238  10.541  0.00  0.00    +0.023 A 
ATOM      8  C   UNL     1     -19.997  20.128  10.086  0.00  0.00    +0.074 A 
ATOM      9  C   UNL     1     -19.797  20.259   8.629  0.00  0.00    +0.271 C 
ATOM     10  N   UNL     1     -20.452  21.383   8.260  0.00  0.00    -0.174 NA
ATOM     11  O   UNL     1     -19.223  19.482   7.861  0.00  0.00    -0.268 OA
ATOM     12  C   UNL     1     -21.076  22.085   9.366  0.00  0.00    +0.089 C 
ATOM     13  C   UNL     1     -19.510  19.177  10.984  0.00  0.00    +0.082 A 
ENDROOT
TORSDOF 0
