REMARK  Name = L40
REMARK  6 active torsions:
REMARK  status: ('A' for Active; 'I' for Inactive)
REMARK    1  A    between atoms: C4_4  and  C27_11
REMARK    2  A    between atoms: C3_5  and  C2_16
REMARK    3  A    between atoms: C11_6  and  N10_19
REMARK    4  A    between atoms: C13_8  and  S18_26
REMARK    5  A    between atoms: C7_9  and  C8_12
REMARK    6  A    between atoms: N21_20  and  S18_26
REMARK                            x       y       z     vdW  Elec       q    Type
REMARK                         _______ _______ _______ _____ _____    ______ ____
ROOT
ATOM     11  N   UNL     1      -8.466   7.365  -0.171  0.00  0.00    -0.174 NA
ATOM     12  C   UNL     1      -8.910   6.743   0.913  0.00  0.00    +0.286 C 
ATOM     13  O   UNL     1      -8.313   6.796   1.966  0.00  0.00    -0.266 OA
ENDROOT
BRANCH  11  10
ATOM      1  C   UNL     1      -5.920   9.710  -1.497  0.00  0.00    -0.002 A 
ATOM      2  C   UNL     1      -5.359  10.201  -0.323  0.00  0.00    +0.020 A 
ATOM      3  C   UNL     1      -5.855   9.763   0.915  0.00  0.00    +0.125 A 
ATOM      9  C   UNL     1      -6.894   8.835   0.959  0.00  0.00    +0.036 A 
ATOM     10  C   UNL     1      -7.489   8.335  -0.212  0.00  0.00    +0.071 A 
ATOM     25  C   UNL     1      -6.988   8.788  -1.457  0.00  0.00    -0.006 A 
ATOM     26  C   UNL     1      -7.527   8.334  -2.792  0.00  0.00    +0.032 C 
BRANCH   3   4
ATOM      4  S   UNL     1      -5.215  10.320   2.274  0.00  0.00    +0.077 S 
ATOM      5  O   UNL     1      -6.245  10.558   3.243  0.00  0.00    -0.152 OA
ATOM      8  O   UNL     1      -4.590  11.584   1.971  0.00  0.00    -0.152 OA
BRANCH   4   6
ATOM      6  N   UNL     1      -4.099   9.290   2.850  0.00  0.00    -0.076 NA
ATOM      7  C   UNL     1      -4.472   7.985   3.372  0.00  0.00    +0.136 C 
ENDBRANCH   4   6
ENDBRANCH   3   4
ENDBRANCH  11  10
BRANCH  12  14
ATOM     14  C   UNL     1     -10.248   6.077   0.943  0.00  0.00    +0.132 A 
ATOM     15  N   UNL     1     -10.594   4.996   1.655  0.00  0.00    -0.245 NA
ATOM     16  C   UNL     1     -11.886   4.680   1.480  0.00  0.00    +0.062 A 
ATOM     17  C   UNL     1     -12.566   3.515   2.134  0.00  0.00    +0.052 C 
ATOM     18  C   UNL     1     -12.441   5.673   0.555  0.00  0.00    +0.046 A 
ATOM     22  C   UNL     1     -11.445   6.585   0.216  0.00  0.00    +0.004 A 
BRANCH  18  19
ATOM     19  C   UNL     1     -13.865   5.670   0.157  0.00  0.00    +0.174 C 
ATOM     20  O   UNL     1     -14.499   4.646   0.034  0.00  0.00    -0.291 OA
ATOM     21  C   UNL     1     -14.489   7.013   0.013  0.00  0.00    +0.077 C 
ENDBRANCH  18  19
BRANCH  22  23
ATOM     23  C   UNL     1     -11.519   7.782  -0.725  0.00  0.00    +0.028 C 
ATOM     24  C   UNL     1     -11.535   7.190  -2.128  0.00  0.00    +0.005 C 
ENDBRANCH  22  23
ENDBRANCH  12  14
TORSDOF 6
