REMARK  Name = 5P9L
REMARK  9 active torsions:
REMARK  status: ('A' for Active; 'I' for Inactive)
REMARK    1  A    between atoms: C_3  and  N_22
REMARK    2  A    between atoms: C_6  and  O_23
REMARK    3  A    between atoms: C_9  and  C_10
REMARK    4  A    between atoms: C_9  and  O_23
REMARK    5  A    between atoms: C_10  and  O_11
REMARK    6  A    between atoms: O_11  and  C_24
REMARK    7  A    between atoms: C_12  and  N_25
REMARK    8  A    between atoms: C_14  and  N_16
REMARK    9  A    between atoms: C_17  and  C_28
REMARK                            x       y       z     vdW  Elec       q    Type
REMARK                         _______ _______ _______ _____ _____    ______ ____
ROOT
ATOM      1  C   UNL     1     -18.621   5.507  -2.466  0.00  0.00    +0.181 A 
ATOM      2  F   UNL     1     -18.290   5.536  -3.772  0.00  0.00    -0.200 F 
ATOM      3  C   UNL     1     -19.936   5.964  -1.992  0.00  0.00    +0.164 A 
ATOM      4  N   UNL     1     -20.837   6.421  -2.951  0.00  0.00    -0.297 N 
ATOM      5  H   UNL     1     -20.600   6.319  -3.989  0.00  0.00    +0.154 HD
ATOM     18  N   UNL     1     -20.174   5.891  -0.680  0.00  0.00    -0.196 NA
ATOM     19  C   UNL     1     -19.210   5.385   0.112  0.00  0.00    +0.221 A 
ATOM     20  N   UNL     1     -19.497   5.353   1.453  0.00  0.00    -0.284 N 
ATOM     21  H   UNL     1     -18.692   5.048   2.089  0.00  0.00    +0.155 HD
ATOM     33  N   UNL     1     -17.995   4.998  -0.288  0.00  0.00    -0.220 NA
ATOM     34  C   UNL     1     -17.674   5.075  -1.594  0.00  0.00    +0.156 A 
ENDROOT
BRANCH   4   6
ATOM      6  C   UNL     1     -22.042   7.009  -2.577  0.00  0.00    +0.034 A 
ATOM      7  C   UNL     1     -23.006   6.316  -1.860  0.00  0.00    +0.023 A 
ATOM      8  C   UNL     1     -24.115   6.963  -1.325  0.00  0.00    +0.004 A 
ATOM      9  C   UNL     1     -24.270   8.361  -1.439  0.00  0.00    +0.023 A 
ATOM     10  C   UNL     1     -23.324   9.127  -2.124  0.00  0.00    +0.035 A 
ATOM     17  C   UNL     1     -22.210   8.432  -2.660  0.00  0.00    +0.046 A 
BRANCH  10  11
ATOM     11  N   UNL     1     -23.403  10.528  -2.187  0.00  0.00    -0.282 N 
ATOM     12  H   UNL     1     -22.851  10.978  -2.985  0.00  0.00    +0.155 HD
ATOM     13  C   UNL     1     -24.092  11.422  -1.367  0.00  0.00    +0.240 C 
ATOM     14  O   UNL     1     -24.878  11.116  -0.447  0.00  0.00    -0.271 OA
BRANCH  13  15
ATOM     15  C   UNL     1     -23.833  12.902  -1.536  0.00  0.00    +0.060 C 
ATOM     16  C   UNL     1     -23.831  13.805  -0.520  0.00  0.00    +0.013 C 
ENDBRANCH  13  15
ENDBRANCH  10  11
ENDBRANCH   4   6
BRANCH  20  22
ATOM     22  C   UNL     1     -20.675   5.658   2.095  0.00  0.00    +0.034 A 
ATOM     23  C   UNL     1     -21.831   6.215   1.579  0.00  0.00    +0.027 A 
ATOM     24  C   UNL     1     -22.936   6.431   2.419  0.00  0.00    +0.047 A 
ATOM     25  C   UNL     1     -22.843   6.126   3.766  0.00  0.00    +0.121 A 
ATOM     31  C   UNL     1     -21.711   5.577   4.285  0.00  0.00    +0.047 A 
ATOM     32  C   UNL     1     -20.644   5.371   3.444  0.00  0.00    +0.027 A 
BRANCH  25  26
ATOM     26  O   UNL     1     -23.853   6.310   4.679  0.00  0.00    -0.490 OA
BRANCH  26  27
ATOM     27  C   UNL     1     -25.114   5.807   4.301  0.00  0.00    +0.257 C 
BRANCH  27  28
ATOM     28  C   UNL     1     -25.791   6.976   3.622  0.00  0.00    +0.200 C 
BRANCH  28  29
ATOM     29  O   UNL     1     -26.703   7.531   4.571  0.00  0.00    -0.380 OA
ATOM     30  C   UNL     1     -26.370   7.165   5.921  0.00  0.00    +0.194 C 
ENDBRANCH  28  29
ENDBRANCH  27  28
ENDBRANCH  26  27
ENDBRANCH  25  26
ENDBRANCH  20  22
TORSDOF 8
