REMARK  Name = 2WZB
REMARK  9 active torsions:
REMARK  status: ('A' for Active; 'I' for Inactive)
REMARK    1  A    between atoms: P_1  and  O_8
REMARK    2  A    between atoms: P_5  and  O_8
REMARK    3  A    between atoms: P_5  and  O_9
REMARK    4  A    between atoms: O_9  and  C_10
REMARK    5  A    between atoms: C_10  and  C_11
REMARK    6  A    between atoms: C_13  and  O_14
REMARK    7  A    between atoms: C_15  and  O_16
REMARK    8  A    between atoms: C_17  and  N_18
REMARK    9  A    between atoms: C_22  and  N_23
REMARK                            x       y       z     vdW  Elec       q    Type
REMARK                         _______ _______ _______ _____ _____    ______ ____
ROOT
ATOM      6  C   UNL     1      -9.323  12.801 -22.702  0.00  0.00    +0.178 C 
ATOM      7  C   UNL     1     -10.711  12.233 -22.376  0.00  0.00    +0.178 C 
ATOM      8  C   UNL     1     -11.635  12.984 -23.338  0.00  0.00    +0.195 C 
ATOM      9  C   UNL     1     -10.736  14.113 -23.814  0.00  0.00    +0.253 C 
ATOM     26  O   UNL     1      -9.467  13.484 -23.933  0.00  0.00    -0.346 OA
ENDROOT
BRANCH   9  10
ATOM     10  N   UNL     1     -11.106  14.750 -25.093  0.00  0.00    -0.285 N 
ATOM     11  C   UNL     1     -11.370  16.066 -25.221  0.00  0.00    +0.167 A 
ATOM     12  N   UNL     1     -11.361  17.090 -24.339  0.00  0.00    -0.216 NA
ATOM     13  C   UNL     1     -11.689  18.313 -24.831  0.00  0.00    +0.225 A 
ATOM     14  N   UNL     1     -12.017  18.563 -26.129  0.00  0.00    -0.219 NA
ATOM     15  C   UNL     1     -12.047  17.621 -27.068  0.00  0.00    +0.147 A 
ATOM     19  C   UNL     1     -11.689  16.256 -26.636  0.00  0.00    +0.147 A 
ATOM     20  N   UNL     1     -11.581  15.056 -27.274  0.00  0.00    -0.231 NA
ATOM     21  C   UNL     1     -11.255  14.173 -26.304  0.00  0.00    +0.203 A 
BRANCH  15  16
ATOM     16  N   UNL     1     -12.381  17.859 -28.362  0.00  0.00    -0.341 N 
ATOM     17  H   UNL     1     -12.640  18.849 -28.674  0.00  0.00    +0.144 HD
ATOM     18  H   UNL     1     -12.385  17.057 -29.070  0.00  0.00    +0.144 HD
ENDBRANCH  15  16
ENDBRANCH   9  10
BRANCH   8  22
ATOM     22  O   UNL     1     -12.827  13.514 -22.700  0.00  0.00    -0.385 OA
ATOM     23  H   UNL     1     -13.381  12.726 -22.283  0.00  0.00    +0.210 HD
ENDBRANCH   8  22
BRANCH   7  24
ATOM     24  O   UNL     1     -11.004  12.413 -20.998  0.00  0.00    -0.386 OA
ATOM     25  H   UNL     1     -10.284  11.914 -20.419  0.00  0.00    +0.210 HD
ENDBRANCH   7  24
BRANCH   6   5
ATOM      5  C   UNL     1      -8.240  11.755 -22.796  0.00  0.00    +0.202 C 
BRANCH   5   4
ATOM      4  O   UNL     1      -7.008  12.296 -23.289  0.00  0.00    -0.325 OA
BRANCH   4   3
ATOM      3  P   UNL     1      -5.637  11.684 -22.691  0.00  0.00    +0.215 P 
ATOM     27  O   UNL     1      -4.530  12.348 -23.436  0.00  0.00    -0.517 OA
ATOM     28  O   UNL     1      -5.677  11.772 -21.201  0.00  0.00    -0.437 OA
BRANCH   3   2
ATOM      2  O   UNL     1      -5.790  10.164 -23.160  0.00  0.00    -0.314 OA
BRANCH   2   1
ATOM      1  P   UNL     1      -5.200   8.809 -22.390  0.00  0.00    -0.007 P 
ATOM     29  O   UNL     1      -3.692   8.936 -22.456  0.00  0.00    -0.577 OA
ATOM     30  O   UNL     1      -5.725   7.651 -23.171  0.00  0.00    -0.577 OA
ATOM     31  O   UNL     1      -5.734   8.819 -21.020  0.00  0.00    -0.637 OA
ENDBRANCH   2   1
ENDBRANCH   3   2
ENDBRANCH   4   3
ENDBRANCH   5   4
ENDBRANCH   6   5
TORSDOF 9
