REMARK  Name = 4cfm_ligand
REMARK  5 active torsions:
REMARK  status: ('A' for Active; 'I' for Inactive)
REMARK    1  A    between atoms: CAT_6  and  CAS_7
REMARK    2  A    between atoms: CAS_7  and  O6_8
REMARK    3  A    between atoms: O6_8  and  C6_9
REMARK    4  A    between atoms: C8_18  and  CAJ_19
REMARK    5  A    between atoms: CAO_24  and  CAP_25
REMARK                            x       y       z     vdW  Elec       q    Type
REMARK                         _______ _______ _______ _____ _____    ______ ____
ROOT
ATOM      5  C   UNL     1      -7.892 -21.975  23.233  0.00  0.00    +0.175 A 
ATOM      6  C   UNL     1      -7.466 -23.031  23.977  0.00  0.00    +0.102 A 
ATOM      7  N   UNL     1      -6.276 -23.601  24.193  0.00  0.00    -0.303 NA
ATOM      8  C   UNL     1      -6.476 -24.640  25.026  0.00  0.00    +0.137 A 
ATOM     16  N   UNL     1      -7.760 -24.714  25.339  0.00  0.00    -0.240 N 
ATOM     17  H   UNL     1      -8.203 -25.402  25.964  0.00  0.00    +0.234 HD
ATOM     18  C   UNL     1      -8.361 -23.732  24.692  0.00  0.00    +0.142 A 
ATOM     19  N   UNL     1      -9.642 -23.398  24.671  0.00  0.00    -0.261 NA
ATOM     20  C   UNL     1     -10.055 -22.358  23.941  0.00  0.00    +0.156 A 
ATOM     21  N   UNL     1     -11.334 -22.048  23.939  0.00  0.00    -0.311 N 
ATOM     22  H   UNL     1     -12.000 -22.604  24.495  0.00  0.00    +0.181 HD
ATOM     23  H   UNL     1     -11.669 -21.249  23.382  0.00  0.00    +0.181 HD
ATOM     24  N   UNL     1      -9.191 -21.640  23.216  0.00  0.00    -0.244 NA
ENDROOT
BRANCH   8   9
ATOM      9  C   UNL     1      -5.533 -25.488  25.495  0.00  0.00    +0.034 A 
ATOM     10  C   UNL     1      -4.504 -25.983  24.671  0.00  0.00    -0.028 A 
ATOM     11  C   UNL     1      -4.390 -25.609  23.329  0.00  0.00    +0.094 C 
ATOM     12  C   UNL     1      -3.538 -26.857  25.194  0.00  0.00    +0.001 A 
ATOM     13  C   UNL     1      -3.589 -27.253  26.532  0.00  0.00    -0.003 A 
ATOM     14  C   UNL     1      -4.604 -26.773  27.357  0.00  0.00    -0.007 A 
ATOM     15  C   UNL     1      -5.572 -25.908  26.834  0.00  0.00    +0.012 A 
ENDBRANCH   8   9
BRANCH   5   4
ATOM      4  O   UNL     1      -7.001 -21.228  22.498  0.00  0.00    -0.293 OA
BRANCH   4   3
ATOM      3  C   UNL     1      -6.266 -22.055  21.628  0.00  0.00    +0.206 C 
BRANCH   3   2
ATOM      1  C   UNL     1      -4.702 -20.302  21.016  0.00  0.00    +0.006 C 
ATOM      2  C   UNL     1      -5.784 -21.244  20.478  0.00  0.00    +0.021 C 
ATOM     25  C   UNL     1      -5.253 -22.292  19.468  0.00  0.00    +0.006 C 
ATOM     26  C   UNL     1      -4.236 -21.733  18.501  0.00  0.00    +0.000 C 
ATOM     27  C   UNL     1      -3.167 -20.996  19.267  0.00  0.00    +0.000 C 
ATOM     28  C   UNL     1      -3.831 -19.798  19.945  0.00  0.00    +0.000 C 
ENDBRANCH   3   2
ENDBRANCH   4   3
ENDBRANCH   5   4
TORSDOF 4
