REMARK  Name = 3up2_ligand
REMARK  6 active torsions:
REMARK  status: ('A' for Active; 'I' for Inactive)
REMARK    1  A    between atoms: N03_3  and  C07_7
REMARK    2  A    between atoms: N03_3  and  C09_9
REMARK    3  A    between atoms: N04_4  and  C16_16
REMARK    4  A    between atoms: C14_14  and  O25_25
REMARK    5  A    between atoms: C15_15  and  O25_25
REMARK    6  A    between atoms: C19_19  and  C22_22
REMARK                            x       y       z     vdW  Elec       q    Type
REMARK                         _______ _______ _______ _____ _____    ______ ____
ROOT
ATOM      1  N   UNL     1       3.847  31.808   9.156  0.00  0.00    -0.269 NA
ATOM      2  C   UNL     1       3.897  31.890   7.813  0.00  0.00    +0.195 A 
ATOM      3  N   UNL     1       3.300  33.048   7.223  0.00  0.00    -0.243 N 
ATOM      4  H   UNL     1       3.107  33.837   7.856  0.00  0.00    +0.219 HD
ATOM     14  N   UNL     1       4.502  30.952   7.058  0.00  0.00    -0.235 NA
ATOM     15  C   UNL     1       5.073  29.873   7.658  0.00  0.00    +0.132 A 
ATOM     16  C   UNL     1       5.029  29.755   9.054  0.00  0.00    +0.056 A 
ATOM     30  C   UNL     1       4.405  30.760   9.800  0.00  0.00    +0.086 A 
ENDROOT
BRANCH   3   5
ATOM      5  C   UNL     1       2.939  33.233   5.844  0.00  0.00    +0.068 A 
ATOM      6  C   UNL     1       3.647  32.657   4.794  0.00  0.00    +0.020 A 
ATOM      7  C   UNL     1       3.262  32.882   3.468  0.00  0.00    +0.005 A 
ATOM      8  C   UNL     1       2.184  33.728   3.217  0.00  0.00    -0.002 A 
ATOM     12  C   UNL     1       1.477  34.325   4.263  0.00  0.00    +0.005 A 
ATOM     13  C   UNL     1       1.860  34.066   5.569  0.00  0.00    +0.020 A 
BRANCH   8   9
ATOM      9  C   UNL     1       1.723  34.008   1.833  0.00  0.00    +0.055 C 
ATOM     10  O   UNL     1       0.482  34.234   1.672  0.00  0.00    -0.564 OA
ATOM     11  O   UNL     1       2.550  34.033   0.868  0.00  0.00    -0.564 OA
ENDBRANCH   8   9
ENDBRANCH   3   5
BRANCH  15  17
ATOM     17  N   UNL     1       5.704  28.843   6.871  0.00  0.00    -0.259 N 
ATOM     18  H   UNL     1       5.997  27.969   7.330  0.00  0.00    +0.213 HD
BRANCH  17  19
ATOM     19  C   UNL     1       5.935  29.005   5.460  0.00  0.00    +0.095 A 
ATOM     20  C   UNL     1       7.209  28.792   4.945  0.00  0.00    +0.125 A 
ATOM     26  C   UNL     1       7.425  28.934   3.574  0.00  0.00    +0.009 A 
ATOM     27  C   UNL     1       6.387  29.306   2.728  0.00  0.00    -0.033 A 
ATOM     28  C   UNL     1       5.118  29.519   3.246  0.00  0.00    -0.033 A 
ATOM     29  C   UNL     1       4.894  29.362   4.608  0.00  0.00    +0.004 A 
BRANCH  20  21
ATOM     21  O   UNL     1       8.248  28.395   5.779  0.00  0.00    -0.230 OA
BRANCH  21  22
ATOM     22  C   UNL     1       9.331  29.199   6.080  0.00  0.00    +0.544 C 
ATOM     23  F   UNL     1       9.979  28.674   7.129  0.00  0.00    -0.140 F 
ATOM     24  F   UNL     1      10.149  29.193   5.033  0.00  0.00    -0.140 F 
ATOM     25  F   UNL     1       8.950  30.461   6.333  0.00  0.00    -0.140 F 
ENDBRANCH  21  22
ENDBRANCH  20  21
ENDBRANCH  17  19
ENDBRANCH  15  17
TORSDOF 6
