REMARK  Name = 5UBT
REMARK  5 active torsions:
REMARK  status: ('A' for Active; 'I' for Inactive)
REMARK    1  A    between atoms: C_4  and  C_8
REMARK    2  A    between atoms: C_6  and  C_7
REMARK    3  A    between atoms: N_14  and  C_17
REMARK    4  A    between atoms: C_26  and  N_28
REMARK    5  A    between atoms: C_34  and  C_35
REMARK                            x       y       z     vdW  Elec       q    Type
REMARK                         _______ _______ _______ _____ _____    ______ ____
ROOT
ATOM      1  C   UNL     1      35.434  15.102  33.137  0.00  0.00    +0.219 C 
ATOM      2  N   UNL     1      36.676  15.161  33.753  0.00  0.00    -0.210 N 
ATOM      3  N   UNL     1      37.395  16.300  34.022  0.00  0.00    -0.143 NA
ATOM      4  C   UNL     1      36.776  17.372  33.628  0.00  0.00    +0.382 C 
ATOM      5  N   UNL     1      35.580  17.493  33.020  0.00  0.00    -0.030 NA
ATOM      6  C   UNL     1      37.131  13.882  34.083  0.00  0.00    +0.128 C 
ATOM     22  C   UNL     1      36.142  13.010  33.657  0.00  0.00    +0.016 C 
ATOM     23  C   UNL     1      35.082  13.761  33.067  0.00  0.00    +0.016 C 
ATOM     35  C   UNL     1      34.881  16.369  32.760  0.00  0.00    +0.319 C 
ATOM     36  N   UNL     1      33.692  16.479  32.156  0.00  0.00    -0.248 N 
ATOM     37  H   UNL     1      33.314  17.444  31.890  0.00  0.00    +0.288 HD
ATOM     38  H   UNL     1      33.119  15.602  31.939  0.00  0.00    +0.288 HD
ENDROOT
BRANCH   6   7
ATOM      7  C   UNL     1      38.417  13.575  34.750  0.00  0.00    -0.014 A 
ATOM      8  C   UNL     1      39.575  14.280  34.417  0.00  0.00    +0.029 A 
ATOM      9  C   UNL     1      40.792  13.987  35.049  0.00  0.00    +0.030 A 
ATOM     19  C   UNL     1      40.832  12.980  36.018  0.00  0.00    +0.023 A 
ATOM     20  C   UNL     1      39.679  12.284  36.344  0.00  0.00    +0.002 A 
ATOM     21  C   UNL     1      38.481  12.576  35.717  0.00  0.00    +0.006 A 
BRANCH   9  10
ATOM     10  N   UNL     1      41.951  14.686  34.721  0.00  0.00    -0.327 N 
ATOM     11  C   UNL     1      42.614  14.306  33.470  0.00  0.00    +0.124 C 
ATOM     12  C   UNL     1      44.039  14.834  33.436  0.00  0.00    +0.126 C 
ATOM     13  N   UNL     1      44.039  16.290  33.645  0.00  0.00    -0.299 N 
ATOM     14  C   UNL     1      44.552  17.178  32.737  0.00  0.00    +0.213 C 
ATOM     15  O   UNL     1      45.044  16.789  31.685  0.00  0.00    -0.276 OA
ATOM     16  C   UNL     1      44.495  18.641  33.063  0.00  0.00    +0.109 C 
ATOM     17  C   UNL     1      43.426  16.646  34.937  0.00  0.00    +0.126 C 
ATOM     18  C   UNL     1      41.992  16.127  34.999  0.00  0.00    +0.124 C 
ENDBRANCH   9  10
ENDBRANCH   6   7
BRANCH  23  24
ATOM     24  C   UNL     1      33.856  13.176  32.501  0.00  0.00    +0.068 A 
ATOM     25  C   UNL     1      32.547  13.567  32.728  0.00  0.00    +0.049 A 
ATOM     26  C   UNL     1      31.773  12.699  31.963  0.00  0.00    +0.135 A 
ATOM     27  N   UNL     1      32.500  11.813  31.289  0.00  0.00    -0.179 NA
ATOM     28  N   UNL     1      33.790  12.122  31.633  0.00  0.00    -0.261 N 
BRANCH  28  29
ATOM     29  C   UNL     1      34.943  11.371  31.100  0.00  0.00    +0.112 C 
ATOM     30  C   UNL     1      35.011   9.980  31.724  0.00  0.00    +0.055 C 
ATOM     31  C   UNL     1      36.042   9.129  31.019  0.00  0.00    +0.162 C 
ATOM     32  O   UNL     1      35.781   9.052  29.614  0.00  0.00    -0.380 OA
ATOM     33  C   UNL     1      35.906  10.348  29.021  0.00  0.00    +0.162 C 
ATOM     34  C   UNL     1      34.880  11.307  29.575  0.00  0.00    +0.055 C 
ENDBRANCH  28  29
ENDBRANCH  23  24
TORSDOF 4
