REMARK  Name = 4rfy_ligand
REMARK  11 active torsions:
REMARK  status: ('A' for Active; 'I' for Inactive)
REMARK    1  A    between atoms: C2_2  and  N9_9
REMARK    2  A    between atoms: C4_4  and  C24_24
REMARK    3  A    between atoms: N6_6  and  C7_7
REMARK    4  A    between atoms: N9_9  and  C10_10
REMARK    5  A    between atoms: C13_13  and  C16_16
REMARK    6  A    between atoms: C28_28  and  N31_31
REMARK    7  A    between atoms: C29_29  and  C30_30
REMARK    8  A    between atoms: C30_30  and  O45_45
REMARK    9  A    between atoms: C38_38  and  N41_41
REMARK   10  A    between atoms: N41_41  and  C42_42
REMARK   11  A    between atoms: N41_41  and  C43_43
REMARK                            x       y       z     vdW  Elec       q    Type
REMARK                         _______ _______ _______ _____ _____    ______ ____
ROOT
ATOM      1  C   UNL     1      21.590   5.629   1.215  0.00  0.00    +0.242 A 
ATOM      2  O   UNL     1      20.661   5.221   0.516  0.00  0.00    -0.408 OA
ATOM      3  N   UNL     1      21.454   5.785   2.561  0.00  0.00    -0.213 N 
ATOM      4  C   UNL     1      20.140   5.490   3.212  0.00  0.00    +0.238 C 
ATOM      5  C   UNL     1      22.501   6.233   3.295  0.00  0.00    +0.173 A 
ATOM      6  C   UNL     1      23.708   6.523   2.673  0.00  0.00    -0.020 A 
ATOM     30  C   UNL     1      23.867   6.371   1.260  0.00  0.00    -0.004 A 
ATOM     31  C   UNL     1      22.813   5.914   0.529  0.00  0.00    +0.124 A 
ENDROOT
BRANCH   6   7
ATOM      7  C   UNL     1      24.881   6.983   3.474  0.00  0.00    -0.049 A 
ATOM      8  C   UNL     1      24.842   7.949   4.515  0.00  0.00    +0.002 A 
ATOM     12  C   UNL     1      26.031   8.306   5.178  0.00  0.00    +0.067 A 
ATOM     27  C   UNL     1      27.245   7.660   4.898  0.00  0.00    -0.011 A 
ATOM     28  C   UNL     1      27.289   6.690   3.858  0.00  0.00    -0.038 A 
ATOM     29  C   UNL     1      26.122   6.353   3.186  0.00  0.00    -0.044 A 
BRANCH  12  13
ATOM     13  N   UNL     1      25.922   9.268   6.229  0.00  0.00    -0.225 N 
ATOM     14  C   UNL     1      25.749   8.858   7.517  0.00  0.00    +0.219 C 
ATOM     15  O   UNL     1      25.663   7.650   7.836  0.00  0.00    -0.384 OA
ATOM     16  C   UNL     1      25.502   9.886   8.565  0.00  0.00    +0.044 A 
ATOM     17  C   UNL     1      25.471   9.536   9.923  0.00  0.00    +0.003 A 
ATOM     18  C   UNL     1      25.156  10.496  10.887  0.00  0.00    +0.003 A 
ATOM     19  C   UNL     1      24.766  11.792  10.468  0.00  0.00    +0.038 A 
ATOM     23  C   UNL     1      24.795  12.156   9.089  0.00  0.00    +0.009 A 
ATOM     24  C   UNL     1      25.125  11.202   8.137  0.00  0.00    -0.031 A 
ATOM     25  C   UNL     1      25.078  11.527   6.680  0.00  0.00    +0.099 C 
ATOM     26  C   UNL     1      26.035  10.702   5.843  0.00  0.00    +0.184 C 
BRANCH  19  20
ATOM     20  N   UNL     1      24.444  12.741  11.475  0.00  0.00    -0.313 N 
ATOM     21  C   UNL     1      24.699  12.497  12.884  0.00  0.00    +0.160 C 
ATOM     22  C   UNL     1      23.762  14.030  11.106  0.00  0.00    +0.160 C 
ENDBRANCH  19  20
ENDBRANCH  12  13
BRANCH   8   9
ATOM      9  C   UNL     1      23.512   8.656   4.763  0.00  0.00    +0.208 C 
BRANCH   9  10
ATOM     10  O   UNL     1      22.846   8.181   5.958  0.00  0.00    -0.386 OA
ATOM     11  H   UNL     1      22.027   8.649   6.070  0.00  0.00    +0.212 HD
ENDBRANCH   9  10
ENDBRANCH   8   9
ENDBRANCH   6   7
BRANCH  31  32
ATOM     32  N   UNL     1      22.780   5.717  -0.881  0.00  0.00    -0.262 N 
ATOM     33  H   UNL     1      21.849   5.486  -1.256  0.00  0.00    +0.212 HD
BRANCH  32  34
ATOM     34  C   UNL     1      23.775   5.782  -1.830  0.00  0.00    +0.134 A 
ATOM     35  N   UNL     1      24.956   6.286  -1.464  0.00  0.00    -0.276 NA
ATOM     36  C   UNL     1      25.939   6.398  -2.350  0.00  0.00    +0.101 A 
ATOM     37  C   UNL     1      25.747   5.973  -3.691  0.00  0.00    +0.063 A 
ATOM     46  C   UNL     1      24.501   5.452  -4.091  0.00  0.00    +0.040 A 
ATOM     47  C   UNL     1      23.503   5.356  -3.148  0.00  0.00    +0.056 A 
BRANCH  37  38
ATOM     38  C   UNL     1      26.896   6.153  -4.629  0.00  0.00    +0.205 C 
ATOM     39  N   UNL     1      26.787   6.930  -5.749  0.00  0.00    -0.269 N 
ATOM     40  C   UNL     1      25.492   7.612  -6.094  0.00  0.00    +0.166 C 
ATOM     41  C   UNL     1      25.400   8.142  -7.533  0.00  0.00    +0.184 C 
ATOM     42  O   UNL     1      26.661   8.716  -7.879  0.00  0.00    -0.376 OA
ATOM     43  C   UNL     1      27.600   7.634  -8.034  0.00  0.00    +0.184 C 
ATOM     44  C   UNL     1      27.982   7.116  -6.637  0.00  0.00    +0.166 C 
ATOM     45  O   UNL     1      27.968   5.668  -4.329  0.00  0.00    -0.388 OA
ENDBRANCH  37  38
ENDBRANCH  32  34
ENDBRANCH  31  32
TORSDOF 8
