REMARK  Name = 4ZZN
REMARK  6 active torsions:
REMARK  status: ('A' for Active; 'I' for Inactive)
REMARK    1  A    between atoms: C_3  and  N_4
REMARK    2  A    between atoms: N_4  and  C_5
REMARK    3  A    between atoms: C_10  and  C_11
REMARK    4  A    between atoms: N_13  and  C_14
REMARK    5  A    between atoms: C_17  and  N_19
REMARK    6  A    between atoms: N_19  and  C_20
REMARK                            x       y       z     vdW  Elec       q    Type
REMARK                         _______ _______ _______ _____ _____    ______ ____
ROOT
ATOM      1 CL   UNL     1     -15.059  10.931  39.497  0.00  0.00    -0.080 Cl
ATOM      2  C   UNL     1     -16.167  11.822  40.497  0.00  0.00    +0.080 A 
ATOM      3  C   UNL     1     -17.340  11.207  40.911  0.00  0.00    +0.134 A 
ATOM      4  N   UNL     1     -18.258  11.858  41.647  0.00  0.00    -0.239 NA
ATOM      5  C   UNL     1     -17.943  13.060  42.147  0.00  0.00    +0.121 A 
ATOM     14  C   UNL     1     -16.740  13.736  41.809  0.00  0.00    +0.068 A 
ATOM     15  C   UNL     1     -15.795  13.080  40.984  0.00  0.00    +0.055 A 
ENDROOT
BRANCH   5   6
ATOM      6  N   UNL     1     -18.882  13.691  42.935  0.00  0.00    -0.326 N 
ATOM      7  H   UNL     1     -19.868  13.275  42.947  0.00  0.00    +0.148 HD
BRANCH   6   8
ATOM      8  C   UNL     1     -18.648  14.880  43.756  0.00  0.00    +0.076 C 
ATOM      9  C   UNL     1     -19.958  15.482  44.254  0.00  0.00    +0.050 C 
ATOM     10  C   UNL     1     -19.645  16.664  45.145  0.00  0.00    +0.161 C 
ATOM     11  O   UNL     1     -18.796  16.280  46.259  0.00  0.00    -0.380 OA
ATOM     12  C   UNL     1     -17.548  15.771  45.768  0.00  0.00    +0.161 C 
ATOM     13  C   UNL     1     -17.757  14.523  44.946  0.00  0.00    +0.050 C 
ENDBRANCH   6   8
ENDBRANCH   5   6
BRANCH  15  16
ATOM     16  N   UNL     1     -14.586  13.614  40.622  0.00  0.00    -0.313 N 
ATOM     17  H   UNL     1     -13.977  13.025  39.968  0.00  0.00    +0.152 HD
BRANCH  16  18
ATOM     18  C   UNL     1     -14.059  14.870  41.027  0.00  0.00    +0.044 A 
ATOM     19  C   UNL     1     -12.733  14.916  41.440  0.00  0.00    +0.058 A 
ATOM     25  C   UNL     1     -12.144  16.156  41.827  0.00  0.00    +0.015 A 
ATOM     26  C   UNL     1     -12.908  17.330  41.755  0.00  0.00    +0.001 A 
ATOM     27  C   UNL     1     -14.243  17.264  41.319  0.00  0.00    +0.002 A 
ATOM     28  C   UNL     1     -14.811  16.046  40.960  0.00  0.00    +0.024 A 
BRANCH  19  20
ATOM     20  C   UNL     1     -11.936  13.665  41.565  0.00  0.00    +0.246 C 
ATOM     21  N   UNL     1     -11.256  13.542  42.701  0.00  0.00    -0.314 N 
ATOM     22  H   UNL     1     -11.337  14.309  43.443  0.00  0.00    +0.149 HD
ATOM     23  C   UNL     1     -10.407  12.395  42.961  0.00  0.00    +0.128 C 
ATOM     24  O   UNL     1     -11.967  12.777  40.658  0.00  0.00    -0.270 OA
ENDBRANCH  19  20
ENDBRANCH  16  18
ENDBRANCH  15  16
TORSDOF 5
