REMARK  Name = OQC
REMARK  6 active torsions:
REMARK  status: ('A' for Active; 'I' for Inactive)
REMARK    1  A    between atoms: C7_1  and  C4_8
REMARK    2  A    between atoms: C1_5  and  C_6
REMARK    3  A    between atoms: C7_15  and  C4_22
REMARK    4  A    between atoms: C1_19  and  C_20
REMARK    5  A    between atoms: C7_29  and  C4_36
REMARK    6  A    between atoms: C1_33  and  C_34
REMARK                            x       y       z     vdW  Elec       q    Type
REMARK                         _______ _______ _______ _____ _____    ______ ____
ROOT
ATOM      2  C   UNL     1      14.423 119.331 369.892  0.00  0.00    +0.014 A 
ATOM      3  C   UNL     1      13.332 119.975 370.474  0.00  0.00    +0.058 A 
ATOM      4  C   UNL     1      12.327 119.262 371.099  0.00  0.00    +0.009 A 
ATOM      5  C   UNL     1      12.369 117.874 371.145  0.00  0.00    -0.002 A 
ATOM      8  C   UNL     1      13.433 117.228 370.540  0.00  0.00    -0.003 A 
ATOM      9 CL   UNL     1      13.140 121.694 370.374  0.00  0.00    -0.082 Cl
ATOM     10  C   UNL     1      14.445 117.939 369.922  0.00  0.00    +0.001 A 
ENDROOT
BRANCH   2   1
ATOM      1  C   UNL     1      15.610 120.042 369.350  0.00  0.00    +0.042 A 
ATOM     11  C   UNL     1      15.854 121.443 369.423  0.00  0.00    +0.044 A 
ATOM     12  C   UNL     1      17.018 121.676 368.811  0.00  0.00    +0.180 A 
ATOM     13  O   UNL     1      17.547 120.514 368.340  0.00  0.00    -0.447 OA
ATOM     14  C   UNL     1      16.665 119.529 368.681  0.00  0.00    +0.180 A 
ENDBRANCH   2   1
BRANCH   5   6
ATOM      6  C   UNL     1      11.285 117.106 371.851  0.00  0.00    +0.136 C 
ATOM      7  N   UNL     1      11.029 117.543 373.218  0.00  0.00    -0.126 NA
ENDBRANCH   5   6
TORSDOF 2
