REMARK  Name = 3g15_ligand
REMARK  9 active torsions:
REMARK  status: ('A' for Active; 'I' for Inactive)
REMARK    1  A    between atoms: NAA_2  and  CBA_3
REMARK    2  A    between atoms: NAA_2  and  CBB_4
REMARK    3  A    between atoms: CAD_8  and  OBC_9
REMARK    4  A    between atoms: CAD_8  and  CAG_10
REMARK    5  A    between atoms: CAJ_15  and  CAM_16
REMARK    6  A    between atoms: CAP_21  and  CAS_22
REMARK    7  A    between atoms: CAS_22  and  OBD_23
REMARK    8  A    between atoms: NAW_28  and  CAZ_29
REMARK    9  A    between atoms: NAW_28  and  CAY_30
REMARK                            x       y       z     vdW  Elec       q    Type
REMARK                         _______ _______ _______ _____ _____    ______ ____
ROOT
ATOM      3  C   UNL     1     -11.219 -15.225   5.550  0.00  0.00    +0.009 A 
ATOM      4  C   UNL     1     -12.395 -14.912   6.244  0.00  0.00    +0.053 A 
ATOM      5  C   UNL     1     -12.878 -15.721   7.290  0.00  0.00    +0.054 A 
ATOM      6  C   UNL     1     -12.194 -16.877   7.674  0.00  0.00    +0.027 A 
ATOM     23  C   UNL     1     -10.995 -17.192   7.018  0.00  0.00    +0.054 A 
ATOM     24  C   UNL     1     -10.525 -16.378   5.966  0.00  0.00    +0.053 A 
ENDROOT
BRANCH   3   2
ATOM      1  C   UNL     1      -9.953 -13.176   5.113  0.00  0.00    +0.153 C 
ATOM      2  C   UNL     1     -10.719 -14.355   4.463  0.00  0.00    +0.199 C 
ATOM     27  O   UNL     1      -9.871 -15.086   3.547  0.00  0.00    -0.379 OA
ATOM     28  C   UNL     1      -9.205 -14.195   2.572  0.00  0.00    +0.199 C 
ATOM     29  C   UNL     1      -8.401 -13.122   3.286  0.00  0.00    +0.159 C 
ATOM     30  N   UNL     1      -9.273 -12.306   4.116  0.00  0.00    +0.238 N 
ATOM     31  C   UNL     1      -8.470 -11.378   4.925  0.00  0.00    +0.191 C 
ATOM     32  C   UNL     1     -10.214 -11.605   3.202  0.00  0.00    +0.191 C 
BRANCH   2  25
ATOM     25  O   UNL     1     -11.750 -13.738   3.676  0.00  0.00    -0.400 OA
ATOM     26  H   UNL     1     -12.336 -13.241   4.251  0.00  0.00    +0.198 HD
ENDBRANCH   2  25
ENDBRANCH   3   2
BRANCH   6   7
ATOM      7  C   UNL     1     -12.684 -17.644   8.761  0.00  0.00    +0.027 A 
ATOM      8  C   UNL     1     -14.037 -17.804   9.002  0.00  0.00    +0.054 A 
ATOM      9  C   UNL     1     -14.485 -18.538  10.116  0.00  0.00    +0.053 A 
ATOM     10  C   UNL     1     -13.581 -19.142  11.019  0.00  0.00    +0.009 A 
ATOM     21  C   UNL     1     -12.218 -18.958  10.766  0.00  0.00    +0.053 A 
ATOM     22  C   UNL     1     -11.793 -18.238   9.656  0.00  0.00    +0.054 A 
BRANCH  10  11
ATOM     11  C   UNL     1     -14.032 -19.914  12.185  0.00  0.00    +0.199 C 
ATOM     12  O   UNL     1     -13.050 -19.821  13.291  0.00  0.00    -0.379 OA
ATOM     13  C   UNL     1     -13.463 -20.687  14.406  0.00  0.00    +0.199 C 
ATOM     14  C   UNL     1     -13.633 -22.121  13.994  0.00  0.00    +0.159 C 
ATOM     15  N   UNL     1     -14.655 -22.231  12.945  0.00  0.00    +0.238 N 
ATOM     16  C   UNL     1     -14.673 -23.626  12.471  0.00  0.00    +0.191 C 
ATOM     17  C   UNL     1     -15.974 -21.839  13.505  0.00  0.00    +0.191 C 
ATOM     18  C   UNL     1     -14.242 -21.380  11.813  0.00  0.00    +0.153 C 
BRANCH  11  19
ATOM     19  O   UNL     1     -15.290 -19.425  12.682  0.00  0.00    -0.400 OA
ATOM     20  H   UNL     1     -15.188 -18.514  12.965  0.00  0.00    +0.198 HD
ENDBRANCH  11  19
ENDBRANCH  10  11
ENDBRANCH   6   7
TORSDOF 5
