REMARK  Name = 9XK
REMARK  4 active torsions:
REMARK  status: ('A' for Active; 'I' for Inactive)
REMARK    1  A    between atoms: C11_11  and  C13_13
REMARK    2  A    between atoms: C13_13  and  S14_14
REMARK    3  A    between atoms: S14_14  and  C15_15
REMARK    4  A    between atoms: N24_24  and  C25_25
REMARK                            x       y       z     vdW  Elec       q    Type
REMARK                         _______ _______ _______ _____ _____    ______ ____
ROOT
ATOM     12  C   UNL     1       0.949  11.206 -13.011  0.00  0.00    +0.234 C 
ATOM     13  N   UNL     1       0.721  11.724 -11.612  0.00  0.00    -0.230 N 
ATOM     20  C   UNL     1       0.466  13.151 -11.403  0.00  0.00    +0.246 C 
ATOM     21  O   UNL     1       0.288  13.566 -10.308  0.00  0.00    -0.273 OA
ATOM     22  C   UNL     1       0.426  14.076 -12.569  0.00  0.00    +0.160 C 
ATOM     23  S   UNL     1       0.158  15.741 -12.700  0.00  0.00    -0.126 S 
ATOM     24  C   UNL     1      -0.165  15.997 -14.327  0.00  0.00    +0.064 C 
ATOM     25  C   UNL     1       0.559  14.798 -15.084  0.00  0.00    +0.054 C 
ATOM     26  C   UNL     1       0.656  13.535 -13.994  0.00  0.00    +0.054 C 
ATOM     27  N   UNL     1       0.910  12.132 -14.179  0.00  0.00    -0.249 NA
ENDROOT
BRANCH  13  14
ATOM     14  C   UNL     1       0.774  10.813 -10.478  0.00  0.00    +0.056 A 
ATOM     15  C   UNL     1       1.866  10.857  -9.623  0.00  0.00    +0.015 A 
ATOM     16  C   UNL     1       1.939   9.997  -8.541  0.00  0.00    +0.001 A 
ATOM     17  C   UNL     1       0.919   9.090  -8.310  0.00  0.00    +0.000 A 
ATOM     18  C   UNL     1      -0.171   9.044  -9.165  0.00  0.00    +0.001 A 
ATOM     19  C   UNL     1      -0.245   9.903 -10.249  0.00  0.00    +0.015 A 
ENDBRANCH  13  14
BRANCH  12  11
ATOM     11  S   UNL     1       1.266   9.454 -13.350  0.00  0.00    -0.086 S 
BRANCH  11  10
ATOM     10  C   UNL     1       1.626   9.377 -15.131  0.00  0.00    +0.148 C 
BRANCH  10   9
ATOM      1  C   UNL     1      -5.361   5.076 -21.065  0.00  0.00    +0.031 C 
ATOM      2  C   UNL     1      -4.294   5.237 -19.991  0.00  0.00    -0.021 A 
ATOM      3  C   UNL     1      -3.843   4.111 -19.297  0.00  0.00    -0.003 A 
ATOM      4  C   UNL     1      -2.869   4.252 -18.329  0.00  0.00    +0.019 A 
ATOM      5  C   UNL     1      -2.339   5.530 -18.047  0.00  0.00    +0.089 A 
ATOM      6  N   UNL     1      -1.322   5.750 -17.051  0.00  0.00    -0.223 NA
ATOM      7  C   UNL     1      -1.003   7.081 -16.964  0.00  0.00    +0.186 A 
ATOM      8  N   UNL     1       0.040   7.570 -16.073  0.00  0.00    -0.154 NA
ATOM      9  C   UNL     1       0.458   8.962 -16.035  0.00  0.00    +0.258 C 
ATOM     28  O   UNL     1      -0.087   9.767 -16.714  0.00  0.00    -0.272 OA
ATOM     29  S   UNL     1      -1.911   7.929 -18.102  0.00  0.00    -0.050 S 
ATOM     30  C   UNL     1      -2.778   6.650 -18.730  0.00  0.00    +0.049 A 
ATOM     31  C   UNL     1      -3.766   6.504 -19.712  0.00  0.00    +0.004 A 
ENDBRANCH  10   9
ENDBRANCH  11  10
ENDBRANCH  12  11
TORSDOF 4
