REMARK  Name = 3SW7
REMARK  8 active torsions:
REMARK  status: ('A' for Active; 'I' for Inactive)
REMARK    1  A    between atoms: C_2  and  C_5
REMARK    2  A    between atoms: C_7  and  C_9
REMARK    3  A    between atoms: N_8  and  C_18
REMARK    4  A    between atoms: N_10  and  C_21
REMARK    5  A    between atoms: N_10  and  C_22
REMARK    6  A    between atoms: N_10  and  C_23
REMARK    7  A    between atoms: C_11  and  C_13
REMARK    8  A    between atoms: N_12  and  C_24
REMARK                            x       y       z     vdW  Elec       q    Type
REMARK                         _______ _______ _______ _____ _____    ______ ____
ROOT
ATOM      3  C   UNL     1      12.969   8.572 -13.265  0.00  0.00    +0.085 A 
ATOM      4  C   UNL     1      13.260   8.794 -14.606  0.00  0.00    +0.046 A 
ATOM      5  C   UNL     1      12.403   9.670 -15.252  0.00  0.00    +0.088 A 
ATOM      6  N   UNL     1      11.368  10.296 -14.663  0.00  0.00    -0.331 N 
ATOM      7  H   UNL     1      10.740  10.982 -15.192  0.00  0.00    +0.168 HD
ATOM      8  C   UNL     1      11.176  10.004 -13.369  0.00  0.00    +0.229 A 
ATOM      9  N   UNL     1      10.143  10.620 -12.743  0.00  0.00    -0.213 NA
ATOM     22  N   UNL     1      11.944   9.170 -12.638  0.00  0.00    -0.212 NA
ENDROOT
BRANCH   3   2
ATOM      1  S   UNL     1      13.015   7.240 -10.872  0.00  0.00    -0.071 S 
ATOM      2  C   UNL     1      13.758   7.690 -12.385  0.00  0.00    +0.060 A 
ATOM     23  C   UNL     1      14.980   7.000 -12.510  0.00  0.00    +0.055 A 
ATOM     24  C   UNL     1      16.002   7.162 -13.585  0.00  0.00    +0.067 C 
ATOM     25  N   UNL     1      15.258   6.137 -11.463  0.00  0.00    -0.249 NA
ATOM     26  C   UNL     1      14.333   6.154 -10.546  0.00  0.00    +0.076 A 
ATOM     27  C   UNL     1      14.378   5.315  -9.309  0.00  0.00    +0.074 C 
ENDBRANCH   3   2
BRANCH   9  10
ATOM     10  C   UNL     1       9.582  10.512 -11.450  0.00  0.00    +0.070 A 
ATOM     11  C   UNL     1       8.663  11.464 -11.017  0.00  0.00    +0.062 A 
ATOM     12  C   UNL     1       8.082  11.388  -9.763  0.00  0.00    +0.149 A 
ATOM     13  C   UNL     1       8.497  10.310  -8.852  0.00  0.00    +0.060 A 
ATOM     14  C   UNL     1       9.417   9.392  -9.328  0.00  0.00    +0.027 A 
ATOM     21  C   UNL     1       9.951   9.479 -10.599  0.00  0.00    +0.030 A 
BRANCH  13  15
ATOM     15  N   UNL     1       8.082  10.124  -7.437  0.00  0.00    -0.334 N 
ATOM     16  C   UNL     1       8.448  11.271  -6.553  0.00  0.00    +0.129 C 
ATOM     17  C   UNL     1       6.650   9.733  -7.288  0.00  0.00    +0.129 C 
ENDBRANCH  13  15
BRANCH  12  18
ATOM     18  N   UNL     1       7.129  12.464  -9.434  0.00  0.00    +0.058 N 
ATOM     19  O   UNL     1       6.473  12.371  -8.413  0.00  0.00    -0.126 OA
ATOM     20  O   UNL     1       7.153  13.484 -10.107  0.00  0.00    -0.126 OA
ENDBRANCH  12  18
ENDBRANCH   9  10
TORSDOF 4
