REMARK  Name = 6BQL
REMARK  7 active torsions:
REMARK  status: ('A' for Active; 'I' for Inactive)
REMARK    1  A    between atoms: N_6  and  C_7
REMARK    2  A    between atoms: C_9  and  O_10
REMARK    3  A    between atoms: O_10  and  C_11
REMARK    4  A    between atoms: C_14  and  N_15
REMARK    5  A    between atoms: N_23  and  C_24
REMARK    6  A    between atoms: C_29  and  C_30
REMARK    7  A    between atoms: N_32  and  C_33
REMARK                            x       y       z     vdW  Elec       q    Type
REMARK                         _______ _______ _______ _____ _____    ______ ____
ROOT
ATOM      7  N   UNL     1      10.865  17.538  48.179  0.00  0.00    -0.211 NA
ATOM      8  C   UNL     1      10.978  18.887  48.236  0.00  0.00    +0.208 C 
ATOM      9  N   UNL     1      10.295  19.571  47.295  0.00  0.00    -0.331 N 
ATOM     10  H   UNL     1       9.707  19.066  46.558  0.00  0.00    +0.168 HD
ATOM     11  C   UNL     1      10.382  20.903  47.320  0.00  0.00    +0.109 C 
ATOM     12  C   UNL     1      11.112  21.565  48.275  0.00  0.00    +0.099 C 
ATOM     13  C   UNL     1      11.803  20.798  49.209  0.00  0.00    +0.154 C 
ATOM     14  N   UNL     1      12.530  21.399  50.196  0.00  0.00    -0.228 NA
ATOM     26 CL   UNL     1      11.171  23.306  48.291  0.00  0.00    -0.078 Cl
ATOM     27  N   UNL     1      11.719  19.462  49.195  0.00  0.00    -0.309 N 
ATOM     28  H   UNL     1      12.228  18.870  49.927  0.00  0.00    +0.170 HD
ENDROOT
BRANCH   7   6
ATOM      3  C   UNL     1      12.340  14.367  50.512  0.00  0.00    +0.033 A 
ATOM      4  C   UNL     1      13.039  15.579  50.464  0.00  0.00    +0.025 A 
ATOM      5  C   UNL     1      12.565  16.633  49.720  0.00  0.00    +0.033 A 
ATOM      6  C   UNL     1      11.375  16.499  48.992  0.00  0.00    +0.109 A 
ATOM     29  C   UNL     1      10.672  15.278  48.999  0.00  0.00    +0.147 A 
ATOM     32  C   UNL     1      11.162  14.225  49.762  0.00  0.00    +0.070 A 
BRANCH   3   2
ATOM      1  C   UNL     1      11.890  12.332  51.831  0.00  0.00    +0.133 C 
ATOM      2  N   UNL     1      12.859  13.282  51.258  0.00  0.00    -0.325 N 
ATOM     33  C   UNL     1      13.964  12.583  50.602  0.00  0.00    +0.133 C 
ATOM     34  C   UNL     1      14.592  11.591  51.553  0.00  0.00    +0.178 C 
ATOM     35  O   UNL     1      13.637  10.640  52.018  0.00  0.00    -0.377 OA
ATOM     36  C   UNL     1      12.575  11.301  52.706  0.00  0.00    +0.178 C 
ENDBRANCH   3   2
BRANCH  29  30
ATOM     30  O   UNL     1       9.529  15.208  48.253  0.00  0.00    -0.493 OA
ATOM     31  C   UNL     1       8.788  13.992  48.205  0.00  0.00    +0.277 C 
ENDBRANCH  29  30
ENDBRANCH   7   6
BRANCH  14  15
ATOM     15  C   UNL     1      13.366  20.855  51.203  0.00  0.00    +0.078 A 
ATOM     16  C   UNL     1      14.544  21.532  51.613  0.00  0.00    +0.062 A 
ATOM     22  C   UNL     1      15.328  20.976  52.612  0.00  0.00    +0.015 A 
ATOM     23  C   UNL     1      15.001  19.775  53.197  0.00  0.00    +0.001 A 
ATOM     24  C   UNL     1      13.862  19.104  52.794  0.00  0.00    +0.002 A 
ATOM     25  C   UNL     1      13.041  19.638  51.822  0.00  0.00    +0.028 A 
BRANCH  16  17
ATOM     17  C   UNL     1      14.919  22.841  50.986  0.00  0.00    +0.246 C 
ATOM     18  N   UNL     1      16.219  23.139  50.905  0.00  0.00    -0.314 N 
ATOM     19  H   UNL     1      16.942  22.385  51.137  0.00  0.00    +0.149 HD
ATOM     20  C   UNL     1      16.677  24.458  50.511  0.00  0.00    +0.128 C 
ATOM     21  O   UNL     1      14.050  23.585  50.523  0.00  0.00    -0.270 OA
ENDBRANCH  16  17
ENDBRANCH  14  15
TORSDOF 5
