REMARK  Name = 3uoh_ligand
REMARK  4 active torsions:
REMARK  status: ('A' for Active; 'I' for Inactive)
REMARK    1  A    between atoms: N01_2  and  C09_10
REMARK    2  A    between atoms: N04_5  and  C13_14
REMARK    3  A    between atoms: N04_5  and  C16_17
REMARK    4  A    between atoms: C06_7  and  C11_12
REMARK                            x       y       z     vdW  Elec       q    Type
REMARK                         _______ _______ _______ _____ _____    ______ ____
ROOT
ATOM     10  C   UNL     1       6.448  20.486   9.653  0.00  0.00    +0.135 A 
ATOM     11  C   UNL     1       6.590  21.831  10.016  0.00  0.00    +0.057 A 
ATOM     12  C   UNL     1       7.384  22.201  11.100  0.00  0.00    +0.086 A 
ATOM     13  N   UNL     1       8.008  21.231  11.784  0.00  0.00    -0.268 NA
ATOM     14  C   UNL     1       7.872  19.943  11.431  0.00  0.00    +0.196 A 
ATOM     15  N   UNL     1       8.586  18.981  12.222  0.00  0.00    -0.243 N 
ATOM     16  H   UNL     1       9.040  19.325  13.068  0.00  0.00    +0.219 HD
ATOM     26  N   UNL     1       7.109  19.565  10.390  0.00  0.00    -0.234 NA
ENDROOT
BRANCH  15  17
ATOM     17  C   UNL     1       8.722  17.579  11.935  0.00  0.00    +0.068 A 
ATOM     18  C   UNL     1       7.826  16.902  11.117  0.00  0.00    +0.020 A 
ATOM     19  C   UNL     1       7.998  15.543  10.882  0.00  0.00    +0.005 A 
ATOM     20  C   UNL     1       9.066  14.861  11.457  0.00  0.00    -0.002 A 
ATOM     24  C   UNL     1       9.956  15.539  12.269  0.00  0.00    +0.005 A 
ATOM     25  C   UNL     1       9.781  16.893  12.509  0.00  0.00    +0.020 A 
BRANCH  20  21
ATOM     21  C   UNL     1       9.270  13.408  11.204  0.00  0.00    +0.055 C 
ATOM     22  O   UNL     1       8.705  12.848  10.225  0.00  0.00    -0.564 OA
ATOM     23  O   UNL     1      10.022  12.746  11.965  0.00  0.00    -0.564 OA
ENDBRANCH  20  21
ENDBRANCH  15  17
BRANCH  10   8
ATOM      8  N   UNL     1       5.619  20.126   8.527  0.00  0.00    -0.254 N 
ATOM      9  H   UNL     1       5.389  20.847   7.843  0.00  0.00    +0.217 HD
BRANCH   8   7
ATOM      1 BR   UNL     1       2.553  19.900   9.155  0.00  0.00    -0.059 Br
ATOM      2  C   UNL     1       3.755  18.520   8.551  0.00  0.00    +0.035 A 
ATOM      3  C   UNL     1       3.228  17.255   8.370  0.00  0.00    -0.000 A 
ATOM      4  C   UNL     1       4.061  16.237   7.945  0.00  0.00    -0.018 A 
ATOM      5  C   UNL     1       5.407  16.495   7.709  0.00  0.00    -0.007 A 
ATOM      6  C   UNL     1       5.926  17.772   7.897  0.00  0.00    +0.019 A 
ATOM      7  C   UNL     1       5.101  18.797   8.323  0.00  0.00    +0.073 A 
ENDBRANCH   8   7
ENDBRANCH  10   8
TORSDOF 4
