REMARK  Name = 7CB
REMARK  1 active torsions:
REMARK  status: ('A' for Active; 'I' for Inactive)
REMARK    1  A    between atoms: S_2  and  C7_5
REMARK                            x       y       z     vdW  Elec       q    Type
REMARK                         _______ _______ _______ _____ _____    ______ ____
ROOT
ATOM      5  C   UNL     1     -29.035  10.010   3.334  0.00  0.00    +0.125 A 
ATOM      6  C   UNL     1     -30.397   9.961   3.772  0.00  0.00    +0.022 A 
ATOM      7  C   UNL     1     -30.813   9.912   5.126  0.00  0.00    +0.022 A 
ATOM      8  C   UNL     1     -32.148   9.863   5.414  0.00  0.00    +0.099 A 
ATOM      9  N   UNL     1     -33.118   9.851   4.489  0.00  0.00    -0.242 NA
ATOM     10  C   UNL     1     -32.754   9.888   3.209  0.00  0.00    +0.099 A 
ATOM     11  C   UNL     1     -31.407   9.953   2.770  0.00  0.00    +0.021 A 
ATOM     12  C   UNL     1     -31.033  10.004   1.405  0.00  0.00    +0.002 A 
ATOM     13  C   UNL     1     -29.722  10.068   1.046  0.00  0.00    +0.001 A 
ATOM     14  C   UNL     1     -28.721  10.065   2.001  0.00  0.00    +0.020 A 
ENDROOT
BRANCH   5   2
ATOM      1  O   UNL     1     -27.953  10.828   5.570  0.00  0.00    -0.150 OA
ATOM      2  S   UNL     1     -27.683   9.933   4.482  0.00  0.00    +0.094 S 
ATOM      3  N   UNL     1     -27.638   8.439   5.082  0.00  0.00    +0.039 NA
ATOM      4  O   UNL     1     -26.478  10.132   3.720  0.00  0.00    -0.150 OA
ENDBRANCH   5   2
TORSDOF 1
