REMARK  Name = 2yex_ligand
REMARK  2 active torsions:
REMARK  status: ('A' for Active; 'I' for Inactive)
REMARK    1  A    between atoms: C6_7  and  C3_10
REMARK    2  A    between atoms: C10_12  and  C20_15
REMARK                            x       y       z     vdW  Elec       q    Type
REMARK                         _______ _______ _______ _____ _____    ______ ____
ROOT
ATOM      6  C   UNL     1       0.732  37.226  11.846  0.00  0.00    +0.069 A 
ATOM      7  C   UNL     1       1.408  36.787  10.724  0.00  0.00    +0.110 A 
ATOM      8  C   UNL     1       2.576  37.397  10.289  0.00  0.00    +0.066 A 
ATOM      9  N   UNL     1       3.237  36.952   9.206  0.00  0.00    -0.246 N 
ATOM     10  C   UNL     1       2.961  35.873   8.344  0.00  0.00    +0.280 A 
ATOM     11  O   UNL     1       1.988  35.133   8.390  0.00  0.00    -0.362 OA
ATOM     12  N   UNL     1       4.012  35.838   7.485  0.00  0.00    -0.172 N 
ATOM     13  H   UNL     1       4.130  35.150   6.741  0.00  0.00    +0.219 HD
ATOM     14  N   UNL     1       4.933  36.900   7.766  0.00  0.00    -0.198 N 
ATOM     15  H   UNL     1       5.796  37.131   7.273  0.00  0.00    +0.215 HD
ATOM     16  C   UNL     1       4.394  37.522   8.833  0.00  0.00    +0.144 A 
ATOM     17  C   UNL     1       4.948  38.615   9.471  0.00  0.00    +0.082 A 
ATOM     18  C   UNL     1       4.291  39.103  10.576  0.00  0.00    -0.004 A 
ATOM     19  C   UNL     1       4.879  40.292  11.263  0.00  0.00    +0.117 C 
ATOM     20  C   UNL     1       3.108  38.476  10.986  0.00  0.00    +0.025 A 
ATOM     21  C   UNL     1       2.423  38.914  12.112  0.00  0.00    +0.036 A 
ATOM     22  C   UNL     1       1.257  38.305  12.527  0.00  0.00    +0.037 A 
ENDROOT
BRANCH   6   5
ATOM      1  C   UNL     1      -2.490  36.068  13.250  0.00  0.00    +0.068 A 
ATOM      2  C   UNL     1      -2.228  35.124  12.300  0.00  0.00    +0.241 A 
ATOM      3  N   UNL     1      -1.036  35.450  11.724  0.00  0.00    -0.215 N 
ATOM      4  H   UNL     1      -0.590  34.916  10.978  0.00  0.00    +0.255 HD
ATOM      5  C   UNL     1      -0.516  36.590  12.280  0.00  0.00    +0.146 A 
ATOM     23  C   UNL     1      -1.416  36.989  13.243  0.00  0.00    +0.089 A 
ENDBRANCH   6   5
TORSDOF 1
