REMARK  Name = 4jg8_ligand
REMARK  16 active torsions:
REMARK  status: ('A' for Active; 'I' for Inactive)
REMARK    1  A    between atoms: C02_2  and  C09_9
REMARK    2  A    between atoms: N03_3  and  C04_4
REMARK    3  A    between atoms: C04_4  and  C05_5
REMARK    4  A    between atoms: C04_4  and  C06_6
REMARK    5  A    between atoms: C04_4  and  C07_7
REMARK    6  A    between atoms: C07_7  and  O08_8
REMARK    7  A    between atoms: C09_9  and  C10_10
REMARK    8  A    between atoms: C09_9  and  C12_12
REMARK    9  A    between atoms: C12_12  and  C13_13
REMARK   10  A    between atoms: C19_19  and  C20_20
REMARK   11  A    between atoms: C22_22  and  O23_23
REMARK   12  A    between atoms: O23_23  and  C24_24
REMARK   13  A    between atoms: C25_25  and  O26_26
REMARK   14  A    between atoms: O26_26  and  C27_27
REMARK   15  A    between atoms: C28_28  and  O29_29
REMARK   16  A    between atoms: O29_29  and  C30_30
REMARK                            x       y       z     vdW  Elec       q    Type
REMARK                         _______ _______ _______ _____ _____    ______ ____
ROOT
ATOM      5  C   UNL     1      11.775   7.582  20.641  0.00  0.00    -0.049 A 
ATOM      6  C   UNL     1      11.104   8.008  21.801  0.00  0.00    -0.012 A 
ATOM      7  C   UNL     1      10.051   8.924  21.711  0.00  0.00    +0.008 A 
ATOM      8  C   UNL     1       9.153   9.565  22.662  0.00  0.00    +0.050 A 
ATOM     21  N   UNL     1       8.309  10.382  21.962  0.00  0.00    -0.205 NA
ATOM     22  N   UNL     1       8.607  10.300  20.668  0.00  0.00    -0.217 N 
ATOM     23  H   UNL     1       8.123  10.815  19.919  0.00  0.00    +0.244 HD
ATOM     24  C   UNL     1       9.669   9.417  20.469  0.00  0.00    +0.083 A 
ATOM     25  C   UNL     1      10.338   8.999  19.314  0.00  0.00    +0.016 A 
ATOM     26  C   UNL     1      11.393   8.087  19.406  0.00  0.00    -0.013 A 
ENDROOT
BRANCH   8   9
ATOM      9  C   UNL     1       9.149   9.368  24.172  0.00  0.00    -0.037 A 
ATOM     10  C   UNL     1       9.243   7.990  24.764  0.00  0.00    -0.002 A 
ATOM     11  C   UNL     1       9.243   7.825  26.136  0.00  0.00    +0.112 A 
ATOM     14  C   UNL     1       9.149   9.020  27.034  0.00  0.00    +0.148 A 
ATOM     17  C   UNL     1       9.061  10.279  26.496  0.00  0.00    +0.112 A 
ATOM     20  C   UNL     1       9.063  10.462  25.002  0.00  0.00    -0.002 A 
BRANCH  11  12
ATOM     12  O   UNL     1       9.327   6.563  26.690  0.00  0.00    -0.328 OA
ATOM     13  C   UNL     1       8.189   5.972  27.227  0.00  0.00    +0.228 C 
ENDBRANCH  11  12
BRANCH  14  15
ATOM     15  O   UNL     1       9.146   8.861  28.404  0.00  0.00    -0.328 OA
ATOM     16  C   UNL     1      10.312   9.065  29.119  0.00  0.00    +0.225 C 
ENDBRANCH  14  15
BRANCH  17  18
ATOM     18  O   UNL     1       8.976  11.380  27.338  0.00  0.00    -0.328 OA
ATOM     19  C   UNL     1       7.745  11.832  27.775  0.00  0.00    +0.228 C 
ENDBRANCH  17  18
ENDBRANCH   8   9
BRANCH   5   4
ATOM      4  C   UNL     1      12.929   6.594  20.748  0.00  0.00    +0.111 C 
BRANCH   4   3
ATOM      3  C   UNL     1      12.531   5.179  20.349  0.00  0.00    +0.265 C 
BRANCH   3   2
ATOM      1  O   UNL     1      14.646   4.562  21.229  0.00  0.00    -0.394 OA
ATOM      2  C   UNL     1      13.701   4.233  20.526  0.00  0.00    +0.208 C 
ATOM     29  N   UNL     1      13.711   2.938  19.862  0.00  0.00    -0.277 N 
ATOM     30  H   UNL     1      12.937   2.672  19.288  0.00  0.00    +0.186 HD
BRANCH  29  31
ATOM     31  C   UNL     1      14.834   2.026  20.024  0.00  0.00    +0.070 C 
ATOM     35  C   UNL     1      14.997   1.656  21.453  0.00  0.00    +0.039 C 
ATOM     36  C   UNL     1      16.085   2.665  19.525  0.00  0.00    +0.039 C 
BRANCH  31  32
ATOM     32  C   UNL     1      14.573   0.786  19.231  0.00  0.00    +0.186 C 
BRANCH  32  33
ATOM     33  O   UNL     1      14.164   1.141  17.960  0.00  0.00    -0.393 OA
ATOM     34  H   UNL     1      13.997   0.356  17.452  0.00  0.00    +0.209 HD
ENDBRANCH  32  33
ENDBRANCH  31  32
ENDBRANCH  29  31
ENDBRANCH   3   2
BRANCH   3  27
ATOM     27  C   UNL     1      12.104   5.102  18.933  0.00  0.00    +0.117 C 
ATOM     28  N   UNL     1      11.779   5.030  17.836  0.00  0.00    -0.300 NA
ENDBRANCH   3  27
ENDBRANCH   4   3
ENDBRANCH   5   4
TORSDOF 11
