REMARK  Name = 6SD
REMARK  2 active torsions:
REMARK  status: ('A' for Active; 'I' for Inactive)
REMARK    1  A    between atoms: C2_2  and  O_14
REMARK    2  A    between atoms: C8_5  and  C5_11
REMARK                            x       y       z     vdW  Elec       q    Type
REMARK                         _______ _______ _______ _____ _____    ______ ____
ROOT
ATOM      3  C   UNL     1      23.048  37.780  -0.233  0.00  0.00    +0.139 A 
ATOM      4  C   UNL     1      23.221  37.728   1.141  0.00  0.00    +0.037 A 
ATOM      5  C   UNL     1      23.029  36.535   1.812  0.00  0.00    +0.005 A 
ATOM      6  C   UNL     1      22.641  35.384   1.134  0.00  0.00    +0.020 A 
ATOM     13  C   UNL     1      22.439  35.456  -0.243  0.00  0.00    +0.005 A 
ATOM     14  C   UNL     1      22.641  36.643  -0.927  0.00  0.00    +0.037 A 
ENDROOT
BRANCH   6   7
ATOM      7  C   UNL     1      22.525  34.102   1.858  0.00  0.00    +0.106 A 
ATOM      8  C   UNL     1      23.093  33.690   3.045  0.00  0.00    +0.060 A 
ATOM      9  C   UNL     1      22.689  32.386   3.236  0.00  0.00    +0.193 A 
ATOM     10  N   UNL     1      22.994  31.536   4.225  0.00  0.00    -0.105 NA
ATOM     11  N   UNL     1      21.892  31.979   2.232  0.00  0.00    -0.130 NA
ATOM     12  N   UNL     1      21.812  33.055   1.397  0.00  0.00    -0.147 NA
ENDBRANCH   6   7
BRANCH   3   2
ATOM      1  C   UNL     1      23.235  39.234  -2.149  0.00  0.00    +0.253 C 
ATOM      2  O   UNL     1      23.353  39.022  -0.742  0.00  0.00    -0.471 OA
ENDBRANCH   3   2
TORSDOF 2
