REMARK  Name = 4RVT
REMARK  9 active torsions:
REMARK  status: ('A' for Active; 'I' for Inactive)
REMARK    1  A    between atoms: C_1  and  O_14
REMARK    2  A    between atoms: C_4  and  C_7
REMARK    3  A    between atoms: C_11  and  C_16
REMARK    4  A    between atoms: C_12  and  O_13
REMARK    5  A    between atoms: C_16  and  C_17
REMARK    6  A    between atoms: C_17  and  C_19
REMARK    7  A    between atoms: C_19  and  C_20
REMARK    8  A    between atoms: C_20  and  C_21
REMARK    9  A    between atoms: C_21  and  C_22
REMARK                            x       y       z     vdW  Elec       q    Type
REMARK                         _______ _______ _______ _____ _____    ______ ____
ROOT
ATOM      7  C   UNL     1     -16.271   6.620 -29.870  0.00  0.00    +0.037 C 
ATOM      8  C   UNL     1     -15.864   5.461 -29.182  0.00  0.00    +0.127 C 
ATOM     11  C   UNL     1     -14.818   4.649 -29.635  0.00  0.00    +0.191 C 
ATOM     19  C   UNL     1     -14.194   5.064 -30.827  0.00  0.00    +0.259 C 
ATOM     20  O   UNL     1     -13.270   4.444 -31.338  0.00  0.00    -0.272 OA
ATOM     21  N   UNL     1     -14.613   6.224 -31.498  0.00  0.00    -0.187 NA
ATOM     22  C   UNL     1     -15.599   6.968 -31.042  0.00  0.00    +0.112 C 
ENDROOT
BRANCH   7   6
ATOM      1  C   UNL     1     -19.381   9.222 -28.816  0.00  0.00    +0.117 A 
ATOM      4  C   UNL     1     -18.671   8.573 -27.798  0.00  0.00    +0.046 A 
ATOM      5  C   UNL     1     -17.628   7.700 -28.130  0.00  0.00    +0.012 A 
ATOM      6  C   UNL     1     -17.307   7.474 -29.470  0.00  0.00    -0.013 A 
ATOM     23  C   UNL     1     -18.025   8.135 -30.472  0.00  0.00    +0.012 A 
ATOM     24  C   UNL     1     -19.062   9.004 -30.151  0.00  0.00    +0.046 A 
BRANCH   1   2
ATOM      2  O   UNL     1     -20.393  10.070 -28.518  0.00  0.00    -0.507 OA
ATOM      3  H   UNL     1     -20.174  11.024 -28.897  0.00  0.00    +0.292 HD
ENDBRANCH   1   2
ENDBRANCH   7   6
BRANCH   8   9
ATOM      9  O   UNL     1     -16.494   5.101 -28.029  0.00  0.00    -0.509 OA
ATOM     10  H   UNL     1     -16.391   5.868 -27.319  0.00  0.00    +0.292 HD
ENDBRANCH   8   9
BRANCH  11  12
ATOM     12  C   UNL     1     -14.462   3.501 -28.889  0.00  0.00    +0.158 C 
ATOM     13  O   UNL     1     -14.930   3.306 -27.775  0.00  0.00    -0.296 OA
BRANCH  12  14
ATOM     14  C   UNL     1     -13.475   2.473 -29.478  0.00  0.00    +0.076 C 
BRANCH  14  15
ATOM     15  C   UNL     1     -13.354   1.252 -28.550  0.00  0.00    +0.007 C 
BRANCH  15  16
ATOM     16  C   UNL     1     -11.987   0.590 -28.752  0.00  0.00    +0.000 C 
BRANCH  16  17
ATOM     17  C   UNL     1     -12.046  -0.876 -28.320  0.00  0.00    -0.003 C 
ATOM     18  C   UNL     1     -11.762  -1.769 -29.533  0.00  0.00    +0.004 C 
ENDBRANCH  16  17
ENDBRANCH  15  16
ENDBRANCH  14  15
ENDBRANCH  12  14
ENDBRANCH  11  12
TORSDOF 8
