REMARK  Name = 734
REMARK  3 active torsions:
REMARK  status: ('A' for Active; 'I' for Inactive)
REMARK    1  A    between atoms: CAC_3  and  CAM_13
REMARK    2  A    between atoms: CAF_6  and  CAM_13
REMARK    3  A    between atoms: CAM_13  and  NAT_20
REMARK                            x       y       z     vdW  Elec       q    Type
REMARK                         _______ _______ _______ _____ _____    ______ ____
ROOT
ATOM      1  C   UNL     1       6.420   7.000   6.000  0.00  0.00    +0.000 C 
ENDROOT
TORSDOF 0
