REMARK  Name = 5ONE
REMARK  9 active torsions:
REMARK  status: ('A' for Active; 'I' for Inactive)
REMARK    1  A    between atoms: C_2  and  N_24
REMARK    2  A    between atoms: C_6  and  N_7
REMARK    3  A    between atoms: C_10  and  N_12
REMARK    4  A    between atoms: C_11  and  C_13
REMARK    5  A    between atoms: N_16  and  C_36
REMARK    6  A    between atoms: N_21  and  C_22
REMARK    7  A    between atoms: C_27  and  C_28
REMARK    8  A    between atoms: C_37  and  C_39
REMARK    9  A    between atoms: C_39  and  C_40
REMARK                            x       y       z     vdW  Elec       q    Type
REMARK                         _______ _______ _______ _____ _____    ______ ____
ROOT
ATOM     15  C   UNL     1      33.207  -8.570  -1.416  0.00  0.00    +0.034 A 
ATOM     16  C   UNL     1      33.434  -9.368  -2.533  0.00  0.00    +0.025 A 
ATOM     17  C   UNL     1      34.681  -9.922  -2.758  0.00  0.00    +0.025 A 
ATOM     18  C   UNL     1      35.721  -9.701  -1.866  0.00  0.00    +0.034 A 
ATOM     35  C   UNL     1      35.502  -8.898  -0.752  0.00  0.00    +0.025 A 
ATOM     36  C   UNL     1      34.255  -8.334  -0.529  0.00  0.00    +0.025 A 
ENDROOT
BRANCH  15  13
ATOM      1  C   UNL     1      28.480 -10.438  -4.847  0.00  0.00    +0.056 A 
ATOM      2  C   UNL     1      28.934 -11.751  -4.975  0.00  0.00    +0.027 A 
ATOM      3  C   UNL     1      28.031 -12.800  -4.999  0.00  0.00    +0.005 A 
ATOM      4  C   UNL     1      26.665 -12.583  -4.904  0.00  0.00    -0.050 A 
ATOM      5  C   UNL     1      25.688 -13.725  -5.034  0.00  0.00    +0.044 C 
ATOM      6  C   UNL     1      26.218 -11.276  -4.747  0.00  0.00    +0.018 A 
ATOM      7  N   UNL     1      29.427  -9.373  -4.884  0.00  0.00    -0.327 N 
ATOM      8  C   UNL     1      29.515  -8.659  -3.675  0.00  0.00    +0.163 A 
ATOM      9  C   UNL     1      28.379  -7.970  -3.169  0.00  0.00    +0.106 A 
ATOM     10  C   UNL     1      28.565  -7.343  -1.937  0.00  0.00    +0.144 A 
ATOM     11  N   UNL     1      29.729  -7.335  -1.271  0.00  0.00    -0.221 NA
ATOM     12  C   UNL     1      30.738  -8.005  -1.849  0.00  0.00    +0.221 A 
ATOM     13  N   UNL     1      31.930  -7.987  -1.164  0.00  0.00    -0.284 N 
ATOM     14  H   UNL     1      31.892  -7.420  -0.257  0.00  0.00    +0.155 HD
ATOM     37  N   UNL     1      27.132  -7.846  -3.850  0.00  0.00    -0.307 N 
ATOM     38  C   UNL     1      26.429  -6.563  -3.800  0.00  0.00    +0.153 C 
ATOM     39  C   UNL     1      26.478  -8.838  -4.555  0.00  0.00    +0.261 A 
ATOM     40  O   UNL     1      25.379  -8.623  -5.032  0.00  0.00    -0.267 OA
ATOM     41  N   UNL     1      30.682  -8.672  -3.013  0.00  0.00    -0.195 NA
ATOM     42  C   UNL     1      30.640  -9.525  -5.694  0.00  0.00    +0.151 C 
ATOM     43  C   UNL     1      27.102 -10.192  -4.710  0.00  0.00    +0.063 A 
ENDBRANCH  15  13
BRANCH  18  19
ATOM     19  N   UNL     1      36.947 -10.365  -2.126  0.00  0.00    -0.281 N 
ATOM     20  H   UNL     1      36.870 -11.317  -2.608  0.00  0.00    +0.155 HD
ATOM     21  C   UNL     1      38.207  -9.945  -1.840  0.00  0.00    +0.248 C 
ATOM     22  O   UNL     1      38.481  -8.792  -1.512  0.00  0.00    -0.270 OA
BRANCH  21  23
ATOM     23  C   UNL     1      39.273 -10.987  -1.959  0.00  0.00    +0.037 A 
ATOM     24  C   UNL     1      40.349 -10.855  -2.836  0.00  0.00    +0.015 A 
ATOM     25  C   UNL     1      41.262 -11.884  -2.996  0.00  0.00    +0.024 A 
ATOM     26  C   UNL     1      41.114 -13.072  -2.283  0.00  0.00    +0.033 A 
ATOM     33  C   UNL     1      40.062 -13.192  -1.379  0.00  0.00    +0.024 A 
ATOM     34  C   UNL     1      39.153 -12.161  -1.222  0.00  0.00    +0.015 A 
BRANCH  26  27
ATOM     27  N   UNL     1      42.022 -14.137  -2.526  0.00  0.00    -0.285 N 
ATOM     28  H   UNL     1      42.794 -13.938  -3.239  0.00  0.00    +0.155 HD
ATOM     29  C   UNL     1      42.036 -15.377  -1.969  0.00  0.00    +0.217 C 
ATOM     32  O   UNL     1      41.599 -15.637  -0.849  0.00  0.00    -0.276 OA
BRANCH  29  30
ATOM     30  C   UNL     1      42.642 -16.427  -2.864  0.00  0.00    +0.093 C 
ATOM     31  C   UNL     1      44.108 -16.725  -2.539  0.00  0.00    +0.013 C 
ENDBRANCH  29  30
ENDBRANCH  26  27
ENDBRANCH  21  23
ENDBRANCH  18  19
TORSDOF 5
