REMARK  Name = 5OQ5
REMARK  8 active torsions:
REMARK  status: ('A' for Active; 'I' for Inactive)
REMARK    1  A    between atoms: N_8  and  C_9
REMARK    2  A    between atoms: N_12  and  C_13
REMARK    3  A    between atoms: C_19  and  C_21
REMARK    4  A    between atoms: C_23  and  O_24
REMARK    5  A    between atoms: O_24  and  C_25
REMARK    6  A    between atoms: C_28  and  N_29
REMARK    7  A    between atoms: N_31  and  C_32
REMARK    8  A    between atoms: N_41  and  C_42
REMARK                            x       y       z     vdW  Elec       q    Type
REMARK                         _______ _______ _______ _____ _____    ______ ____
ROOT
ATOM     18  C   UNL     1       1.012  -4.070  20.738  0.00  0.00    +0.076 A 
ATOM     19  C   UNL     1       0.548  -4.969  19.742  0.00  0.00    +0.028 A 
ATOM     20  C   UNL     1      -0.734  -5.526  19.757  0.00  0.00    +0.015 A 
ATOM     21  C   UNL     1      -1.591  -5.247  20.827  0.00  0.00    +0.041 A 
ATOM     22  C   UNL     1      -1.136  -4.406  21.821  0.00  0.00    +0.060 A 
ATOM     38  C   UNL     1       0.112  -3.821  21.793  0.00  0.00    +0.142 A 
ENDROOT
BRANCH  18  16
ATOM      1  C   UNL     1       4.725  -5.049  18.878  0.00  0.00    +0.163 A 
ATOM      2  N   UNL     1       4.739  -6.201  18.158  0.00  0.00    -0.327 N 
ATOM      3  C   UNL     1       5.118  -6.099  16.749  0.00  0.00    +0.056 A 
ATOM      4  C   UNL     1       6.329  -5.544  16.333  0.00  0.00    +0.063 A 
ATOM      5  C   UNL     1       7.374  -5.008  17.258  0.00  0.00    +0.261 A 
ATOM      6  N   UNL     1       7.042  -4.367  18.477  0.00  0.00    -0.307 N 
ATOM      7  C   UNL     1       8.226  -3.778  19.132  0.00  0.00    +0.153 C 
ATOM      8  O   UNL     1       8.528  -5.089  16.885  0.00  0.00    -0.267 OA
ATOM      9  C   UNL     1       6.635  -5.393  14.956  0.00  0.00    +0.015 A 
ATOM     10  C   UNL     1       5.706  -5.958  14.086  0.00  0.00    +0.001 A 
ATOM     11  C   UNL     1       4.529  -6.495  14.481  0.00  0.00    +0.002 A 
ATOM     12  C   UNL     1       4.197  -6.671  15.845  0.00  0.00    +0.026 A 
ATOM     13  C   UNL     1       3.937  -7.329  18.505  0.00  0.00    +0.151 C 
ATOM     14  N   UNL     1       3.570  -4.808  19.464  0.00  0.00    -0.195 NA
ATOM     15  C   UNL     1       3.396  -3.610  20.170  0.00  0.00    +0.222 A 
ATOM     16  N   UNL     1       2.222  -3.362  20.789  0.00  0.00    -0.281 N 
ATOM     17  H   UNL     1       2.213  -2.493  21.413  0.00  0.00    +0.155 HD
ATOM     41  N   UNL     1       4.337  -2.708  20.254  0.00  0.00    -0.221 NA
ATOM     42  C   UNL     1       5.561  -2.968  19.658  0.00  0.00    +0.144 A 
ATOM     43  C   UNL     1       5.814  -4.140  18.956  0.00  0.00    +0.106 A 
ENDBRANCH  18  16
BRANCH  21  23
ATOM     23  C   UNL     1      -3.021  -5.768  20.926  0.00  0.00    +0.247 C 
ATOM     24  O   UNL     1      -3.183  -6.994  20.968  0.00  0.00    -0.270 OA
ATOM     25  N   UNL     1      -4.059  -4.786  21.085  0.00  0.00    -0.297 N 
ATOM     26  C   UNL     1      -3.684  -3.299  21.212  0.00  0.00    +0.109 C 
ATOM     27  C   UNL     1      -4.807  -2.406  20.752  0.00  0.00    +0.038 C 
ATOM     28  C   UNL     1      -6.009  -2.745  21.511  0.00  0.00    +0.060 C 
ATOM     29  C   UNL     1      -6.545  -4.073  20.989  0.00  0.00    +0.038 C 
ATOM     37  C   UNL     1      -5.503  -5.228  21.335  0.00  0.00    +0.109 C 
BRANCH  28  30
ATOM     30  N   UNL     1      -7.026  -1.600  21.483  0.00  0.00    -0.297 NA
ATOM     31  C   UNL     1      -6.855  -0.666  20.353  0.00  0.00    +0.100 C 
ATOM     32  C   UNL     1      -7.671   0.605  20.647  0.00  0.00    +0.099 C 
ATOM     33  N   UNL     1      -9.117   0.253  20.838  0.00  0.00    -0.303 NA
ATOM     34  C   UNL     1      -9.896   1.475  21.167  0.00  0.00    +0.105 C 
ATOM     35  C   UNL     1      -9.295  -0.781  21.910  0.00  0.00    +0.099 C 
ATOM     36  C   UNL     1      -8.438  -2.025  21.593  0.00  0.00    +0.100 C 
ENDBRANCH  28  30
ENDBRANCH  21  23
BRANCH  38  39
ATOM     39  O   UNL     1       0.610  -3.009  22.770  0.00  0.00    -0.493 OA
ATOM     40  C   UNL     1      -0.275  -2.838  23.995  0.00  0.00    +0.277 C 
ENDBRANCH  38  39
TORSDOF 4
