REMARK  Name = 5IH6
REMARK  2 active torsions:
REMARK  status: ('A' for Active; 'I' for Inactive)
REMARK    1  A    between atoms: C_6  and  N_17
REMARK    2  A    between atoms: C_9  and  C_11
REMARK                            x       y       z     vdW  Elec       q    Type
REMARK                         _______ _______ _______ _____ _____    ______ ____
ROOT
ATOM      1  N   UNL     1     -44.558  19.019   3.045  0.00  0.00    -0.198 NA
ATOM      2  C   UNL     1     -43.395  19.102   2.343  0.00  0.00    +0.149 A 
ATOM      6  C   UNL     1     -42.992  20.378   1.931  0.00  0.00    +0.148 A 
ATOM      7  N   UNL     1     -41.864  20.481   1.211  0.00  0.00    -0.237 NA
ATOM      8  C   UNL     1     -41.453  21.704   0.879  0.00  0.00    +0.111 A 
ATOM     16  C   UNL     1     -42.269  22.841   1.140  0.00  0.00    +0.145 A 
ATOM     17  N   UNL     1     -41.829  24.151   0.738  0.00  0.00    -0.341 N 
ATOM     18  H   UNL     1     -40.919  24.264   0.187  0.00  0.00    +0.144 HD
ATOM     19  H   UNL     1     -42.412  25.012   0.990  0.00  0.00    +0.144 HD
ATOM     20  N   UNL     1     -43.438  22.732   1.843  0.00  0.00    -0.209 NA
ATOM     21  C   UNL     1     -43.781  21.471   2.236  0.00  0.00    +0.187 A 
ATOM     22  N   UNL     1     -44.945  21.339   2.951  0.00  0.00    -0.193 NA
ATOM     23  C   UNL     1     -45.292  20.128   3.325  0.00  0.00    +0.216 A 
ATOM     24  N   UNL     1     -46.519  20.097   4.072  0.00  0.00    -0.327 N 
ATOM     25  H   UNL     1     -47.053  21.005   4.261  0.00  0.00    +0.145 HD
ATOM     26  H   UNL     1     -46.898  19.166   4.439  0.00  0.00    +0.145 HD
ENDROOT
BRANCH   8   9
ATOM      9  C   UNL     1     -40.270  21.865   0.009  0.00  0.00    +0.005 A 
ATOM     10  C   UNL     1     -40.286  20.989  -1.095  0.00  0.00    +0.025 A 
ATOM     11  C   UNL     1     -39.330  21.077  -2.093  0.00  0.00    +0.018 A 
ATOM     12 BR   UNL     1     -39.514  19.683  -3.510  0.00  0.00    -0.050 Br
ATOM     13  C   UNL     1     -38.324  22.108  -1.991  0.00  0.00    +0.015 A 
ATOM     14  C   UNL     1     -38.363  23.029  -0.911  0.00  0.00    +0.002 A 
ATOM     15  C   UNL     1     -39.369  22.912   0.057  0.00  0.00    +0.010 A 
ENDBRANCH   8   9
BRANCH   2   3
ATOM      3  N   UNL     1     -42.502  18.045   1.983  0.00  0.00    -0.341 N 
ATOM      4  H   UNL     1     -41.616  18.261   1.424  0.00  0.00    +0.144 HD
ATOM      5  H   UNL     1     -42.720  17.038   2.273  0.00  0.00    +0.144 HD
ENDBRANCH   2   3
TORSDOF 2
