REMARK  Name = ARKN
REMARK  3 active torsions:
REMARK  status: ('A' for Active; 'I' for Inactive)
REMARK    1  A    between atoms: C1_1  and  C2_2
REMARK    2  A    between atoms: C1_1  and  N_9
REMARK    3  A    between atoms: C5_5  and  C8_11
REMARK                            x       y       z     vdW  Elec       q    Type
REMARK                         _______ _______ _______ _____ _____    ______ ____
ROOT
ATOM      4  C   UNL     1       5.652 138.769 349.879  0.00  0.00    -0.004 A 
ATOM      5  C   UNL     1       6.416 139.704 350.563  0.00  0.00    +0.008 A 
ATOM      6  C   UNL     1       6.160 141.053 350.426  0.00  0.00    +0.053 A 
ATOM      7 CL   UNL     1       7.153 142.174 351.297  0.00  0.00    -0.083 Cl
ATOM      8  C   UNL     1       5.140 141.523 349.611  0.00  0.00    -0.012 A 
ATOM     11  C   UNL     1       4.374 140.579 348.927  0.00  0.00    -0.004 A 
ATOM     12  C   UNL     1       4.631 139.227 349.063  0.00  0.00    -0.003 A 
ENDROOT
BRANCH   8   9
ATOM      9  C   UNL     1       4.846 142.973 349.444  0.00  0.00    +0.027 C 
ATOM     10  C   UNL     1       5.875 143.892 349.245  0.00  0.00    +0.005 C 
ENDBRANCH   8   9
BRANCH   4   1
ATOM      1  C   UNL     1       5.938 137.294 350.013  0.00  0.00    +0.115 C 
BRANCH   1   2
ATOM      2  N   UNL     1       5.878 136.839 351.404  0.00  0.00    -0.212 NA
ATOM      3  C   UNL     1       4.495 136.750 351.881  0.00  0.00    +0.108 C 
ENDBRANCH   1   2
ENDBRANCH   4   1
TORSDOF 3
