REMARK  Name = 4bci_ligand
REMARK  7 active torsions:
REMARK  status: ('A' for Active; 'I' for Inactive)
REMARK    1  A    between atoms: C7A_1  and  N6A_2
REMARK    2  A    between atoms: C1A_5  and  C8A_6
REMARK    3  A    between atoms: C5A_7  and  C4_8
REMARK    4  A    between atoms: N7_11  and  C1B_12
REMARK    5  A    between atoms: C3B_14  and  S7B_15
REMARK    6  A    between atoms: S7B_15  and  N9B_17
REMARK    7  A    between atoms: C5_24  and  C8_25
REMARK                            x       y       z     vdW  Elec       q    Type
REMARK                         _______ _______ _______ _____ _____    ______ ____
ROOT
ATOM      7  C   UNL     1      54.018 -15.342 -12.838  0.00  0.00    +0.069 A 
ATOM      8  C   UNL     1      53.825 -13.992 -12.829  0.00  0.00    +0.120 A 
ATOM     11  C   UNL     1      54.906 -13.126 -12.778  0.00  0.00    +0.132 A 
ATOM     12  N   UNL     1      56.197 -13.587 -12.710  0.00  0.00    -0.253 NA
ATOM     13  C   UNL     1      56.365 -14.944 -12.688  0.00  0.00    +0.203 A 
ATOM     14  N   UNL     1      57.723 -15.399 -12.606  0.00  0.00    -0.240 N 
ATOM     15  H   UNL     1      58.490 -14.716 -12.690  0.00  0.00    +0.221 HD
ATOM     28  N   UNL     1      55.288 -15.838 -12.755  0.00  0.00    -0.258 NA
ENDROOT
BRANCH   7   6
ATOM      1  C   UNL     1      51.115 -20.723 -12.741  0.00  0.00    +0.175 C 
ATOM      2  N   UNL     1      50.846 -19.497 -11.999  0.00  0.00    -0.280 N 
ATOM      3  H   UNL     1      50.254 -19.524 -11.157  0.00  0.00    +0.195 HD
ATOM      4  C   UNL     1      51.409 -18.248 -12.445  0.00  0.00    +0.193 A 
ATOM      5  S   UNL     1      52.886 -17.636 -12.105  0.00  0.00    +0.021 S 
ATOM      6  C   UNL     1      52.867 -16.271 -12.872  0.00  0.00    +0.069 A 
ATOM     29  C   UNL     1      51.624 -16.191 -13.551  0.00  0.00    +0.011 A 
ATOM     30  C   UNL     1      51.146 -15.155 -14.466  0.00  0.00    +0.107 C 
ATOM     31  N   UNL     1      50.766 -17.359 -13.282  0.00  0.00    -0.286 NA
ENDBRANCH   7   6
BRANCH  14  16
ATOM     16  C   UNL     1      58.039 -16.803 -12.407  0.00  0.00    +0.069 A 
ATOM     17  C   UNL     1      57.144 -17.822 -11.998  0.00  0.00    +0.017 A 
ATOM     18  C   UNL     1      57.580 -19.164 -11.828  0.00  0.00    -0.010 A 
ATOM     19  C   UNL     1      58.920 -19.469 -12.094  0.00  0.00    +0.008 A 
ATOM     20  C   UNL     1      59.786 -18.440 -12.506  0.00  0.00    +0.099 A 
ATOM     27  C   UNL     1      59.362 -17.112 -12.657  0.00  0.00    +0.045 A 
BRANCH  20  21
ATOM     21  S   UNL     1      61.478 -18.764 -12.891  0.00  0.00    +0.063 S 
ATOM     22  O   UNL     1      61.681 -18.349 -14.273  0.00  0.00    -0.151 OA
ATOM     26  O   UNL     1      61.701 -20.182 -12.659  0.00  0.00    -0.151 OA
BRANCH  21  23
ATOM     23  N   UNL     1      62.418 -17.885 -11.872  0.00  0.00    -0.261 NA
ATOM     24  H   UNL     1      61.994 -17.296 -11.184  0.00  0.00    +0.164 HD
ATOM     25  H   UNL     1      63.414 -17.939 -11.939  0.00  0.00    +0.164 HD
ENDBRANCH  21  23
ENDBRANCH  20  21
ENDBRANCH  14  16
BRANCH   8   9
ATOM      9  C   UNL     1      52.458 -13.420 -12.807  0.00  0.00    +0.089 C 
ATOM     10  N   UNL     1      51.401 -12.970 -12.855  0.00  0.00    -0.343 NA
ENDBRANCH   8   9
TORSDOF 5
