REMARK  Name = 4FJY
REMARK  6 active torsions:
REMARK  status: ('A' for Active; 'I' for Inactive)
REMARK    1  A    between atoms: N_6  and  C_7
REMARK    2  A    between atoms: C_13  and  C_14
REMARK    3  A    between atoms: C_13  and  C_15
REMARK    4  A    between atoms: N_17  and  C_18
REMARK    5  A    between atoms: C_19  and  C_20
REMARK    6  A    between atoms: C_29  and  C_30
REMARK                            x       y       z     vdW  Elec       q    Type
REMARK                         _______ _______ _______ _____ _____    ______ ____
ROOT
ATOM     10  C   UNL     1      22.189  16.696  19.789  0.00  0.00    +0.048 A 
ATOM     11  C   UNL     1      21.503  16.281  18.642  0.00  0.00    +0.022 A 
ATOM     12  C   UNL     1      20.174  16.664  18.451  0.00  0.00    +0.076 A 
ATOM     13  N   UNL     1      19.551  17.417  19.365  0.00  0.00    -0.246 NA
ATOM     14  C   UNL     1      20.162  17.837  20.486  0.00  0.00    +0.078 A 
ATOM     21  C   UNL     1      19.483  16.268  17.309  0.00  0.00    +0.066 A 
ATOM     22  C   UNL     1      20.122  15.484  16.356  0.00  0.00    +0.126 A 
ATOM     23  F   UNL     1      19.474  15.098  15.248  0.00  0.00    -0.205 F 
ATOM     24  C   UNL     1      21.440  15.101  16.537  0.00  0.00    +0.039 A 
ATOM     25  C   UNL     1      22.133  15.498  17.675  0.00  0.00    +0.015 A 
ATOM     26  C   UNL     1      21.504  17.480  20.737  0.00  0.00    -0.003 A 
ATOM     27  C   UNL     1      22.230  17.941  22.012  0.00  0.00    +0.048 C 
ENDROOT
BRANCH  10   9
ATOM      3  C   UNL     1      23.543  13.552  22.422  0.00  0.00    +0.032 A 
ATOM      4  C   UNL     1      24.871  13.146  22.234  0.00  0.00    +0.023 A 
ATOM      5  C   UNL     1      25.661  13.823  21.295  0.00  0.00    +0.008 A 
ATOM      6  C   UNL     1      25.121  14.891  20.558  0.00  0.00    -0.019 A 
ATOM      7  C   UNL     1      25.683  15.817  19.482  0.00  0.00    +0.008 C 
ATOM      8  C   UNL     1      24.656  16.938  19.378  0.00  0.00    +0.122 C 
ATOM      9  N   UNL     1      23.466  16.311  19.973  0.00  0.00    -0.298 N 
ATOM     28  C   UNL     1      25.740  15.017  18.185  0.00  0.00    +0.017 C 
ATOM     29  C   UNL     1      27.038  16.371  19.908  0.00  0.00    +0.017 C 
ATOM     30  C   UNL     1      23.797  15.279  20.752  0.00  0.00    +0.040 A 
ATOM     31  C   UNL     1      23.034  14.605  21.682  0.00  0.00    +0.047 A 
BRANCH   3   2
ATOM      1  C   UNL     1      22.979  11.850  24.195  0.00  0.00    +0.133 C 
ATOM      2  N   UNL     1      22.627  12.977  23.314  0.00  0.00    -0.326 N 
ATOM     32  C   UNL     1      21.257  13.549  23.326  0.00  0.00    +0.133 C 
ATOM     33  C   UNL     1      20.237  12.456  23.531  0.00  0.00    +0.178 C 
ATOM     34  O   UNL     1      20.631  12.175  24.846  0.00  0.00    -0.377 OA
ATOM     35  C   UNL     1      21.725  11.250  24.813  0.00  0.00    +0.178 C 
ENDBRANCH   3   2
ENDBRANCH  10   9
BRANCH  14  15
ATOM     15  C   UNL     1      19.365  18.597  21.348  0.00  0.00    +0.019 A 
ATOM     16  C   UNL     1      19.634  19.934  21.656  0.00  0.00    +0.120 A 
ATOM     17  N   UNL     1      18.833  20.606  22.478  0.00  0.00    -0.263 NA
ATOM     18  C   UNL     1      17.753  20.047  23.015  0.00  0.00    +0.111 A 
ATOM     19  C   UNL     1      17.411  18.721  22.748  0.00  0.00    +0.020 A 
ATOM     20  C   UNL     1      18.232  17.987  21.898  0.00  0.00    +0.013 A 
ENDBRANCH  14  15
TORSDOF 3
