REMARK  Name = 4D0L
REMARK  8 active torsions:
REMARK  status: ('A' for Active; 'I' for Inactive)
REMARK    1  A    between atoms: S_2  and  N_4
REMARK    2  A    between atoms: S_2  and  C_8
REMARK    3  A    between atoms: N_4  and  C_5
REMARK    4  A    between atoms: C_5  and  C_6
REMARK    5  A    between atoms: C_6  and  O_7
REMARK    6  A    between atoms: C_14  and  C_15
REMARK    7  A    between atoms: C_16  and  C_17
REMARK    8  A    between atoms: C_22  and  C_24
REMARK                            x       y       z     vdW  Elec       q    Type
REMARK                         _______ _______ _______ _____ _____    ______ ____
ROOT
ATOM      3  C   UNL     1       8.565 337.047   9.661  0.00  0.00    +0.124 A 
ATOM      4  C   UNL     1       8.293 335.729   9.287  0.00  0.00    +0.039 A 
ATOM      5  C   UNL     1       7.484 334.974  10.098  0.00  0.00    -0.007 A 
ATOM     17  C   UNL     1       6.957 335.473  11.280  0.00  0.00    +0.010 A 
ATOM     18  C   UNL     1       7.222 336.793  11.652  0.00  0.00    +0.022 A 
ATOM     19  C   UNL     1       8.008 337.568  10.855  0.00  0.00    +0.067 A 
ATOM     20 CL   UNL     1       8.268 339.237  11.371  0.00  0.00    -0.082 Cl
ENDROOT
BRANCH   5   6
ATOM      6  C   UNL     1       7.219 333.551   9.732  0.00  0.00    +0.044 A 
ATOM      7  S   UNL     1       7.318 333.042   8.274  0.00  0.00    -0.052 S 
ATOM      8  C   UNL     1       6.996 331.492   8.484  0.00  0.00    +0.165 A 
ATOM      9  N   UNL     1       6.976 330.486   7.437  0.00  0.00    -0.265 N 
ATOM     10  H   UNL     1       6.305 329.717   7.758  0.00  0.00    +0.157 HD
ATOM     11  C   UNL     1       6.582 330.852   6.103  0.00  0.00    +0.216 C 
ATOM     12  C   UNL     1       6.570 329.822   4.973  0.00  0.00    +0.109 C 
ATOM     13  O   UNL     1       6.248 331.994   5.893  0.00  0.00    -0.276 OA
ATOM     14  N   UNL     1       6.729 331.281   9.805  0.00  0.00    -0.229 NA
ATOM     15  C   UNL     1       6.862 332.521  10.585  0.00  0.00    +0.055 A 
ATOM     16  C   UNL     1       6.640 332.648  12.053  0.00  0.00    +0.067 C 
ENDBRANCH   5   6
BRANCH   3   2
ATOM      1  O   UNL     1      10.536 338.799   9.229  0.00  0.00    -0.153 OA
ATOM      2  S   UNL     1       9.564 338.036   8.559  0.00  0.00    +0.060 S 
ATOM     27  O   UNL     1      10.514 337.305   7.812  0.00  0.00    -0.153 OA
BRANCH   2  21
ATOM     21  N   UNL     1       8.485 338.925   7.650  0.00  0.00    -0.188 NA
ATOM     22  H   UNL     1       7.777 338.443   7.008  0.00  0.00    +0.148 HD
BRANCH  21  23
ATOM     23  C   UNL     1       8.533 340.339   7.753  0.00  0.00    +0.133 C 
BRANCH  23  24
ATOM     24  C   UNL     1       7.366 340.905   7.276  0.00  0.00    +0.172 C 
BRANCH  24  25
ATOM     25  O   UNL     1       6.694 339.737   6.922  0.00  0.00    -0.394 OA
ATOM     26  H   UNL     1       7.252 339.216   6.201  0.00  0.00    +0.209 HD
ENDBRANCH  24  25
ENDBRANCH  23  24
ENDBRANCH  21  23
ENDBRANCH   2  21
ENDBRANCH   3   2
TORSDOF 6
