REMARK  Name = 5TD2
REMARK  7 active torsions:
REMARK  status: ('A' for Active; 'I' for Inactive)
REMARK    1  A    between atoms: C_4  and  C_5
REMARK    2  A    between atoms: C_8  and  N_25
REMARK    3  A    between atoms: C_9  and  C_10
REMARK    4  A    between atoms: C_12  and  S_13
REMARK    5  A    between atoms: S_13  and  N_16
REMARK    6  A    between atoms: C_18  and  C_20
REMARK    7  A    between atoms: C_24  and  N_30
REMARK                            x       y       z     vdW  Elec       q    Type
REMARK                         _______ _______ _______ _____ _____    ______ ____
ROOT
ATOM      9  C   UNL     1      16.698  15.489  14.051  0.00  0.00    +0.030 A 
ATOM     10  C   UNL     1      17.576  14.975  13.099  0.00  0.00    +0.035 A 
ATOM     11  C   UNL     1      18.500  15.801  12.488  0.00  0.00    +0.031 A 
ATOM     18  C   UNL     1      18.552  17.161  12.839  0.00  0.00    +0.025 A 
ATOM     19  C   UNL     1      17.678  17.681  13.784  0.00  0.00    +0.026 A 
ATOM     20  C   UNL     1      16.731  16.861  14.398  0.00  0.00    +0.044 A 
ENDROOT
BRANCH  11  12
ATOM     12  N   UNL     1      19.364  15.221  11.548  0.00  0.00    -0.326 N 
ATOM     13  C   UNL     1      20.794  15.573  11.686  0.00  0.00    +0.133 C 
ATOM     14  C   UNL     1      21.628  14.447  11.070  0.00  0.00    +0.178 C 
ATOM     15  O   UNL     1      21.130  14.208   9.738  0.00  0.00    -0.377 OA
ATOM     16  C   UNL     1      19.725  13.910   9.569  0.00  0.00    +0.178 C 
ATOM     17  C   UNL     1      18.874  15.047  10.161  0.00  0.00    +0.133 C 
ENDBRANCH  11  12
BRANCH   9   7
ATOM      5  C   UNL     1      13.966  13.844  15.812  0.00  0.00    +0.079 A 
ATOM      6  N   UNL     1      14.697  14.839  15.372  0.00  0.00    -0.241 NA
ATOM      7  C   UNL     1      15.739  14.541  14.652  0.00  0.00    +0.110 A 
ATOM      8  S   UNL     1      15.833  12.797  14.474  0.00  0.00    -0.075 S 
ATOM     31  C   UNL     1      14.380  12.625  15.463  0.00  0.00    +0.073 A 
BRANCH   5   4
ATOM      1  C   UNL     1      11.060  13.396  18.969  0.00  0.00    +0.137 C 
ATOM      2  N   UNL     1      12.275  14.230  19.160  0.00  0.00    -0.176 NA
ATOM      3  C   UNL     1      13.281  14.408  18.085  0.00  0.00    +0.147 C 
ATOM      4  C   UNL     1      12.759  14.096  16.675  0.00  0.00    +0.183 C 
ATOM     32  O   UNL     1      11.884  12.957  16.714  0.00  0.00    -0.368 OA
ATOM     37  C   UNL     1      10.696  13.151  17.494  0.00  0.00    +0.177 C 
BRANCH   2  33
ATOM     33  S   UNL     1      12.556  14.946  20.637  0.00  0.00    +0.029 S 
ATOM     34  O   UNL     1      13.383  16.090  20.425  0.00  0.00    -0.158 OA
ATOM     35  O   UNL     1      11.277  15.073  21.240  0.00  0.00    -0.158 OA
ATOM     36  C   UNL     1      13.516  13.703  21.529  0.00  0.00    +0.214 C 
ENDBRANCH   2  33
ENDBRANCH   5   4
ENDBRANCH   9   7
BRANCH  20  21
ATOM     21  N   UNL     1      15.847  17.302  15.399  0.00  0.00    -0.278 N 
ATOM     22  H   UNL     1      15.037  16.640  15.621  0.00  0.00    +0.155 HD
ATOM     23  C   UNL     1      15.877  18.446  16.121  0.00  0.00    +0.284 C 
ATOM     24  O   UNL     1      16.678  19.331  15.942  0.00  0.00    -0.267 OA
BRANCH  23  25
ATOM     25  C   UNL     1      14.900  18.640  17.188  0.00  0.00    +0.194 A 
ATOM     26  N   UNL     1      15.013  19.572  18.186  0.00  0.00    -0.341 N 
ATOM     27  H   UNL     1      15.803  20.283  18.308  0.00  0.00    +0.167 HD
ATOM     28  C   UNL     1      13.929  19.420  18.992  0.00  0.00    +0.104 A 
ATOM     29  C   UNL     1      13.203  18.392  18.480  0.00  0.00    +0.131 A 
ATOM     30  N   UNL     1      13.819  17.924  17.395  0.00  0.00    -0.232 NA
ENDBRANCH  23  25
ENDBRANCH  20  21
TORSDOF 6
