REMARK  Name = 2ZI7
REMARK  8 active torsions:
REMARK  status: ('A' for Active; 'I' for Inactive)
REMARK    1  A    between atoms: N_1  and  C_9
REMARK    2  A    between atoms: C_10  and  O_11
REMARK    3  A    between atoms: C_12  and  O_15
REMARK    4  A    between atoms: C_13  and  C_16
REMARK    5  A    between atoms: C_16  and  O_17
REMARK    6  A    between atoms: O_17  and  P_18
REMARK    7  A    between atoms: P_18  and  O_21
REMARK    8  A    between atoms: O_21  and  P_22
REMARK                            x       y       z     vdW  Elec       q    Type
REMARK                         _______ _______ _______ _____ _____    ______ ____
ROOT
ATOM      2  C   UNL     1      -4.698  -3.986 -19.455  0.00  0.00    +0.255 C 
ATOM      3  O   UNL     1      -3.829  -3.343 -18.543  0.00  0.00    -0.346 OA
ATOM      4  C   UNL     1      -4.428  -3.259 -17.244  0.00  0.00    +0.178 C 
ATOM     15  C   UNL     1      -5.836  -3.782 -17.371  0.00  0.00    +0.178 C 
ATOM     18  C   UNL     1      -5.735  -4.671 -18.582  0.00  0.00    +0.195 C 
ENDROOT
BRANCH   2   1
ATOM      1  N   UNL     1      -3.995  -4.903 -20.361  0.00  0.00    -0.272 N 
ATOM     21  C   UNL     1      -3.230  -5.917 -19.854  0.00  0.00    +0.098 C 
ATOM     22  C   UNL     1      -2.593  -6.798 -20.717  0.00  0.00    +0.088 C 
ATOM     23  C   UNL     1      -2.777  -6.596 -22.106  0.00  0.00    +0.254 C 
ATOM     24  O   UNL     1      -2.226  -7.334 -22.894  0.00  0.00    -0.268 OA
ATOM     25  N   UNL     1      -3.543  -5.591 -22.637  0.00  0.00    -0.275 N 
ATOM     26  H   UNL     1      -3.665  -5.479 -23.694  0.00  0.00    +0.173 HD
ATOM     27  C   UNL     1      -4.142  -4.740 -21.756  0.00  0.00    +0.331 C 
ATOM     28  O   UNL     1      -4.801  -3.823 -22.224  0.00  0.00    -0.246 OA
ENDBRANCH   2   1
BRANCH  15  16
ATOM     16  O   UNL     1      -6.582  -2.683 -17.813  0.00  0.00    -0.386 OA
ATOM     17  H   UNL     1      -6.078  -2.213 -18.605  0.00  0.00    +0.210 HD
ENDBRANCH  15  16
BRANCH  18  19
ATOM     19  O   UNL     1      -6.970  -4.695 -19.186  0.00  0.00    -0.385 OA
ATOM     20  H   UNL     1      -7.290  -3.712 -19.370  0.00  0.00    +0.210 HD
ENDBRANCH  18  19
BRANCH   4   5
ATOM      5  C   UNL     1      -3.534  -4.009 -16.240  0.00  0.00    +0.202 C 
BRANCH   5   6
ATOM      6  O   UNL     1      -3.629  -5.488 -16.550  0.00  0.00    -0.325 OA
BRANCH   6   7
ATOM      7  P   UNL     1      -3.987  -6.353 -15.349  0.00  0.00    +0.215 P 
ATOM     13  O   UNL     1      -4.100  -7.818 -15.777  0.00  0.00    -0.437 OA
ATOM     14  O   UNL     1      -5.009  -5.943 -14.438  0.00  0.00    -0.517 OA
BRANCH   7   8
ATOM      8  O   UNL     1      -2.617  -6.299 -14.480  0.00  0.00    -0.314 OA
BRANCH   8   9
ATOM      9  P   UNL     1      -2.143  -6.778 -12.986  0.00  0.00    -0.007 P 
ATOM     10  O   UNL     1      -0.769  -7.105 -13.331  0.00  0.00    -0.637 OA
ATOM     11  O   UNL     1      -2.050  -5.655 -12.040  0.00  0.00    -0.577 OA
ATOM     12  O   UNL     1      -2.918  -7.939 -12.489  0.00  0.00    -0.577 OA
ENDBRANCH   8   9
ENDBRANCH   7   8
ENDBRANCH   6   7
ENDBRANCH   5   6
ENDBRANCH   4   5
TORSDOF 8
