REMARK  Name = 4aw5_ligand
REMARK  8 active torsions:
REMARK  status: ('A' for Active; 'I' for Inactive)
REMARK    1  A    between atoms: C5_8  and  N4_9
REMARK    2  A    between atoms: N4_9  and  C23_10
REMARK    3  A    between atoms: N5_13  and  C29_14
REMARK    4  A    between atoms: C29_14  and  C30_15
REMARK    5  A    between atoms: C2_20  and  C1_21
REMARK    6  A    between atoms: C2_20  and  C3_27
REMARK    7  A    between atoms: C20_35  and  O2_36
REMARK    8  A    between atoms: O2_36  and  C28_37
REMARK                            x       y       z     vdW  Elec       q    Type
REMARK                         _______ _______ _______ _____ _____    ______ ____
ROOT
ATOM      1  O   UNL     1       9.244  -6.838  12.531  0.00  0.00    -0.366 OA
ATOM      2  C   UNL     1      10.306  -6.161  12.272  0.00  0.00    +0.234 C 
ATOM      3  C   UNL     1      11.540  -6.683  11.566  0.00  0.00    +0.069 C 
ATOM      4  C   UNL     1      11.918  -8.007  11.005  0.00  0.00    +0.056 C 
ATOM     23  C   UNL     1      12.432  -5.494  11.591  0.00  0.00    +0.005 A 
ATOM     24  C   UNL     1      13.695  -5.290  11.095  0.00  0.00    -0.001 A 
ATOM     25  C   UNL     1      14.257  -4.031  11.257  0.00  0.00    +0.025 A 
ATOM     26  C   UNL     1      13.569  -2.972  11.888  0.00  0.00    -0.003 A 
ATOM     27  C   UNL     1      12.282  -3.169  12.389  0.00  0.00    +0.001 A 
ATOM     39  C   UNL     1      11.672  -4.422  12.265  0.00  0.00    +0.066 A 
ATOM     40  N   UNL     1      10.414  -4.864  12.642  0.00  0.00    -0.238 N 
ATOM     41  H   UNL     1       9.712  -4.322  13.104  0.00  0.00    +0.223 HD
ENDROOT
BRANCH   4   5
ATOM      5  C   UNL     1      10.973  -9.136  10.972  0.00  0.00    +0.142 A 
ATOM      6  N   UNL     1       9.676  -9.161  11.396  0.00  0.00    -0.254 N 
ATOM      7  H   UNL     1       9.141  -8.399  11.836  0.00  0.00    +0.228 HD
ATOM      8  C   UNL     1       9.261 -10.387  11.113  0.00  0.00    +0.074 A 
ATOM      9  C   UNL     1       7.956 -10.953  11.361  0.00  0.00    +0.010 A 
ATOM     10  C   UNL     1       7.735 -12.281  10.976  0.00  0.00    +0.008 A 
ATOM     11  C   UNL     1       8.763 -13.037  10.370  0.00  0.00    +0.077 A 
ATOM     14  C   UNL     1      10.027 -12.512  10.094  0.00  0.00    +0.013 A 
ATOM     15  C   UNL     1      10.325 -11.161  10.476  0.00  0.00    +0.027 A 
ATOM     16  N   UNL     1      11.370 -10.324  10.406  0.00  0.00    -0.306 NA
BRANCH  11  12
ATOM     12  O   UNL     1       8.507 -14.327   9.962  0.00  0.00    -0.329 OA
ATOM     13  C   UNL     1       8.222 -14.461   8.566  0.00  0.00    +0.229 C 
ENDBRANCH  11  12
ENDBRANCH   4   5
BRANCH   4  17
ATOM     17  C   UNL     1      13.252  -8.249  10.344  0.00  0.00    -0.006 A 
ATOM     18  C   UNL     1      14.379  -8.509  11.116  0.00  0.00    +0.011 A 
ATOM     19  C   UNL     1      15.606  -8.692  10.483  0.00  0.00    +0.002 A 
ATOM     20  C   UNL     1      15.704  -8.645   9.079  0.00  0.00    +0.002 A 
ATOM     21  C   UNL     1      14.583  -8.400   8.305  0.00  0.00    +0.002 A 
ATOM     22  C   UNL     1      13.359  -8.207   8.941  0.00  0.00    +0.011 A 
ENDBRANCH   4  17
BRANCH  25  28
ATOM     28  N   UNL     1      15.458  -3.774  10.737  0.00  0.00    -0.327 N 
ATOM     29  H   UNL     1      15.998  -2.978  11.106  0.00  0.00    +0.171 HD
BRANCH  28  30
ATOM     30  C   UNL     1      16.029  -4.571   9.675  0.00  0.00    +0.097 C 
ATOM     31  C   UNL     1      17.522  -4.340   9.634  0.00  0.00    +0.077 C 
ATOM     32  C   UNL     1      18.077  -5.090   8.430  0.00  0.00    +0.133 C 
ATOM     33  N   UNL     1      17.564  -4.603   7.152  0.00  0.00    +0.235 N 
ATOM     34  H   UNL     1      17.816  -3.634   7.040  0.00  0.00    +0.203 HD
ATOM     37  C   UNL     1      16.105  -4.726   7.096  0.00  0.00    +0.133 C 
ATOM     38  C   UNL     1      15.376  -4.178   8.332  0.00  0.00    +0.077 C 
BRANCH  33  35
ATOM     35  C   UNL     1      18.169  -5.392   6.078  0.00  0.00    +0.128 C 
ATOM     36  C   UNL     1      19.678  -5.306   5.960  0.00  0.00    +0.060 C 
ENDBRANCH  33  35
ENDBRANCH  28  30
ENDBRANCH  25  28
TORSDOF 6
