REMARK  Name = 4L3J
REMARK  6 active torsions:
REMARK  status: ('A' for Active; 'I' for Inactive)
REMARK    1  A    between atoms: C_1  and  N_25
REMARK    2  A    between atoms: C_2  and  C_26
REMARK    3  A    between atoms: C_7  and  C_10
REMARK    4  A    between atoms: C_18  and  C_19
REMARK    5  A    between atoms: C_19  and  N_20
REMARK    6  A    between atoms: C_26  and  C_27
REMARK                            x       y       z     vdW  Elec       q    Type
REMARK                         _______ _______ _______ _____ _____    ______ ____
ROOT
ATOM      7  C   UNL     1      20.161 -20.928  12.496  0.00  0.00    +0.158 C 
ENDROOT
BRANCH   7   8
ATOM      8  C   UNL     1      19.865 -22.378  12.088  0.00  0.00    +0.122 A 
ATOM      9  N   UNL     1      20.364 -22.996  11.035  0.00  0.00    -0.341 N 
ATOM     10  H   UNL     1      21.050 -22.576  10.329  0.00  0.00    +0.167 HD
ATOM     11  C   UNL     1      19.873 -24.221  11.000  0.00  0.00    +0.067 A 
ATOM     12  C   UNL     1      19.041 -24.352  12.092  0.00  0.00    +0.089 A 
ATOM     13  C   UNL     1      18.380 -25.559  12.334  0.00  0.00    +0.030 A 
ATOM     14  C   UNL     1      18.559 -26.622  11.456  0.00  0.00    +0.014 A 
ATOM     15  C   UNL     1      19.398 -26.487  10.350  0.00  0.00    +0.057 A 
ATOM     20  C   UNL     1      20.062 -25.284  10.121  0.00  0.00    +0.040 A 
ATOM     21  N   UNL     1      19.058 -23.201  12.739  0.00  0.00    -0.231 NA
BRANCH  15  16
ATOM     16  C   UNL     1      19.562 -27.686   9.384  0.00  0.00    +0.417 C 
ATOM     17  F   UNL     1      20.377 -27.427   8.360  0.00  0.00    -0.166 F 
ATOM     18  F   UNL     1      18.392 -27.951   8.872  0.00  0.00    -0.166 F 
ATOM     19  F   UNL     1      19.975 -28.750  10.051  0.00  0.00    -0.166 F 
ENDBRANCH  15  16
ENDBRANCH   7   8
BRANCH   7   5
ATOM      2  N   UNL     1      24.015 -20.837  14.323  0.00  0.00    -0.313 N 
ATOM      3  C   UNL     1      23.835 -20.399  12.889  0.00  0.00    +0.122 C 
ATOM      4  C   UNL     1      22.587 -20.996  12.258  0.00  0.00    +0.104 C 
ATOM      5  N   UNL     1      21.456 -20.775  13.167  0.00  0.00    -0.292 NA
ATOM      6  C   UNL     1      21.578 -21.533  14.424  0.00  0.00    +0.104 C 
ATOM     22  C   UNL     1      22.837 -21.095  15.201  0.00  0.00    +0.122 C 
BRANCH   2   1
ATOM      1  C   UNL     1      25.291 -20.726  14.907  0.00  0.00    +0.128 A 
ATOM     23  N   UNL     1      25.358 -20.310  16.196  0.00  0.00    -0.221 NA
ATOM     24  C   UNL     1      26.488 -20.115  16.840  0.00  0.00    +0.223 A 
ATOM     25  N   UNL     1      27.618 -20.307  16.223  0.00  0.00    -0.243 NA
ATOM     26  C   UNL     1      27.663 -20.708  14.959  0.00  0.00    +0.119 A 
ATOM     27  C   UNL     1      26.495 -20.939  14.237  0.00  0.00    +0.010 A 
BRANCH  27  28
ATOM     28  C   UNL     1      26.690 -21.396  12.783  0.00  0.00    +0.037 C 
ATOM     29  C   UNL     1      26.443 -22.893  12.647  0.00  0.00    +0.009 C 
ENDBRANCH  27  28
ENDBRANCH   2   1
ENDBRANCH   7   5
TORSDOF 5
