REMARK  Name = 3TUC
REMARK  9 active torsions:
REMARK  status: ('A' for Active; 'I' for Inactive)
REMARK    1  A    between atoms: C_1  and  O_17
REMARK    2  A    between atoms: C_12  and  O_17
REMARK    3  A    between atoms: C_13  and  O_18
REMARK    4  A    between atoms: C_14  and  O_19
REMARK    5  A    between atoms: O_18  and  C_20
REMARK    6  A    between atoms: O_19  and  C_21
REMARK    7  A    between atoms: N_23  and  C_25
REMARK    8  A    between atoms: C_25  and  C_29
REMARK    9  A    between atoms: C_27  and  C_32
REMARK                            x       y       z     vdW  Elec       q    Type
REMARK                         _______ _______ _______ _____ _____    ______ ____
ROOT
ATOM      1  C   UNL     1      22.555  -6.354  -7.834  0.00  0.00    +0.147 A 
ATOM     17  C   UNL     1      22.167  -5.832  -9.075  0.00  0.00    +0.051 A 
ATOM     18  C   UNL     1      23.170  -5.448  -9.968  0.00  0.00    +0.047 A 
ATOM     19  C   UNL     1      24.525  -5.596  -9.600  0.00  0.00    +0.125 A 
ATOM     20  N   UNL     1      25.580  -5.230 -10.453  0.00  0.00    -0.266 N 
ATOM     21  H   UNL     1      26.508  -5.753 -10.347  0.00  0.00    +0.157 HD
ATOM     22  C   UNL     1      25.509  -4.257 -11.407  0.00  0.00    +0.255 C 
ATOM     23  O   UNL     1      24.492  -3.571 -11.600  0.00  0.00    -0.270 OA
ATOM     38  N   UNL     1      24.838  -6.130  -8.414  0.00  0.00    -0.236 NA
ATOM     39  C   UNL     1      23.908  -6.487  -7.531  0.00  0.00    +0.159 A 
ENDROOT
BRANCH  22  24
ATOM     24  C   UNL     1      26.717  -3.991 -12.194  0.00  0.00    +0.101 C 
ATOM     25  C   UNL     1      26.715  -2.960 -13.162  0.00  0.00    +0.020 C 
ATOM     26  C   UNL     1      27.886  -2.714 -13.905  0.00  0.00    +0.019 C 
ATOM     27  C   UNL     1      29.003  -3.469 -13.646  0.00  0.00    +0.089 C 
ATOM     28  N   UNL     1      29.029  -4.460 -12.688  0.00  0.00    -0.310 N 
ATOM     36  C   UNL     1      27.918  -4.762 -11.961  0.00  0.00    +0.264 C 
ATOM     37  O   UNL     1      27.929  -5.682 -11.130  0.00  0.00    -0.267 OA
BRANCH  28  29
ATOM     29  C   UNL     1      30.298  -5.176 -12.476  0.00  0.00    +0.160 C 
BRANCH  29  30
ATOM     30  C   UNL     1      31.159  -4.507 -11.400  0.00  0.00    -0.028 A 
ATOM     31  C   UNL     1      32.546  -4.632 -11.480  0.00  0.00    +0.005 A 
ATOM     32  C   UNL     1      33.369  -4.077 -10.504  0.00  0.00    +0.000 A 
ATOM     33  C   UNL     1      32.803  -3.427  -9.404  0.00  0.00    +0.000 A 
ATOM     34  C   UNL     1      31.424  -3.295  -9.313  0.00  0.00    +0.000 A 
ATOM     35  C   UNL     1      30.609  -3.847 -10.298  0.00  0.00    +0.005 A 
ENDBRANCH  29  30
ENDBRANCH  28  29
ENDBRANCH  22  24
BRANCH   1   2
ATOM      2  O   UNL     1      21.621  -6.750  -6.933  0.00  0.00    -0.454 OA
BRANCH   2   3
ATOM      3  C   UNL     1      20.936  -5.836  -6.171  0.00  0.00    +0.139 A 
ATOM      4  C   UNL     1      21.319  -4.502  -6.016  0.00  0.00    +0.066 A 
ATOM      5  C   UNL     1      20.562  -3.655  -5.215  0.00  0.00    +0.115 A 
ATOM      6  N   UNL     1      19.506  -4.087  -4.556  0.00  0.00    -0.255 NA
ATOM      7  C   UNL     1      19.048  -5.345  -4.696  0.00  0.00    +0.078 A 
ATOM      8  C   UNL     1      17.862  -5.777  -4.073  0.00  0.00    +0.077 A 
ATOM      9  C   UNL     1      17.403  -7.069  -4.265  0.00  0.00    +0.164 A 
ATOM     12  C   UNL     1      18.115  -7.987  -5.071  0.00  0.00    +0.162 A 
ATOM     15  C   UNL     1      19.286  -7.590  -5.662  0.00  0.00    +0.063 A 
ATOM     16  C   UNL     1      19.744  -6.259  -5.526  0.00  0.00    +0.046 A 
BRANCH   9  10
ATOM     10  O   UNL     1      16.259  -7.510  -3.654  0.00  0.00    -0.491 OA
ATOM     11  C   UNL     1      15.548  -6.663  -2.759  0.00  0.00    +0.277 C 
ENDBRANCH   9  10
BRANCH  12  13
ATOM     13  O   UNL     1      17.660  -9.283  -5.190  0.00  0.00    -0.491 OA
ATOM     14  C   UNL     1      18.214 -10.242  -6.121  0.00  0.00    +0.277 C 
ENDBRANCH  12  13
ENDBRANCH   2   3
ENDBRANCH   1   2
TORSDOF 7
