REMARK  Name = 5H0B
REMARK  11 active torsions:
REMARK  status: ('A' for Active; 'I' for Inactive)
REMARK    1  A    between atoms: N_7  and  C_12
REMARK    2  A    between atoms: C_9  and  C_11
REMARK    3  A    between atoms: C_15  and  N_24
REMARK    4  A    between atoms: C_20  and  O_23
REMARK    5  A    between atoms: O_23  and  C_31
REMARK    6  A    between atoms: N_24  and  CA_26
REMARK    7  A    between atoms: C_25  and  CA_26
REMARK    8  A    between atoms: CA_26  and  CB_27
REMARK    9  A    between atoms: CB_27  and  CG_28
REMARK   10  A    between atoms: CG_28  and  CD1_29
REMARK   11  A    between atoms: CG_28  and  CD2_30
REMARK                            x       y       z     vdW  Elec       q    Type
REMARK                         _______ _______ _______ _____ _____    ______ ____
ROOT
ATOM      1  C   UNK A   0       5.026  -2.834  -1.198  0.00  0.00    +0.147 A 
ATOM      2  N   UNK A   0       4.597  -1.700  -0.644  0.00  0.00    -0.328 N 
ATOM     19  C   UNK A   0       3.295  -1.484  -0.966  0.00  0.00    +0.097 A 
ATOM     20  C   UNK A   0       2.789  -2.499  -1.790  0.00  0.00    +0.012 A 
ATOM     34  N   UNK A   0       6.239  -3.455  -1.166  0.00  0.00    -0.218 NA
ATOM     35  C   UNK A   0       6.405  -4.610  -1.827  0.00  0.00    +0.225 A 
ATOM     36  N   UNK A   0       5.448  -5.216  -2.553  0.00  0.00    -0.220 NA
ATOM     37  C   UNK A   0       4.197  -4.711  -2.659  0.00  0.00    +0.129 A 
ATOM     38  N   UNK A   0       3.261  -5.332  -3.411  0.00  0.00    -0.343 N 
ATOM     39  H   UNK A   0       3.497  -6.249  -3.909  0.00  0.00    +0.144 HD
ATOM     40  H   UNK A   0       2.284  -4.907  -3.508  0.00  0.00    +0.144 HD
ATOM     41  C   UNK A   0       3.924  -3.442  -1.949  0.00  0.00    +0.066 A 
ENDROOT
BRANCH   2   3
ATOM      3  C   UNK A   0       5.505  -0.828   0.165  0.00  0.00    +0.089 C 
ATOM      4  C   UNK A   0       5.621  -1.170   1.644  0.00  0.00    +0.027 C 
ATOM      5  C   UNK A   0       6.662  -0.240   2.290  0.00  0.00    +0.020 C 
ATOM      6  C   UNK A   0       6.265   1.222   2.111  0.00  0.00    +0.054 C 
ATOM     17  C   UNK A   0       6.084   1.544   0.632  0.00  0.00    +0.020 C 
ATOM     18  C   UNK A   0       5.045   0.615   0.007  0.00  0.00    +0.027 C 
BRANCH   6   7
ATOM      7  N   LEU A   1       7.315   2.117   2.669  0.00  0.00    -0.306 NA
ATOM      8  H   LEU A   1       7.092   3.127   2.396  0.00  0.00    +0.123 HD
BRANCH   7   9
ATOM      9  CA  LEU A   1       7.380   2.021   4.138  0.00  0.00    +0.100 C 
BRANCH   9  14
ATOM     14  C   LEU A   1       6.238   2.775   4.768  0.00  0.00    +0.059 C 
ATOM     15  OXT LEU A   1       5.718   3.724   4.149  0.00  0.00    -0.548 OA
ATOM     16  O   LEU A   1       5.861   2.429   5.910  0.00  0.00    -0.548 OA
ENDBRANCH   9  14
BRANCH   9  10
ATOM     10  CB  LEU A   1       8.689   2.648   4.623  0.00  0.00    +0.027 C 
BRANCH  10  11
ATOM     11  CG  LEU A   1       9.871   1.708   4.459  0.00  0.00    -0.015 C 
ATOM     12  CD2 LEU A   1      11.181   2.479   4.596  0.00  0.00    +0.007 C 
ATOM     13  CD1 LEU A   1       9.809   0.549   5.449  0.00  0.00    +0.007 C 
ENDBRANCH  10  11
ENDBRANCH   9  10
ENDBRANCH   7   9
ENDBRANCH   6   7
ENDBRANCH   2   3
BRANCH  20  21
ATOM     21  C   UNK A   0       1.380  -2.584  -2.262  0.00  0.00    -0.016 A 
ATOM     22  C   UNK A   0       0.753  -1.465  -2.799  0.00  0.00    +0.012 A 
ATOM     23  C   UNK A   0      -0.584  -1.538  -3.191  0.00  0.00    +0.047 A 
ATOM     24  C   UNK A   0      -1.302  -2.720  -3.039  0.00  0.00    +0.129 A 
ATOM     32  C   UNK A   0      -0.685  -3.829  -2.468  0.00  0.00    +0.047 A 
ATOM     33  C   UNK A   0       0.655  -3.766  -2.076  0.00  0.00    +0.012 A 
BRANCH  24  25
ATOM     25  O   UNK A   0      -2.643  -2.788  -3.401  0.00  0.00    -0.456 OA
BRANCH  25  26
ATOM     26  C   UNK A   0      -3.143  -2.284  -4.571  0.00  0.00    +0.128 A 
ATOM     27  C   UNK A   0      -2.422  -2.398  -5.759  0.00  0.00    +0.046 A 
ATOM     28  C   UNK A   0      -2.927  -1.888  -6.949  0.00  0.00    +0.004 A 
ATOM     29  C   UNK A   0      -4.181  -1.271  -6.942  0.00  0.00    +0.000 A 
ATOM     30  C   UNK A   0      -4.912  -1.170  -5.764  0.00  0.00    +0.004 A 
ATOM     31  C   UNK A   0      -4.401  -1.663  -4.566  0.00  0.00    +0.046 A 
ENDBRANCH  25  26
ENDBRANCH  24  25
ENDBRANCH  20  21
TORSDOF 9
