REMARK  Name = TBN
REMARK  2 active torsions:
REMARK  status: ('A' for Active; 'I' for Inactive)
REMARK    1  A    between atoms: C5'_2  and  C4'_3
REMARK    2  A    between atoms: C1'_5  and  N9_6
REMARK                            x       y       z     vdW  Elec       q    Type
REMARK                         _______ _______ _______ _____ _____    ______ ____
ROOT
ATOM      6  N   UNL     1      48.198  45.920   7.229  0.00  0.00    -0.287 N 
ATOM      7  C   UNL     1      48.218  46.570   8.456  0.00  0.00    +0.079 A 
ATOM      8  C   UNL     1      47.253  47.519   8.497  0.00  0.00    +0.025 A 
ATOM      9  C   UNL     1      46.586  47.486   7.227  0.00  0.00    +0.070 A 
ATOM     10  C   UNL     1      45.514  48.174   6.580  0.00  0.00    +0.174 A 
ATOM     11  N   UNL     1      44.872  49.193   7.163  0.00  0.00    -0.107 NA
ATOM     12  N   UNL     1      45.150  47.818   5.333  0.00  0.00    -0.206 NA
ATOM     13  C   UNL     1      45.821  46.821   4.742  0.00  0.00    +0.202 A 
ATOM     14  N   UNL     1      46.851  46.104   5.223  0.00  0.00    -0.206 NA
ATOM     15  C   UNL     1      47.196  46.473   6.469  0.00  0.00    +0.150 A 
ENDROOT
BRANCH   6   5
ATOM      3  C4* UNL     1      51.078  44.397   8.002  0.00  0.00    +0.183 C 
ATOM      4  O4* UNL     1      49.641  44.220   7.956  0.00  0.00    -0.331 OA
ATOM      5  C1* UNL     1      49.111  44.858   6.805  0.00  0.00    +0.240 C 
ATOM     16  C2* UNL     1      50.310  45.363   5.994  0.00  0.00    +0.234 C 
ATOM     17  O2* UNL     1      50.665  44.336   5.066  0.00  0.00    -0.216 OA
ATOM     18  C3* UNL     1      51.345  45.580   7.089  0.00  0.00    +0.216 C 
ATOM     19  O3* UNL     1      52.717  45.584   6.651  0.00  0.00    -0.218 OA
BRANCH   3   2
ATOM      1  O5* UNL     1      51.117  45.780  10.026  0.00  0.00    -0.218 OA
ATOM      2  C5* UNL     1      51.534  44.561   9.427  0.00  0.00    +0.214 C 
ENDBRANCH   3   2
ENDBRANCH   6   5
TORSDOF 2
