REMARK  Name = GJA
REMARK  7 active torsions:
REMARK  status: ('A' for Active; 'I' for Inactive)
REMARK    1  A    between atoms: C2_1  and  O8_22
REMARK    2  A    between atoms: C3_2  and  C15_9
REMARK    3  A    between atoms: C9_3  and  O8_22
REMARK    4  A    between atoms: C12_6  and  O27_31
REMARK    5  A    between atoms: C19_10  and  N21_26
REMARK    6  A    between atoms: C23_27  and  C25_29
REMARK    7  A    between atoms: O27_31  and  C28_32
REMARK                            x       y       z     vdW  Elec       q    Type
REMARK                         _______ _______ _______ _____ _____    ______ ____
ROOT
ATOM      1  C   UNL     1      19.493   6.117   2.664  0.00  0.00    +0.235 A 
ATOM     16  N   UNL     1      20.574   6.822   2.960  0.00  0.00    -0.196 NA
ATOM     17  C   UNL     1      21.380   7.300   2.013  0.00  0.00    +0.135 A 
ATOM     18  N   UNL     1      22.508   8.014   2.417  0.00  0.00    -0.291 N 
ATOM     19  C   UNL     1      22.451   8.657   3.752  0.00  0.00    +0.094 C 
ATOM     20  C   UNL     1      23.892   9.184   3.810  0.00  0.00    +0.045 C 
ATOM     21  C   UNL     1      24.142   9.729   2.375  0.00  0.00    +0.117 C 
ATOM     27  C   UNL     1      23.083   9.010   1.485  0.00  0.00    +0.114 C 
ATOM     28  C   UNL     1      21.166   7.017   0.644  0.00  0.00    +0.035 A 
ATOM     29  C   UNL     1      20.070   6.274   0.300  0.00  0.00    +0.012 A 
ATOM     30  C   UNL     1      19.200   5.814   1.317  0.00  0.00    +0.110 A 
ENDROOT
BRANCH  21  22
ATOM     22  N   UNL     1      23.958  11.182   2.401  0.00  0.00    -0.202 NA
ATOM     23  C   UNL     1      24.737  12.007   1.650  0.00  0.00    +0.265 C 
ATOM     26  O   UNL     1      25.606  11.534   0.919  0.00  0.00    -0.268 OA
BRANCH  23  24
ATOM     24  C   UNL     1      24.556  13.476   1.722  0.00  0.00    +0.059 C 
ATOM     25  C   UNL     1      23.800  14.121   0.839  0.00  0.00    +0.005 C 
ENDBRANCH  23  24
ENDBRANCH  21  22
BRANCH  30  31
ATOM     31  C   UNL     1      17.978   5.067   0.970  0.00  0.00    +0.289 C 
ATOM     32  N   UNL     1      16.914   4.998   1.796  0.00  0.00    -0.084 NA
ATOM     33  O   UNL     1      17.898   4.567  -0.108  0.00  0.00    -0.267 OA
ENDBRANCH  30  31
BRANCH   1   2
ATOM      2  O   UNL     1      18.658   5.628   3.608  0.00  0.00    -0.436 OA
BRANCH   2   3
ATOM      3  C   UNL     1      18.619   5.972   4.937  0.00  0.00    +0.147 A 
ATOM      4  C   UNL     1      18.401   4.918   5.849  0.00  0.00    +0.041 A 
ATOM      5  C   UNL     1      18.327   5.174   7.209  0.00  0.00    +0.041 A 
ATOM      6  C   UNL     1      18.458   6.483   7.688  0.00  0.00    +0.145 A 
ATOM     14  C   UNL     1      18.673   7.526   6.779  0.00  0.00    +0.041 A 
ATOM     15  C   UNL     1      18.736   7.297   5.410  0.00  0.00    +0.041 A 
BRANCH   6   7
ATOM      7  O   UNL     1      18.352   6.714   9.054  0.00  0.00    -0.454 OA
BRANCH   7   8
ATOM      8  C   UNL     1      17.182   7.310   9.499  0.00  0.00    +0.145 A 
ATOM      9  C   UNL     1      17.126   7.944  10.741  0.00  0.00    +0.037 A 
ATOM     10  C   UNL     1      15.945   8.576  11.163  0.00  0.00    +0.003 A 
ATOM     11  C   UNL     1      14.820   8.566  10.324  0.00  0.00    +0.000 A 
ATOM     12  C   UNL     1      14.860   7.938   9.071  0.00  0.00    +0.003 A 
ATOM     13  C   UNL     1      16.036   7.317   8.678  0.00  0.00    +0.037 A 
ENDBRANCH   7   8
ENDBRANCH   6   7
ENDBRANCH   2   3
ENDBRANCH   1   2
TORSDOF 7
