REMARK  Name = 4eh2_ligand
REMARK  1 active torsions:
REMARK  status: ('A' for Active; 'I' for Inactive)
REMARK    1  A    between atoms: CAM_6  and  NAQ_7
REMARK                            x       y       z     vdW  Elec       q    Type
REMARK                         _______ _______ _______ _____ _____    ______ ____
ROOT
ATOM      3  N   UNL     1       3.771  -0.590  20.147  0.00  0.00    -0.137 N 
ATOM      4  C   UNL     1       3.736  -1.526  21.211  0.00  0.00    +0.263 A 
ATOM      5  O   UNL     1       3.902  -2.727  20.976  0.00  0.00    -0.375 OA
ATOM      6  C   UNL     1       3.503  -1.070  22.518  0.00  0.00    +0.070 A 
ATOM      7  C   UNL     1       3.455  -1.959  23.604  0.00  0.00    +0.018 A 
ATOM      8  C   UNL     1       3.225  -1.485  24.897  0.00  0.00    -0.006 A 
ATOM      9  C   UNL     1       3.029  -0.121  25.105  0.00  0.00    -0.001 A 
ATOM     10  C   UNL     1       3.075   0.769  24.029  0.00  0.00    +0.008 A 
ATOM     11  C   UNL     1       3.313   0.302  22.732  0.00  0.00    +0.027 A 
ATOM     12  N   UNL     1       3.348   1.172  21.695  0.00  0.00    -0.290 NA
ATOM     13  C   UNL     1       3.566   0.779  20.440  0.00  0.00    +0.303 A 
ENDROOT
BRANCH   3   2
ATOM      1  C   UNL     1       3.015  -1.575  18.025  0.00  0.00    +0.026 A 
ATOM      2  C   UNL     1       4.027  -1.046  18.832  0.00  0.00    +0.111 A 
ATOM     14  C   UNL     1       5.342  -0.983  18.353  0.00  0.00    +0.026 A 
ATOM     15  C   UNL     1       5.646  -1.439  17.070  0.00  0.00    -0.011 A 
ATOM     16  C   UNL     1       4.635  -1.964  16.266  0.00  0.00    -0.020 A 
ATOM     17  C   UNL     1       3.324  -2.031  16.743  0.00  0.00    -0.011 A 
ENDBRANCH   3   2
TORSDOF 1
