REMARK  Name = 6VM
REMARK  3 active torsions:
REMARK  status: ('A' for Active; 'I' for Inactive)
REMARK    1  A    between atoms: C1_1  and  C4_4
REMARK    2  A    between atoms: C4_4  and  C5_5
REMARK    3  A    between atoms: C15_20  and  C30_22
REMARK                            x       y       z     vdW  Elec       q    Type
REMARK                         _______ _______ _______ _____ _____    ______ ____
ROOT
ATOM      6  C   UNL     1      12.800  -4.241  -4.732  0.00  0.00    +0.095 C 
ATOM      7  C   UNL     1      12.989  -2.959  -5.457  0.00  0.00    +0.158 C 
ATOM      8  C   UNL     1      13.635  -1.650  -5.053  0.00  0.00    +0.049 C 
ATOM     15  C   UNL     1      15.131  -1.882  -4.818  0.00  0.00    +0.006 C 
ATOM     16  C   UNL     1      13.547  -0.682  -6.195  0.00  0.00    +0.124 C 
ATOM     17  C   UNL     1      14.072   0.725  -6.053  0.00  0.00    +0.158 C 
ATOM     18  O   UNL     1      14.440   1.093  -4.944  0.00  0.00    -0.296 OA
ATOM     19  C   UNL     1      14.038   1.666  -7.258  0.00  0.00    +0.065 C 
ATOM     20  C   UNL     1      13.986   0.895  -8.583  0.00  0.00    +0.014 C 
ATOM     21  C   UNL     1      12.758  -0.023  -8.590  0.00  0.00    +0.070 C 
ATOM     22  C   UNL     1      15.299   0.152  -8.842  0.00  0.00    +0.001 C 
ATOM     23  C   UNL     1      13.788   1.788  -9.781  0.00  0.00    +0.001 C 
ATOM     24  C   UNL     1      12.851  -1.036  -7.471  0.00  0.00    +0.155 C 
ATOM     25  N   UNL     1      12.300  -2.226  -7.673  0.00  0.00    -0.045 NA
ATOM     26  C   UNL     1      12.338  -3.170  -6.751  0.00  0.00    +0.382 C 
ATOM     27  N   UNL     1      11.842  -4.411  -6.850  0.00  0.00    +0.081 NA
ATOM     28  N   UNL     1      12.142  -5.018  -5.608  0.00  0.00    -0.043 NA
ENDROOT
BRANCH   8   9
ATOM      9  C   UNL     1      12.793  -1.073  -3.922  0.00  0.00    -0.021 A 
ATOM     10  C   UNL     1      13.274  -0.853  -2.630  0.00  0.00    -0.004 A 
ATOM     11  C   UNL     1      12.462  -0.336  -1.600  0.00  0.00    -0.000 A 
ATOM     12  C   UNL     1      11.123  -0.014  -1.848  0.00  0.00    -0.000 A 
ATOM     13  C   UNL     1      10.639  -0.219  -3.142  0.00  0.00    -0.000 A 
ATOM     14  C   UNL     1      11.456  -0.727  -4.170  0.00  0.00    -0.004 A 
ENDBRANCH   8   9
BRANCH   6   5
ATOM      5  C   UNL     1      13.262  -4.578  -3.352  0.00  0.00    +0.046 C 
BRANCH   5   1
ATOM      1  C   UNL     1      12.133  -4.874  -2.360  0.00  0.00    +0.005 C 
ATOM      2  C   UNL     1      12.780  -5.201  -1.011  0.00  0.00    +0.000 C 
ATOM      3  C   UNL     1      11.202  -3.689  -2.143  0.00  0.00    +0.000 C 
ATOM      4  C   UNL     1      11.279  -6.050  -2.824  0.00  0.00    +0.000 C 
ENDBRANCH   5   1
ENDBRANCH   6   5
TORSDOF 3
