REMARK  Name = 5W4W
REMARK  4 active torsions:
REMARK  status: ('A' for Active; 'I' for Inactive)
REMARK    1  A    between atoms: C_1  and  C_18
REMARK    2  A    between atoms: N_2  and  C_10
REMARK    3  A    between atoms: C_3  and  C_12
REMARK    4  A    between atoms: N_22  and  C_24
REMARK                            x       y       z     vdW  Elec       q    Type
REMARK                         _______ _______ _______ _____ _____    ______ ____
ROOT
ATOM      1  C   UNL     1      51.393  92.650 117.789  0.00  0.00    +0.028 A 
ATOM     13  C   UNL     1      50.516  93.320 116.885  0.00  0.00    +0.100 A 
ATOM     14  N   UNL     1      51.175  93.780 115.825  0.00  0.00    -0.171 NA
ATOM     15  N   UNL     1      52.463  93.417 116.050  0.00  0.00    -0.273 N 
ATOM     16  C   UNL     1      53.484  93.761 115.069  0.00  0.00    +0.172 C 
ATOM     24  C   UNL     1      52.628  92.747 117.197  0.00  0.00    +0.117 A 
ENDROOT
BRANCH   1   2
ATOM      2  C   UNL     1      51.080  91.964 119.072  0.00  0.00    +0.001 A 
ATOM      3  C   UNL     1      49.948  91.153 119.145  0.00  0.00    +0.029 A 
ATOM      4  C   UNL     1      49.715  90.443 120.306  0.00  0.00    +0.112 A 
ATOM      5  N   UNL     1      50.525  90.464 121.377  0.00  0.00    -0.258 NA
ATOM      6  C   UNL     1      51.618  91.241 121.326  0.00  0.00    +0.071 A 
ATOM      7  C   UNL     1      52.715  91.441 122.319  0.00  0.00    +0.163 C 
ATOM      8  N   UNL     1      53.531  92.517 121.762  0.00  0.00    -0.295 N 
ATOM      9  C   UNL     1      54.685  93.063 122.463  0.00  0.00    +0.133 C 
ATOM     10  C   UNL     1      53.104  92.919 120.529  0.00  0.00    +0.249 C 
ATOM     11  O   UNL     1      53.581  93.838 119.886  0.00  0.00    -0.270 OA
ATOM     12  C   UNL     1      51.936  92.048 120.193  0.00  0.00    +0.068 A 
ENDBRANCH   1   2
BRANCH  13  17
ATOM     17  C   UNL     1      49.062  93.582 116.972  0.00  0.00    +0.003 A 
ATOM     18  C   UNL     1      48.262  93.484 115.834  0.00  0.00    +0.013 A 
ATOM     19  C   UNL     1      46.904  93.749 115.893  0.00  0.00    +0.039 A 
ATOM     20  C   UNL     1      46.362  94.104 117.105  0.00  0.00    +0.123 A 
ATOM     21  F   UNL     1      45.013  94.262 117.192  0.00  0.00    -0.205 F 
ATOM     22  C   UNL     1      47.109  94.233 118.248  0.00  0.00    +0.039 A 
ATOM     23  C   UNL     1      48.467  93.958 118.177  0.00  0.00    +0.013 A 
ENDBRANCH  13  17
TORSDOF 2
