REMARK  Name = 9X1
REMARK  9 active torsions:
REMARK  status: ('A' for Active; 'I' for Inactive)
REMARK    1  A    between atoms: C1_1  and  N1_19
REMARK    2  A    between atoms: C26_10  and  C23_34
REMARK    3  A    between atoms: C32_12  and  N33_13
REMARK    4  A    between atoms: C32_12  and  C29_38
REMARK    5  A    between atoms: C36_16  and  N43_44
REMARK    6  A    between atoms: N1_19  and  C9_21
REMARK    7  A    between atoms: N12_30  and  C19_31
REMARK    8  A    between atoms: C19_31  and  C20_32
REMARK    9  A    between atoms: N43_44  and  C45_46
REMARK                            x       y       z     vdW  Elec       q    Type
REMARK                         _______ _______ _______ _____ _____    ______ ____
ROOT
ATOM     20  C   UNL     1      -4.661 -12.610  26.971  0.00  0.00    -0.002 A 
ATOM     21  C   UNL     1      -5.907 -12.982  26.442  0.00  0.00    -0.003 A 
ATOM     22  C   UNL     1      -6.064 -13.303  25.086  0.00  0.00    -0.000 A 
ATOM     23  C   UNL     1      -4.969 -13.286  24.231  0.00  0.00    -0.000 A 
ATOM     24  C   UNL     1      -3.729 -12.904  24.738  0.00  0.00    -0.000 A 
ATOM     51  C   UNL     1      -3.574 -12.582  26.085  0.00  0.00    -0.003 A 
ENDROOT
BRANCH  23  25
ATOM     25  C   UNL     1      -5.053 -13.533  22.867  0.00  0.00    -0.000 A 
ATOM     26  C   UNL     1      -5.274 -14.757  22.220  0.00  0.00    -0.000 A 
ATOM     27  C   UNL     1      -5.310 -14.800  20.801  0.00  0.00    -0.003 A 
ATOM     28  C   UNL     1      -5.129 -13.637  20.035  0.00  0.00    -0.002 A 
ATOM     29  C   UNL     1      -4.903 -12.441  20.716  0.00  0.00    -0.003 A 
ATOM     50  C   UNL     1      -4.875 -12.393  22.097  0.00  0.00    -0.000 A 
BRANCH  28  30
ATOM     30  C   UNL     1      -5.155 -13.647  18.618  0.00  0.00    +0.118 C 
BRANCH  30  31
ATOM     31  N   UNL     1      -5.400 -12.270  17.977  0.00  0.00    -0.299 N 
ATOM     32  C   UNL     1      -6.635 -11.701  17.851  0.00  0.00    +0.050 A 
ATOM     33  C   UNL     1      -7.772 -12.395  18.303  0.00  0.00    +0.015 A 
ATOM     34  C   UNL     1      -9.054 -11.857  18.201  0.00  0.00    +0.001 A 
ATOM     35  C   UNL     1      -9.238 -10.613  17.615  0.00  0.00    +0.000 A 
ATOM     36  C   UNL     1      -8.129  -9.913  17.153  0.00  0.00    +0.003 A 
ATOM     37  C   UNL     1      -6.808 -10.417  17.249  0.00  0.00    +0.027 A 
ATOM     38  C   UNL     1      -5.676  -9.688  16.770  0.00  0.00    +0.050 C 
ATOM     39  C   UNL     1      -4.412 -10.274  16.941  0.00  0.00    +0.010 C 
ATOM     49  C   UNL     1      -4.270 -11.538  17.512  0.00  0.00    +0.119 C 
BRANCH  38  40
ATOM     40  N   UNL     1      -5.832  -8.420  16.223  0.00  0.00    -0.285 N 
ATOM     41  C   UNL     1      -6.523  -7.373  17.040  0.00  0.00    +0.117 C 
BRANCH  40  42
ATOM     42  C   UNL     1      -5.254  -7.973  15.056  0.00  0.00    +0.052 A 
ATOM     43  C   UNL     1      -5.454  -6.624  14.645  0.00  0.00    +0.016 A 
ATOM     44  C   UNL     1      -4.892  -6.095  13.494  0.00  0.00    +0.013 A 
ATOM     45  C   UNL     1      -4.102  -6.895  12.693  0.00  0.00    +0.058 A 
ATOM     46  C   UNL     1      -3.867  -8.220  13.051  0.00  0.00    +0.013 A 
ATOM     47 CL   UNL     1      -3.470  -6.238  11.330  0.00  0.00    -0.082 Cl
ATOM     48  C   UNL     1      -4.428  -8.749  14.214  0.00  0.00    +0.016 A 
ENDBRANCH  40  42
ENDBRANCH  38  40
ENDBRANCH  30  31
ENDBRANCH  28  30
ENDBRANCH  23  25
BRANCH  20  19
ATOM     19  C   UNL     1      -4.523 -12.292  28.362  0.00  0.00    +0.122 C 
BRANCH  19  13
ATOM     10  C   UNL     1      -3.933 -15.988  30.559  0.00  0.00    +0.120 C 
ATOM     11  C   UNL     1      -5.179 -15.399  30.332  0.00  0.00    +0.014 C 
ATOM     12  C   UNL     1      -5.320 -14.223  29.632  0.00  0.00    +0.063 C 
ATOM     13  N   UNL     1      -4.214 -13.555  29.127  0.00  0.00    -0.282 N 
ATOM     14  C   UNL     1      -2.966 -14.078  29.312  0.00  0.00    +0.050 A 
ATOM     15  C   UNL     1      -1.837 -13.405  28.803  0.00  0.00    +0.015 A 
ATOM     16  C   UNL     1      -0.545 -13.874  28.943  0.00  0.00    +0.001 A 
ATOM     17  C   UNL     1      -0.347 -15.053  29.626  0.00  0.00    -0.000 A 
ATOM     18  C   UNL     1      -1.438 -15.743  30.136  0.00  0.00    -0.001 A 
ATOM     52  C   UNL     1      -2.782 -15.301  30.020  0.00  0.00    +0.014 A 
BRANCH  10   8
ATOM      8  N   UNL     1      -3.867 -17.184  31.269  0.00  0.00    -0.300 N 
ATOM      9  C   UNL     1      -4.946 -18.209  31.170  0.00  0.00    +0.113 C 
BRANCH   8   1
ATOM      1  C   UNL     1      -2.795 -17.542  31.983  0.00  0.00    +0.048 A 
ATOM      2  C   UNL     1      -2.118 -16.639  32.816  0.00  0.00    +0.015 A 
ATOM      3  C   UNL     1      -0.974 -17.031  33.507  0.00  0.00    +0.013 A 
ATOM      4  C   UNL     1      -0.501 -18.331  33.391  0.00  0.00    +0.058 A 
ATOM      5 CL   UNL     1       0.881 -18.821  34.236  0.00  0.00    -0.082 Cl
ATOM      6  C   UNL     1      -1.160 -19.238  32.576  0.00  0.00    +0.013 A 
ATOM      7  C   UNL     1      -2.296 -18.849  31.869  0.00  0.00    +0.015 A 
ENDBRANCH   8   1
ENDBRANCH  10   8
ENDBRANCH  19  13
ENDBRANCH  20  19
TORSDOF 9
