REMARK  Name = 4l23_ligand
REMARK  2 active torsions:
REMARK  status: ('A' for Active; 'I' for Inactive)
REMARK    1  A    between atoms: C19_19  and  C20_20
REMARK    2  A    between atoms: C24_24  and  O25_25
REMARK                            x       y       z     vdW  Elec       q    Type
REMARK                         _______ _______ _______ _____ _____    ______ ____
ROOT
ATOM      1  N   UNL     1      35.216  48.703  43.931  0.00  0.00    -0.267 NA
ATOM      2  C   UNL     1      34.282  47.891  43.402  0.00  0.00    +0.204 A 
ATOM      3  O   UNL     1      33.225  47.327  44.008  0.00  0.00    -0.224 OA
ATOM      4  C   UNL     1      32.549  46.586  43.106  0.00  0.00    +0.200 A 
ATOM      5  C   UNL     1      31.315  45.774  43.254  0.00  0.00    +0.169 A 
ATOM      6  N   UNL     1      30.912  45.137  42.121  0.00  0.00    -0.260 NA
ATOM      7  C   UNL     1      31.543  45.235  40.903  0.00  0.00    +0.092 A 
ATOM     16  N   UNL     1      32.681  45.977  40.721  0.00  0.00    -0.290 NA
ATOM     17  N   UNL     1      30.633  45.618  44.488  0.00  0.00    -0.283 N 
ATOM     18  C   UNL     1      30.556  46.824  45.318  0.00  0.00    +0.164 C 
ATOM     19  C   UNL     1      30.288  46.312  46.730  0.00  0.00    +0.184 C 
ATOM     20  O   UNL     1      29.097  45.507  46.781  0.00  0.00    -0.376 OA
ATOM     21  C   UNL     1      28.961  44.500  45.763  0.00  0.00    +0.184 C 
ATOM     22  C   UNL     1      29.284  45.054  44.374  0.00  0.00    +0.164 C 
ATOM     23  C   UNL     1      33.185  46.645  41.782  0.00  0.00    +0.087 A 
ATOM     24  C   UNL     1      34.352  47.521  41.975  0.00  0.00    +0.057 A 
ATOM     25  C   UNL     1      35.347  47.969  41.126  0.00  0.00    +0.033 A 
ATOM     26  C   UNL     1      36.279  48.806  41.745  0.00  0.00    +0.021 A 
ATOM     27  C   UNL     1      36.190  49.138  43.108  0.00  0.00    +0.084 A 
ENDROOT
BRANCH   7   8
ATOM      8  C   UNL     1      30.951  44.462  39.764  0.00  0.00    +0.001 A 
ATOM      9  C   UNL     1      30.159  43.357  40.050  0.00  0.00    +0.036 A 
ATOM     10  C   UNL     1      29.605  42.604  39.031  0.00  0.00    +0.090 A 
ATOM     13  C   UNL     1      29.842  42.935  37.709  0.00  0.00    +0.025 A 
ATOM     14  C   UNL     1      30.641  44.030  37.406  0.00  0.00    -0.008 A 
ATOM     15  C   UNL     1      31.191  44.781  38.434  0.00  0.00    -0.004 A 
BRANCH  10  11
ATOM     11  O   UNL     1      28.827  41.530  39.331  0.00  0.00    -0.333 OA
ATOM     12  H   UNL     1      29.216  40.746  38.962  0.00  0.00    +0.248 HD
ENDBRANCH  10  11
ENDBRANCH   7   8
TORSDOF 2
