REMARK  Name = F6J
REMARK  5 active torsions:
REMARK  status: ('A' for Active; 'I' for Inactive)
REMARK    1  A    between atoms: C5_3  and  C4_19
REMARK    2  A    between atoms: C7_5  and  C12_9
REMARK    3  A    between atoms: C10_7  and  C11_8
REMARK    4  A    between atoms: C16_12  and  C19_14
REMARK    5  A    between atoms: C2_17  and  C4_19
REMARK                            x       y       z     vdW  Elec       q    Type
REMARK                         _______ _______ _______ _____ _____    ______ ____
ROOT
ATOM      7  C   UNL     1      38.579  47.555  10.695  0.00  0.00    +0.089 C 
ATOM      8  C   UNL     1      38.967  46.829  11.807  0.00  0.00    +0.083 C 
ATOM      9  N   UNL     1      37.983  45.943  12.111  0.00  0.00    -0.229 NA
ATOM     10  C   UNL     1      36.958  46.101  11.212  0.00  0.00    +0.159 A 
ATOM     11  N   UNL     1      35.817  45.409  11.200  0.00  0.00    -0.225 NA
ATOM     12  C   UNL     1      34.981  45.767  10.211  0.00  0.00    +0.101 A 
ATOM     13  C   UNL     1      35.189  46.731   9.245  0.00  0.00    +0.019 A 
ATOM     14  C   UNL     1      36.397  47.394   9.323  0.00  0.00    +0.001 A 
ATOM     21  C   UNL     1      37.301  47.081  10.314  0.00  0.00    +0.023 A 
ENDROOT
BRANCH   7   6
ATOM      4  C   UNL     1      39.555  50.751   8.984  0.00  0.00    -0.016 A 
ATOM      5  C   UNL     1      38.806  49.723   9.538  0.00  0.00    -0.008 A 
ATOM      6  C   UNL     1      39.387  48.624  10.131  0.00  0.00    -0.013 A 
ATOM     22  C   UNL     1      40.760  48.566  10.190  0.00  0.00    -0.003 A 
ATOM     23  C   UNL     1      41.519  49.579   9.659  0.00  0.00    +0.006 A 
ATOM     24  C   UNL     1      40.938  50.676   9.055  0.00  0.00    +0.076 A 
BRANCH  24  25
ATOM     25  C   UNL     1      41.884  51.697   8.508  0.00  0.00    +0.387 C 
ATOM     26  O   UNL     1      42.793  52.087   9.280  0.00  0.00    -0.241 OA
ATOM     27  O   UNL     1      41.767  52.055   7.304  0.00  0.00    -0.241 OA
ENDBRANCH  24  25
BRANCH   4   3
ATOM      3  C   UNL     1      38.885  51.925   8.341  0.00  0.00    +0.026 C 
BRANCH   3   2
ATOM      1  C   UNL     1      37.447  50.669   6.756  0.00  0.00    +0.000 C 
ATOM      2  C   UNL     1      37.473  51.736   7.819  0.00  0.00    +0.004 C 
ATOM     28  C   UNL     1      37.054  53.017   7.138  0.00  0.00    +0.000 C 
ENDBRANCH   3   2
ENDBRANCH   4   3
ENDBRANCH   7   6
BRANCH  13  15
ATOM     15  C   UNL     1      34.188  47.059   8.204  0.00  0.00    +0.002 A 
ATOM     16  C   UNL     1      33.081  46.256   7.958  0.00  0.00    +0.000 A 
ATOM     17  C   UNL     1      32.132  46.560   7.011  0.00  0.00    +0.000 A 
ATOM     18  C   UNL     1      32.269  47.702   6.259  0.00  0.00    +0.000 A 
ATOM     19  C   UNL     1      33.353  48.532   6.468  0.00  0.00    +0.000 A 
ATOM     20  C   UNL     1      34.284  48.207   7.431  0.00  0.00    +0.000 A 
ENDBRANCH  13  15
TORSDOF 5
