REMARK  Name = M05
REMARK  2 active torsions:
REMARK  status: ('A' for Active; 'I' for Inactive)
REMARK    1  A    between atoms: C4_3  and  C5_4
REMARK    2  A    between atoms: C4_3  and  C9_7
REMARK                            x       y       z     vdW  Elec       q    Type
REMARK                         _______ _______ _______ _____ _____    ______ ____
ROOT
ATOM      1  N   UNL     1       7.322   9.653   3.119  0.00  0.00    -0.293 N 
ATOM      2  C   UNL     1       8.046   9.690   4.401  0.00  0.00    +0.094 C 
ATOM      3  C   UNL     1       9.546   9.830   4.205  0.00  0.00    +0.040 C 
ATOM      4  C   UNL     1      10.115   8.713   3.327  0.00  0.00    +0.084 C 
ATOM      5  N   UNL     1       9.930   7.398   3.986  0.00  0.00    -0.134 NA
ATOM     14  C   UNL     1       9.357   8.779   1.998  0.00  0.00    +0.040 C 
ATOM     15  C   UNL     1       5.914   9.721   3.233  0.00  0.00    +0.133 A 
ATOM     16  N   UNL     1       5.426   9.892   4.480  0.00  0.00    -0.209 NA
ATOM     17  C   UNL     1       4.100   9.930   4.634  0.00  0.00    +0.201 A 
ATOM     18  N   UNL     1       3.153   9.919   3.699  0.00  0.00    -0.205 NA
ATOM     19  C   UNL     1       3.656   9.793   2.473  0.00  0.00    +0.163 A 
ATOM     20  N   UNL     1       2.936   9.738   1.318  0.00  0.00    -0.230 NA
ATOM     21  C   UNL     1       3.789   9.640   0.254  0.00  0.00    +0.079 C 
ATOM     22  C   UNL     1       5.095   9.615   0.737  0.00  0.00    +0.079 C 
ATOM     23  C   UNL     1       5.016   9.716   2.154  0.00  0.00    +0.051 A 
ATOM     24  C   UNL     1       7.847   8.667   2.162  0.00  0.00    +0.094 C 
ENDROOT
BRANCH   4   6
ATOM      6  C   UNL     1      11.627   8.875   3.124  0.00  0.00    +0.044 C 
BRANCH   6   7
ATOM      7  C   UNL     1      12.053  10.011   2.243  0.00  0.00    -0.021 A 
ATOM      8  C   UNL     1      12.386  11.238   2.808  0.00  0.00    -0.003 A 
ATOM      9  C   UNL     1      12.776  12.288   2.015  0.00  0.00    +0.011 A 
ATOM     10  C   UNL     1      12.816  12.140   0.642  0.00  0.00    +0.058 A 
ATOM     11  C   UNL     1      12.480  10.925   0.061  0.00  0.00    +0.011 A 
ATOM     12 CL   UNL     1      13.315  13.472  -0.348  0.00  0.00    -0.082 Cl
ATOM     13  C   UNL     1      12.096   9.861   0.860  0.00  0.00    -0.003 A 
ENDBRANCH   6   7
ENDBRANCH   4   6
TORSDOF 2
