REMARK  Name = 3h30_ligand
REMARK  5 active torsions:
REMARK  status: ('A' for Active; 'I' for Inactive)
REMARK    1  A    between atoms: N1_11  and  C1'_12
REMARK    2  A    between atoms: C4'_14  and  C5'_15
REMARK    3  A    between atoms: C5'_15  and  O5'_16
REMARK    4  A    between atoms: C3'_17  and  O3'_18
REMARK    5  A    between atoms: C2'_19  and  O2'_20
REMARK                            x       y       z     vdW  Elec       q    Type
REMARK                         _______ _______ _______ _____ _____    ______ ____
ROOT
ATOM      3  C1* UNL     1      17.506  -2.647   9.181  0.00  0.00    +0.297 C 
ATOM      4  C2* UNL     1      18.760  -2.039   9.778  0.00  0.00    +0.206 C 
ATOM      7  C3* UNL     1      18.416  -2.135  11.266  0.00  0.00    +0.179 C 
ATOM     10  C4* UNL     1      16.882  -1.889  11.307  0.00  0.00    +0.178 C 
ATOM     14  O4* UNL     1      16.426  -2.043   9.932  0.00  0.00    -0.337 OA
ENDROOT
BRANCH   3   2
ATOM      1  C   UNL     1      18.016  -2.930   6.759  0.00  0.00    +0.090 A 
ATOM      2  N   UNL     1      17.378  -2.315   7.747  0.00  0.00    -0.207 N 
ATOM     15  C   UNL     1      16.599  -1.370   7.218  0.00  0.00    +0.244 A 
ATOM     16  N   UNL     1      16.742  -1.378   5.894  0.00  0.00    -0.306 NA
ATOM     17  C   UNL     1      17.612  -2.331   5.574  0.00  0.00    +0.035 A 
ATOM     18  C   UNL     1      18.124  -2.776   4.358  0.00  0.00    +0.010 A 
ATOM     19  C   UNL     1      19.045  -3.821   4.337  0.00  0.00    +0.040 A 
ATOM     20 CL   UNL     1      19.673  -4.367   2.826  0.00  0.00    -0.080 Cl
ATOM     21  C   UNL     1      19.454  -4.422   5.528  0.00  0.00    +0.042 A 
ATOM     22 CL   UNL     1      20.596  -5.722   5.518  0.00  0.00    -0.078 Cl
ATOM     23  C   UNL     1      18.936  -3.975   6.739  0.00  0.00    +0.031 A 
ENDBRANCH   3   2
BRANCH   4   5
ATOM      5  O2* UNL     1      19.886  -2.860   9.466  0.00  0.00    -0.384 OA
ATOM      6  H2* UNL     1      19.686  -3.764   9.678  0.00  0.00    +0.210 HD
ENDBRANCH   4   5
BRANCH   7   8
ATOM      8  O3* UNL     1      18.700  -3.458  11.750  0.00  0.00    -0.386 OA
ATOM      9  H3* UNL     1      19.638  -3.609  11.725  0.00  0.00    +0.210 HD
ENDBRANCH   7   8
BRANCH  10  11
ATOM     11  C5* UNL     1      16.563  -0.458  11.749  0.00  0.00    +0.190 C 
BRANCH  11  12
ATOM     12  O5* UNL     1      15.145  -0.269  11.762  0.00  0.00    -0.392 OA
ATOM     13  H5* UNL     1      14.799  -0.416  10.890  0.00  0.00    +0.209 HD
ENDBRANCH  11  12
ENDBRANCH  10  11
TORSDOF 5
