REMARK  Name = F82
REMARK  9 active torsions:
REMARK  status: ('A' for Active; 'I' for Inactive)
REMARK    1  A    between atoms: C1_1  and  N_26
REMARK    2  A    between atoms: O4_4  and  C18_34
REMARK    3  A    between atoms: C7_5  and  C8_6
REMARK    4  A    between atoms: C7_5  and  C6_21
REMARK    5  A    between atoms: C11_9  and  O2_29
REMARK    6  A    between atoms: C13_11  and  O1_28
REMARK    7  A    between atoms: C15_13  and  O2_29
REMARK    8  A    between atoms: C19_15  and  O3_32
REMARK    9  A    between atoms: N2_22  and  C4_23
REMARK                            x       y       z     vdW  Elec       q    Type
REMARK                         _______ _______ _______ _____ _____    ______ ____
ROOT
ATOM     12  C   UNL     1      32.504  98.321   8.490  0.00  0.00    +0.021 A 
ATOM     13  C   UNL     1      31.984  97.325   9.323  0.00  0.00    +0.002 A 
ATOM     14  C   UNL     1      32.750  96.242   9.717  0.00  0.00    +0.037 A 
ATOM     15  C   UNL     1      34.060  96.138   9.268  0.00  0.00    +0.150 A 
ATOM     31  C   UNL     1      34.600  97.108   8.435  0.00  0.00    +0.074 A 
ATOM     32  C   UNL     1      33.828  98.190   8.048  0.00  0.00    +0.138 A 
ENDROOT
BRANCH  32  33
ATOM     33  O   UNL     1      34.279  99.193   7.229  0.00  0.00    -0.472 OA
ATOM     34  C   UNL     1      35.576  99.054   6.662  0.00  0.00    +0.253 C 
ENDBRANCH  32  33
BRANCH  12  11
ATOM     11  C   UNL     1      31.663  99.506   8.065  0.00  0.00    +0.117 C 
BRANCH  11   9
ATOM      8  N   UNL     1      30.002 101.088   8.847  0.00  0.00    -0.176 NA
ATOM      9  C   UNL     1      30.917 100.155   9.218  0.00  0.00    +0.250 C 
ATOM     10  O   UNL     1      31.091  99.841  10.395  0.00  0.00    -0.273 OA
BRANCH   8   6
ATOM      4  N   UNL     1      28.167 102.680  11.446  0.00  0.00    -0.250 N 
ATOM      5  C   UNL     1      29.290 102.022  11.100  0.00  0.00    +0.113 A 
ATOM      6  C   UNL     1      29.168 101.741   9.769  0.00  0.00    +0.113 A 
ATOM      7  C   UNL     1      27.932 102.268   9.386  0.00  0.00    +0.138 A 
ATOM     35  N   UNL     1      27.313 102.843  10.401  0.00  0.00    -0.166 NA
BRANCH   4   1
ATOM      1  C   UNL     1      27.758 103.224  12.763  0.00  0.00    +0.105 C 
ATOM      2  C   UNL     1      27.301 102.107  13.673  0.00  0.00    +0.026 C 
ATOM      3  C   UNL     1      28.894 103.998  13.385  0.00  0.00    +0.026 C 
ENDBRANCH   4   1
ENDBRANCH   8   6
ENDBRANCH  11   9
ENDBRANCH  12  11
BRANCH  15  16
ATOM     16  O   UNL     1      34.846  95.050   9.645  0.00  0.00    -0.436 OA
BRANCH  16  17
ATOM     17  C   UNL     1      36.023  95.185  10.334  0.00  0.00    +0.233 A 
ATOM     18  C   UNL     1      36.626  93.955  10.731  0.00  0.00    +0.074 A 
ATOM     19  C   UNL     1      37.841  94.102  11.440  0.00  0.00    +0.091 A 
ATOM     20  C   UNL     1      38.526  92.947  11.880  0.00  0.00    +0.059 A 
ATOM     21  C   UNL     1      38.016  91.704  11.635  0.00  0.00    +0.174 A 
ATOM     24  C   UNL     1      36.795  91.557  10.928  0.00  0.00    +0.173 A 
ATOM     27  N   UNL     1      38.392  95.328  11.719  0.00  0.00    -0.224 NA
ATOM     28  C   UNL     1      37.693  96.387  11.277  0.00  0.00    +0.202 A 
ATOM     29  C   UNL     1      36.121  92.656  10.481  0.00  0.00    +0.046 A 
ATOM     30  N   UNL     1      36.539  96.400  10.600  0.00  0.00    -0.189 NA
BRANCH  21  22
ATOM     22  O   UNL     1      38.600  90.526  12.015  0.00  0.00    -0.468 OA
ATOM     23  C   UNL     1      39.974  90.561  12.410  0.00  0.00    +0.253 C 
ENDBRANCH  21  22
BRANCH  24  25
ATOM     25  O   UNL     1      36.400  90.262  10.739  0.00  0.00    -0.468 OA
ATOM     26  C   UNL     1      35.100  90.022  10.183  0.00  0.00    +0.253 C 
ENDBRANCH  24  25
ENDBRANCH  16  17
ENDBRANCH  15  16
TORSDOF 9
