REMARK  Name = 3QWK
REMARK  5 active torsions:
REMARK  status: ('A' for Active; 'I' for Inactive)
REMARK    1  A    between atoms: N_1  and  C_8
REMARK    2  A    between atoms: N_1  and  C_13
REMARK    3  A    between atoms: N_5  and  C_11
REMARK    4  A    between atoms: C_7  and  C_12
REMARK    5  A    between atoms: C_13  and  C_14
REMARK                            x       y       z     vdW  Elec       q    Type
REMARK                         _______ _______ _______ _____ _____    ______ ____
ROOT
ATOM     11  C   UNL     1     -65.608  25.806 -83.878  0.00  0.00    +0.041 A 
ATOM     12  C   UNL     1     -65.961  26.206 -82.550  0.00  0.00    +0.046 A 
ATOM     13  C   UNL     1     -67.264  26.640 -82.234  0.00  0.00    +0.073 A 
ATOM     14 CL   UNL     1     -67.566  27.070 -80.604  0.00  0.00    -0.081 Cl
ATOM     15  C   UNL     1     -68.282  26.702 -83.263  0.00  0.00    +0.145 A 
ATOM     16  C   UNL     1     -67.933  26.293 -84.587  0.00  0.00    +0.049 A 
ATOM     20  C   UNL     1     -66.607  25.838 -84.906  0.00  0.00    +0.059 A 
ENDROOT
BRANCH  20  21
ATOM     21  C   UNL     1     -66.326  25.434 -86.191  0.00  0.00    +0.243 C 
ATOM     22  O   UNL     1     -65.489  24.563 -86.397  0.00  0.00    -0.270 OA
ATOM     23  N   UNL     1     -67.016  25.955 -87.243  0.00  0.00    -0.325 N 
ATOM     24  H   UNL     1     -66.793  25.637 -88.240  0.00  0.00    +0.145 HD
ATOM     25  H   UNL     1     -67.782  26.683 -87.073  0.00  0.00    +0.145 HD
ENDBRANCH  20  21
BRANCH  15  17
ATOM     17  N   UNL     1     -69.495  27.106 -83.031  0.00  0.00    +0.058 N 
ATOM     18  O   UNL     1     -69.771  27.967 -82.071  0.00  0.00    -0.126 OA
ATOM     19  O   UNL     1     -70.483  26.698 -83.780  0.00  0.00    -0.126 OA
ENDBRANCH  15  17
BRANCH  11   1
ATOM      1  N   UNL     1     -64.404  25.410 -84.147  0.00  0.00    -0.339 N 
ATOM      2  H   UNL     1     -64.256  24.780 -84.999  0.00  0.00    +0.146 HD
BRANCH   1   3
ATOM      3  C   UNL     1     -63.218  25.785 -83.335  0.00  0.00    +0.140 C 
BRANCH   3   4
ATOM      4  C   UNL     1     -62.881  24.661 -82.392  0.00  0.00    +0.006 A 
ATOM      5  C   UNL     1     -62.361  24.881 -81.121  0.00  0.00    +0.120 A 
ATOM      6  N   UNL     1     -62.047  23.876 -80.246  0.00  0.00    -0.226 NA
ATOM      7  C   UNL     1     -62.271  22.609 -80.681  0.00  0.00    +0.223 A 
ATOM      8 CL   UNL     1     -61.883  21.320 -79.613  0.00  0.00    -0.041 Cl
ATOM      9  N   UNL     1     -62.774  22.273 -81.889  0.00  0.00    -0.226 NA
ATOM     10  C   UNL     1     -63.070  23.310 -82.724  0.00  0.00    +0.120 A 
ENDBRANCH   3   4
ENDBRANCH   1   3
ENDBRANCH  11   1
TORSDOF 5
