REMARK  Name = 3eyh_ligand
REMARK  4 active torsions:
REMARK  status: ('A' for Active; 'I' for Inactive)
REMARK    1  A    between atoms: C2_18  and  C14_20
REMARK    2  A    between atoms: C14_20  and  C17_21
REMARK    3  A    between atoms: C14_20  and  C16_22
REMARK    4  A    between atoms: C14_20  and  C15_23
REMARK                            x       y       z     vdW  Elec       q    Type
REMARK                         _______ _______ _______ _____ _____    ______ ____
ROOT
ATOM      1  O   UNL     1       9.071 -15.870 -10.701  0.00  0.00    -0.390 OA
ATOM      2  C   UNL     1      10.060 -15.263 -11.163  0.00  0.00    +0.176 C 
ATOM      3  C   UNL     1      10.232 -15.072 -12.626  0.00  0.00    +0.047 A 
ATOM      4  C   UNL     1       9.263 -15.622 -13.618  0.00  0.00    -0.007 A 
ATOM      5  C   UNL     1       9.502 -15.412 -15.066  0.00  0.00    +0.031 A 
ATOM      6  C   UNL     1      10.656 -14.698 -15.409  0.00  0.00    +0.131 A 
ATOM      7  N   UNL     1      11.107 -14.351 -16.650  0.00  0.00    -0.239 N 
ATOM      8  H   UNL     1      10.671 -14.540 -17.564  0.00  0.00    +0.242 HD
ATOM      9  C   UNL     1      12.264 -13.700 -16.392  0.00  0.00    +0.107 A 
ATOM     14  N   UNL     1      12.566 -13.572 -15.080  0.00  0.00    -0.251 NA
ATOM     15  C   UNL     1      11.546 -14.214 -14.456  0.00  0.00    +0.111 A 
ATOM     16  C   UNL     1       8.652 -15.862 -15.938  0.00  0.00    +0.020 A 
ATOM     17  C   UNL     1       7.574 -16.521 -15.608  0.00  0.00    +0.036 A 
ATOM     18  C   UNL     1       7.279 -16.734 -14.255  0.00  0.00    +0.136 A 
ATOM     19  F   UNL     1       6.097 -17.465 -13.831  0.00  0.00    -0.179 F 
ATOM     20  C   UNL     1       8.120 -16.301 -13.255  0.00  0.00    +0.038 A 
ATOM     21  C   UNL     1      11.369 -14.387 -13.081  0.00  0.00    +0.028 A 
ATOM     22  C   UNL     1      12.300 -13.874 -12.164  0.00  0.00    +0.211 C 
ATOM     23  C   UNL     1      12.087 -14.054 -10.793  0.00  0.00    +0.171 C 
ATOM     24  N   UNL     1      11.002 -14.731 -10.335  0.00  0.00    -0.251 NA
ENDROOT
BRANCH   9  10
ATOM     10  C   UNL     1      13.136 -13.110 -17.483  0.00  0.00    -0.014 C 
ATOM     11  C   UNL     1      12.791 -11.622 -17.520  0.00  0.00    -0.051 C 
ATOM     12  C   UNL     1      14.629 -13.227 -17.220  0.00  0.00    -0.051 C 
ATOM     13  C   UNL     1      12.830 -13.736 -18.849  0.00  0.00    -0.051 C 
ENDBRANCH   9  10
TORSDOF 1
