REMARK  Name = 6R49
REMARK  2 active torsions:
REMARK  status: ('A' for Active; 'I' for Inactive)
REMARK    1  A    between atoms: C02_6  and  C04_8
REMARK    2  A    between atoms: N08_12  and  C09_13
REMARK                            x       y       z     vdW  Elec       q    Type
REMARK                         _______ _______ _______ _____ _____    ______ ____
ROOT
ATOM      4  N   UNL     1     -10.735  11.331 -15.529  0.00  0.00    -0.250 N 
ATOM      5  C   UNL     1      -9.676  10.532 -15.934  0.00  0.00    +0.600 C 
ATOM      6  O   UNL     1      -8.876  10.051 -15.143  0.00  0.00    -0.550 OA
ATOM      7  C   UNL     1      -9.696  10.452 -17.494  0.00  0.00    +0.100 C 
ATOM      8  N   UNL     1      -8.627  11.440 -17.927  0.00  0.00    -0.450 NA
ATOM      9  C   UNL     1      -8.560  12.759 -17.136  0.00  0.00    +0.000 C 
ATOM     10  C   UNL     1      -9.812  13.806 -17.091  0.00  0.00    +0.000 A 
ATOM     11  C   UNL     1      -9.626  15.199 -17.288  0.00  0.00    -0.130 A 
ATOM     12  C   UNL     1     -10.685  16.151 -17.257  0.00  0.00    -0.130 A 
ATOM     13  C   UNL     1     -11.999  15.729 -17.018  0.00  0.00    -0.130 A 
ATOM     14  C   UNL     1     -12.235  14.352 -16.820  0.00  0.00    -0.130 A 
ATOM     15  C   UNL     1     -11.175  13.420 -16.844  0.00  0.00    +0.000 A 
ATOM     16  C   UNL     1     -11.041  11.117 -17.841  0.00  0.00    -0.100 C 
ATOM     20  C   UNL     1     -11.525  11.940 -16.632  0.00  0.00    +0.350 C 
ATOM     21  O   UNL     1     -12.897  11.677 -16.433  0.00  0.00    -0.650 OA
ENDROOT
BRANCH   4   3
ATOM      1  C   UNL     1     -10.887  10.989 -13.066  0.00  0.00    -0.100 C 
ATOM      2  C   UNL     1     -11.958  12.099 -13.498  0.00  0.00    -0.100 C 
ATOM      3  C   UNL     1     -10.639  11.925 -14.214  0.00  0.00    +0.050 C 
ENDBRANCH   4   3
BRANCH   7  17
ATOM     17  C   UNL     1      -9.603   9.024 -18.193  0.00  0.00    -0.050 C 
ATOM     18  C   UNL     1      -9.694   7.847 -17.212  0.00  0.00    -0.150 C 
ATOM     19  C   UNL     1      -8.338   8.896 -19.071  0.00  0.00    -0.150 C 
ENDBRANCH   7  17
TORSDOF 2
