REMARK  Name = 4YNE
REMARK  3 active torsions:
REMARK  status: ('A' for Active; 'I' for Inactive)
REMARK    1  A    between atoms: C_4  and  N_23
REMARK    2  A    between atoms: C_9  and  C_10
REMARK    3  A    between atoms: C_18  and  C_20
REMARK                            x       y       z     vdW  Elec       q    Type
REMARK                         _______ _______ _______ _____ _____    ______ ____
ROOT
ATOM      6  C   UNL     1     -16.025 -42.176 -14.756  0.00  0.00    +0.147 C 
ATOM      7  N   UNL     1     -16.463 -42.559 -13.603  0.00  0.00    -0.200 N 
ATOM      8  H   UNL     1     -16.708 -43.593 -13.476  0.00  0.00    +0.150 HD
ATOM      9  N   UNL     1     -16.630 -41.733 -12.549  0.00  0.00    -0.253 N 
ATOM     10  C   UNL     1     -17.068 -41.998 -11.330  0.00  0.00    +0.104 A 
ATOM     17  C   UNL     1     -17.051 -40.872 -10.578  0.00  0.00    +0.142 A 
ATOM     18  N   UNL     1     -16.541 -39.895 -11.502  0.00  0.00    -0.234 NA
ATOM     19  C   UNL     1     -16.325 -40.472 -12.602  0.00  0.00    +0.148 A 
ATOM     20  C   UNL     1     -15.804 -39.899 -13.841  0.00  0.00    +0.046 C 
ATOM     21  C   UNL     1     -15.672 -40.730 -14.899  0.00  0.00    +0.020 C 
ENDROOT
BRANCH  10  11
ATOM     11  C   UNL     1     -17.562 -43.328 -10.775  0.00  0.00    +0.090 A 
ATOM     12  N   UNL     1     -17.951 -43.375  -9.472  0.00  0.00    -0.253 NA
ATOM     13  C   UNL     1     -18.415 -44.511  -8.892  0.00  0.00    +0.111 A 
ATOM     14  C   UNL     1     -18.528 -45.697  -9.631  0.00  0.00    +0.020 A 
ATOM     15  C   UNL     1     -18.147 -45.683 -10.986  0.00  0.00    +0.004 A 
ATOM     16  C   UNL     1     -17.668 -44.491 -11.556  0.00  0.00    +0.030 A 
ENDBRANCH  10  11
BRANCH   6   5
ATOM      4  C   UNL     1     -16.191 -44.451 -15.638  0.00  0.00    +0.089 C 
ATOM      5  N   UNL     1     -15.860 -43.026 -15.749  0.00  0.00    -0.270 NA
ATOM     22  C   UNL     1     -15.279 -42.647 -17.040  0.00  0.00    +0.087 C 
ATOM     23  C   UNL     1     -15.398 -43.926 -17.901  0.00  0.00    +0.017 C 
ATOM     24  C   UNL     1     -15.515 -45.085 -16.900  0.00  0.00    +0.025 C 
BRANCH   4   3
ATOM      1  C   UNL     1     -19.998 -44.326 -16.131  0.00  0.00    +0.124 A 
ATOM      2  C   UNL     1     -18.638 -44.004 -16.228  0.00  0.00    +0.043 A 
ATOM      3  C   UNL     1     -17.697 -44.774 -15.553  0.00  0.00    -0.028 A 
ATOM     25  C   UNL     1     -18.135 -45.838 -14.757  0.00  0.00    +0.005 A 
ATOM     26  C   UNL     1     -19.498 -46.148 -14.632  0.00  0.00    +0.003 A 
ATOM     27  F   UNL     1     -20.892 -43.611 -16.790  0.00  0.00    -0.205 F 
ATOM     28  C   UNL     1     -20.438 -45.383 -15.324  0.00  0.00    +0.038 A 
ENDBRANCH   4   3
ENDBRANCH   6   5
TORSDOF 3
