REMARK  Name = 4BDI
REMARK  3 active torsions:
REMARK  status: ('A' for Active; 'I' for Inactive)
REMARK    1  A    between atoms: C_1  and  C_3
REMARK    2  A    between atoms: C_10  and  C_13
REMARK    3  A    between atoms: C_17  and  C_19
REMARK                            x       y       z     vdW  Elec       q    Type
REMARK                         _______ _______ _______ _____ _____    ______ ____
ROOT
ATOM      6  C   UNL     1      -7.725  50.123  10.578  0.00  0.00    +0.221 C 
ATOM      7  N   UNL     1      -8.987  49.626  10.580  0.00  0.00    -0.270 N 
ATOM      8  H   UNL     1      -9.390  49.375  11.539  0.00  0.00    +0.156 HD
ATOM      9  C   UNL     1      -9.832  49.399   9.480  0.00  0.00    +0.125 A 
ATOM     10  C   UNL     1      -9.404  49.353   8.138  0.00  0.00    +0.044 A 
ATOM     11  C   UNL     1     -10.355  49.099   7.165  0.00  0.00    +0.008 A 
ATOM     12  C   UNL     1     -11.686  48.898   7.500  0.00  0.00    -0.032 A 
ATOM     13  C   UNL     1     -12.749  48.686   6.450  0.00  0.00    +0.045 C 
ATOM     14  C   UNL     1     -11.995  48.944   8.850  0.00  0.00    +0.116 A 
ATOM     15  N   UNL     1     -11.113  49.190   9.829  0.00  0.00    -0.240 NA
ATOM     16  O   UNL     1      -7.102  50.442   9.566  0.00  0.00    -0.275 OA
ENDROOT
BRANCH   6   5
ATOM      1  C   UNL     1      -4.602  52.258  14.664  0.00  0.00    +0.212 C 
ATOM      2  N   UNL     1      -5.456  51.369  14.068  0.00  0.00    -0.302 N 
ATOM      3  C   UNL     1      -6.916  51.578  14.075  0.00  0.00    +0.108 C 
ATOM      4  C   UNL     1      -7.505  51.551  12.657  0.00  0.00    +0.032 C 
ATOM      5  C   UNL     1      -7.121  50.229  11.968  0.00  0.00    +0.078 C 
ATOM     17  C   UNL     1      -5.590  50.087  11.941  0.00  0.00    +0.032 C 
ATOM     18  C   UNL     1      -5.060  50.128  13.377  0.00  0.00    +0.108 C 
ATOM     19  C   UNL     1      -3.127  52.003  14.574  0.00  0.00    +0.109 C 
ATOM     20  O   UNL     1      -5.031  53.217  15.289  0.00  0.00    -0.276 OA
ENDBRANCH   6   5
TORSDOF 1
