REMARK  Name = A5Q
REMARK  2 active torsions:
REMARK  status: ('A' for Active; 'I' for Inactive)
REMARK    1  A    between atoms: C8_1  and  C5_4
REMARK    2  A    between atoms: C2_7  and  C1_8
REMARK                            x       y       z     vdW  Elec       q    Type
REMARK                         _______ _______ _______ _____ _____    ______ ____
ROOT
ATOM      2  C   UNL     1     -11.430  15.065 -17.737  0.00  0.00    +0.071 A 
ATOM      3  C   UNL     1     -12.212  15.135 -16.603  0.00  0.00    +0.004 A 
ATOM      4  C   UNL     1     -12.231  14.077 -15.708  0.00  0.00    +0.002 A 
ATOM      5  C   UNL     1     -11.471  12.938 -15.936  0.00  0.00    +0.021 A 
ATOM     12  C   UNL     1     -10.682  12.879 -17.090  0.00  0.00    +0.002 A 
ATOM     13  C   UNL     1     -10.667  13.941 -17.980  0.00  0.00    +0.004 A 
ENDROOT
BRANCH   5   6
ATOM      6  C   UNL     1     -11.493  11.811 -14.979  0.00  0.00    +0.128 A 
ATOM      7  N   UNL     1     -12.223  11.891 -13.857  0.00  0.00    -0.139 NA
ATOM      8  N   UNL     1     -12.069  10.700 -13.128  0.00  0.00    -0.108 NA
ATOM      9  S   UNL     1     -11.211   9.805 -13.791  0.00  0.00    +0.056 S 
ATOM     10  C   UNL     1     -10.852  10.582 -15.011  0.00  0.00    +0.157 A 
ATOM     11  N   UNL     1     -10.038  10.131 -15.966  0.00  0.00    -0.118 NA
ENDBRANCH   5   6
BRANCH   2   1
ATOM      1  C   UNL     1     -11.408  16.206 -18.705  0.00  0.00    +0.419 C 
ATOM     14  F   UNL     1     -10.460  17.111 -18.421  0.00  0.00    -0.166 F 
ATOM     15  F   UNL     1     -12.566  16.886 -18.731  0.00  0.00    -0.166 F 
ATOM     16  F   UNL     1     -11.183  15.817 -19.966  0.00  0.00    -0.166 F 
ENDBRANCH   2   1
TORSDOF 2
