REMARK  Name = 6FW
REMARK  4 active torsions:
REMARK  status: ('A' for Active; 'I' for Inactive)
REMARK    1  A    between atoms: C17_4  and  S18_24
REMARK    2  A    between atoms: C05_15  and  N07_17
REMARK    3  A    between atoms: S18_24  and  C19_25
REMARK    4  A    between atoms: S18_38  and  C19_39
REMARK                            x       y       z     vdW  Elec       q    Type
REMARK                         _______ _______ _______ _____ _____    ______ ____
ROOT
ATOM      1  C   UNL     1     -20.361   4.805   2.408  0.00  0.00    +0.262 C 
ATOM      2  C   UNL     1     -19.707   3.592   2.968  0.00  0.00    +0.184 C 
ATOM      3  C   UNL     1     -20.359   2.849   3.927  0.00  0.00    +0.164 C 
ATOM      4  N   UNL     1     -21.640   3.217   4.420  0.00  0.00    -0.165 NA
ATOM      5  C   UNL     1     -22.258   4.355   3.890  0.00  0.00    +0.264 C 
ATOM      6  N   UNL     1     -23.511   4.753   4.349  0.00  0.00    -0.089 NA
ATOM      7  N   UNL     1     -19.578   1.815   4.291  0.00  0.00    -0.212 NA
ATOM     20  C   UNL     1     -18.473   1.934   3.521  0.00  0.00    +0.190 C 
ATOM     29  N   UNL     1     -18.516   3.018   2.710  0.00  0.00    -0.183 NA
ATOM     30  N   UNL     1     -21.614   5.111   2.896  0.00  0.00    -0.170 NA
ATOM     31  O   UNL     1     -19.866   5.507   1.538  0.00  0.00    -0.272 OA
ENDROOT
BRANCH   7   8
ATOM      8  C   UNL     1     -19.810   0.884   5.138  0.00  0.00    +0.212 C 
ATOM      9  C   UNL     1     -20.207   1.268   6.686  0.00  0.00    +0.224 C 
ATOM     10  O   UNL     1     -19.340   0.455   7.516  0.00  0.00    -0.216 OA
ATOM     11  C   UNL     1     -21.456   0.963   6.883  0.00  0.00    +0.185 C 
ATOM     12  O   UNL     1     -22.003   0.632   8.156  0.00  0.00    -0.311 OA
ATOM     13  P   UNL     1     -23.589   0.187   8.183  0.00  0.00    +0.214 P 
ATOM     14  O   UNL     1     -23.910  -0.374   9.561  0.00  0.00    -0.437 OA
ATOM     15  O   UNL     1     -24.499   1.280   7.726  0.00  0.00    -0.517 OA
ATOM     16  O   UNL     1     -23.734  -1.071   7.044  0.00  0.00    -0.311 OA
ATOM     17  C   UNL     1     -23.154  -0.728   5.666  0.00  0.00    +0.181 C 
ATOM     18  C   UNL     1     -21.699  -0.357   5.781  0.00  0.00    +0.177 C 
ATOM     19  O   UNL     1     -21.120   0.040   4.710  0.00  0.00    -0.335 OA
ENDBRANCH   7   8
BRANCH  20  21
ATOM     21  S   UNL     1     -17.049   0.941   3.650  0.00  0.00    -0.080 S 
BRANCH  21  22
ATOM     22  C   UNL     1     -16.526   1.697   5.198  0.00  0.00    +0.028 A 
ATOM     23  C   UNL     1     -16.466   0.951   6.356  0.00  0.00    +0.007 A 
ATOM     24  C   UNL     1     -16.130   1.517   7.576  0.00  0.00    +0.012 A 
ATOM     25  C   UNL     1     -15.865   2.877   7.633  0.00  0.00    +0.058 A 
ATOM     26 CL   UNL     1     -15.515   3.655   9.150  0.00  0.00    -0.082 Cl
ATOM     27  C   UNL     1     -15.914   3.649   6.477  0.00  0.00    +0.012 A 
ATOM     28  C   UNL     1     -16.248   3.053   5.273  0.00  0.00    +0.007 A 
ENDBRANCH  21  22
ENDBRANCH  20  21
TORSDOF 3
