REMARK  Name = 5DT0
REMARK  4 active torsions:
REMARK  status: ('A' for Active; 'I' for Inactive)
REMARK    1  A    between atoms: S_1  and  N_14
REMARK    2  A    between atoms: S_1  and  C_17
REMARK    3  A    between atoms: C_10  and  N_11
REMARK    4  A    between atoms: C_21  and  C_22
REMARK                            x       y       z     vdW  Elec       q    Type
REMARK                         _______ _______ _______ _____ _____    ______ ____
ROOT
ATOM      7  N   UNL     1      -3.495 -32.966   7.103  0.00  0.00    -0.282 N 
ATOM      8  H   UNL     1      -3.136 -33.749   7.737  0.00  0.00    +0.155 HD
ATOM      9  C   UNL     1      -4.138 -31.944   7.740  0.00  0.00    +0.241 A 
ATOM     10  N   UNL     1      -4.938 -31.078   7.099  0.00  0.00    -0.125 NA
ATOM     11  N   UNL     1      -5.312 -30.210   8.126  0.00  0.00    -0.161 N 
ATOM     12  C   UNL     1      -6.318 -29.284   7.909  0.00  0.00    +0.287 C 
ATOM     21  O   UNL     1      -6.732 -28.579   8.812  0.00  0.00    -0.265 OA
ATOM     22  C   UNL     1      -4.975 -30.784   9.283  0.00  0.00    +0.220 A 
ATOM     23  N   UNL     1      -5.117 -30.197  10.500  0.00  0.00    -0.327 N 
ATOM     24  H   UNL     1      -5.817 -29.399  10.631  0.00  0.00    +0.145 HD
ATOM     25  H   UNL     1      -4.528 -30.533  11.328  0.00  0.00    +0.145 HD
ATOM     26  N   UNL     1      -4.098 -31.794   9.090  0.00  0.00    -0.180 NA
ENDROOT
BRANCH  12  13
ATOM     13  C   UNL     1      -6.952 -29.171   6.545  0.00  0.00    +0.112 A 
ATOM     14  C   UNL     1      -8.320 -29.430   6.377  0.00  0.00    +0.139 A 
ATOM     15  C   UNL     1      -8.874 -29.377   5.091  0.00  0.00    +0.039 A 
ATOM     16  C   UNL     1      -8.085 -29.020   3.989  0.00  0.00    +0.006 A 
ATOM     17  C   UNL     1      -6.714 -28.791   4.142  0.00  0.00    +0.039 A 
ATOM     18  F   UNL     1      -9.118 -29.756   7.426  0.00  0.00    -0.205 F 
ATOM     19  C   UNL     1      -6.172 -28.856   5.424  0.00  0.00    +0.139 A 
ATOM     20  F   UNL     1      -4.880 -28.579   5.573  0.00  0.00    -0.205 F 
ENDBRANCH  12  13
BRANCH   7   5
ATOM      2  C   UNL     1      -2.733 -33.657   3.021  0.00  0.00    +0.105 A 
ATOM      3  C   UNL     1      -3.676 -32.681   3.398  0.00  0.00    +0.030 A 
ATOM      4  C   UNL     1      -3.941 -32.438   4.751  0.00  0.00    +0.025 A 
ATOM      5  C   UNL     1      -3.245 -33.130   5.767  0.00  0.00    +0.034 A 
ATOM      6  C   UNL     1      -2.276 -34.084   5.400  0.00  0.00    +0.025 A 
ATOM     27  C   UNL     1      -2.022 -34.332   4.040  0.00  0.00    +0.030 A 
BRANCH   2   1
ATOM      1  S   UNL     1      -2.395 -33.946   1.449  0.00  0.00    +0.056 S 
ATOM     31  O   UNL     1      -2.919 -32.967   0.572  0.00  0.00    -0.153 OA
ATOM     32  O   UNL     1      -0.975 -33.891   1.316  0.00  0.00    -0.153 OA
BRANCH   1  28
ATOM     28  N   UNL     1      -2.946 -35.375   1.036  0.00  0.00    -0.203 NA
ATOM     29  H   UNL     1      -2.688 -35.577   0.017  0.00  0.00    +0.144 HD
ATOM     30  H   UNL     1      -2.512 -36.121   1.668  0.00  0.00    +0.144 HD
ENDBRANCH   1  28
ENDBRANCH   2   1
ENDBRANCH   7   5
TORSDOF 4
