REMARK  Name = 5HOR
REMARK  6 active torsions:
REMARK  status: ('A' for Active; 'I' for Inactive)
REMARK    1  A    between atoms: C_10  and  C_15
REMARK    2  A    between atoms: C_14  and  S_38
REMARK    3  A    between atoms: C_17  and  S_38
REMARK    4  A    between atoms: C_24  and  C_25
REMARK    5  A    between atoms: C_24  and  N_32
REMARK    6  A    between atoms: C_25  and  N_33
REMARK                            x       y       z     vdW  Elec       q    Type
REMARK                         _______ _______ _______ _____ _____    ______ ____
ROOT
ATOM      8  C   UNL     1      19.861 -11.071  57.326  0.00  0.00    +0.017 A 
ATOM      9  C   UNL     1      19.204 -12.027  58.059  0.00  0.00    +0.032 A 
ATOM     10  C   UNL     1      19.906 -12.579  59.102  0.00  0.00    +0.042 A 
ATOM     11  S   UNL     1      19.333 -13.787  60.178  0.00  0.00    -0.052 S 
ATOM     12  C   UNL     1      20.840 -13.739  60.994  0.00  0.00    +0.167 A 
ATOM     13  N   UNL     1      20.994 -14.584  62.074  0.00  0.00    -0.249 N 
ATOM     14  H   UNL     1      21.983 -14.832  62.399  0.00  0.00    +0.158 HD
ATOM     15  C   UNL     1      19.912 -15.122  62.752  0.00  0.00    +0.305 C 
ATOM     16  O   UNL     1      18.742 -15.086  62.395  0.00  0.00    -0.253 OA
ATOM     17  N   UNL     1      20.309 -15.739  63.912  0.00  0.00    -0.298 N 
ATOM     18  H   UNL     1      21.272 -15.521  64.325  0.00  0.00    +0.150 HD
ATOM     27  N   UNL     1      21.726 -12.896  60.509  0.00  0.00    -0.225 NA
ATOM     28  C   UNL     1      21.208 -12.221  59.428  0.00  0.00    +0.080 A 
ATOM     29  C   UNL     1      21.855 -11.252  58.675  0.00  0.00    +0.030 A 
ATOM     30  C   UNL     1      21.155 -10.697  57.627  0.00  0.00    +0.017 A 
ENDROOT
BRANCH   8   7
ATOM      7  S   UNL     1      18.949 -10.366  55.983  0.00  0.00    -0.048 S 
BRANCH   7   6
ATOM      3  C   UNL     1      16.012  -8.951  59.006  0.00  0.00    +0.092 A 
ATOM      4  N   UNL     1      16.833  -9.476  58.146  0.00  0.00    -0.163 NA
ATOM      5  N   UNL     1      17.608  -8.563  57.541  0.00  0.00    -0.187 N 
ATOM      6  C   UNL     1      18.578  -8.781  56.609  0.00  0.00    +0.217 A 
ATOM     31  N   UNL     1      19.140  -7.642  56.268  0.00  0.00    -0.120 NA
ATOM     32  N   UNL     1      18.536  -6.652  56.998  0.00  0.00    -0.127 NA
ATOM     33  C   UNL     1      17.625  -7.216  57.758  0.00  0.00    +0.179 A 
ATOM     34  C   UNL     1      16.719  -6.695  58.692  0.00  0.00    +0.052 A 
ATOM     35  C   UNL     1      15.887  -7.513  59.343  0.00  0.00    +0.034 A 
BRANCH   3   2
ATOM      1  C   UNL     1      13.881  -9.402  60.190  0.00  0.00    +0.013 A 
ATOM      2  C   UNL     1      15.134  -9.827  59.792  0.00  0.00    +0.002 A 
ATOM     36  C   UNL     1      15.632 -11.072  60.127  0.00  0.00    +0.013 A 
ATOM     37  C   UNL     1      14.859 -11.925  60.882  0.00  0.00    +0.039 A 
ATOM     38  C   UNL     1      13.605 -11.512  61.281  0.00  0.00    +0.123 A 
ATOM     39  F   UNL     1      12.854 -12.354  62.019  0.00  0.00    -0.205 F 
ATOM     40  C   UNL     1      13.112 -10.265  60.942  0.00  0.00    +0.039 A 
ENDBRANCH   3   2
ENDBRANCH   7   6
ENDBRANCH   8   7
BRANCH  17  19
ATOM     19  C   UNL     1      19.448 -16.673  64.577  0.00  0.00    +0.121 C 
BRANCH  19  20
ATOM     20  C   UNL     1      18.667 -15.958  65.643  0.00  0.00    +0.103 C 
BRANCH  20  21
ATOM     21  N   UNL     1      17.918 -16.997  66.368  0.00  0.00    -0.296 NA
ATOM     22  C   UNL     1      18.128 -16.897  67.837  0.00  0.00    +0.112 C 
ATOM     23  C   UNL     1      17.310 -17.990  68.487  0.00  0.00    +0.175 C 
ATOM     24  O   UNL     1      15.950 -17.790  68.116  0.00  0.00    -0.377 OA
ATOM     25  C   UNL     1      15.814 -18.133  66.741  0.00  0.00    +0.175 C 
ATOM     26  C   UNL     1      16.496 -17.051  65.932  0.00  0.00    +0.112 C 
ENDBRANCH  20  21
ENDBRANCH  19  20
ENDBRANCH  17  19
TORSDOF 6
