REMARK  Name = 6NYH
REMARK  4 active torsions:
REMARK  status: ('A' for Active; 'I' for Inactive)
REMARK    1  A    between atoms: C6_2  and  O31_31
REMARK    2  A    between atoms: C11_3  and  N14_14
REMARK    3  A    between atoms: C15_15  and  C17_17
REMARK    4  A    between atoms: C22_22  and  C25_25
REMARK                            x       y       z     vdW  Elec       q    Type
REMARK                         _______ _______ _______ _____ _____    ______ ____
ROOT
ATOM     11  N   UNL     1     -16.782  15.559 -36.601  0.00  0.00    -0.400 NA
ATOM     12  C   UNL     1     -16.465  14.287 -36.310  0.00  0.00    +0.600 C 
ATOM     27  O   UNL     1     -16.466  13.415 -37.164  0.00  0.00    -0.550 OA
ENDROOT
BRANCH  11  10
ATOM      1  C   UNL     1     -15.897  17.200 -41.403  0.00  0.00    +0.250 A 
ATOM      2  N   UNL     1     -16.049  16.444 -42.478  0.00  0.00    -0.760 NA
ATOM      3  C   UNL     1     -17.107  15.680 -42.673  0.00  0.00    +0.565 A 
ATOM      6  C   UNL     1     -18.120  15.624 -41.708  0.00  0.00    -0.130 A 
ATOM      7  C   UNL     1     -18.001  16.403 -40.560  0.00  0.00    +0.000 A 
ATOM      8  C   UNL     1     -19.059  16.391 -39.478  0.00  0.00    -0.100 C 
ATOM      9  C   UNL     1     -18.571  15.587 -38.258  0.00  0.00    -0.100 C 
ATOM     10  C   UNL     1     -17.116  15.947 -37.963  0.00  0.00    +0.050 C 
ATOM     28  C   UNL     1     -16.841  17.431 -38.053  0.00  0.00    +0.600 C 
ATOM     29  O   UNL     1     -16.712  18.132 -37.047  0.00  0.00    -0.550 OA
ATOM     30  N   UNL     1     -16.720  18.001 -39.261  0.00  0.00    -0.200 N 
ATOM     31  C   UNL     1     -16.446  19.447 -39.358  0.00  0.00    -0.050 C 
ATOM     32  C   UNL     1     -16.866  17.206 -40.413  0.00  0.00    +0.050 A 
BRANCH   3   4
ATOM      4  O   UNL     1     -17.193  14.932 -43.817  0.00  0.00    -0.365 OA
ATOM      5  C   UNL     1     -16.054  14.946 -44.681  0.00  0.00    +0.030 C 
ENDBRANCH   3   4
ENDBRANCH  11  10
BRANCH  12  13
ATOM     13  C   UNL     1     -16.108  13.975 -34.923  0.00  0.00    +0.200 A 
ATOM     14  N   UNL     1     -15.799  12.781 -34.475  0.00  0.00    -0.100 NA
ATOM     15  N   UNL     1     -15.534  12.897 -33.230  0.00  0.00    -0.150 N 
ATOM     16  C   UNL     1     -15.128  12.055 -32.107  0.00  0.00    +0.000 C 
ATOM     23  C   UNL     1     -15.453  12.889 -30.840  0.00  0.00    -0.100 C 
ATOM     24  C   UNL     1     -15.375  14.347 -31.379  0.00  0.00    -0.100 C 
ATOM     25  C   UNL     1     -15.683  14.187 -32.857  0.00  0.00    +0.200 A 
ATOM     26  N   UNL     1     -16.043  14.864 -33.915  0.00  0.00    -0.200 NA
BRANCH  16  17
ATOM     17  C   UNL     1     -15.882  10.747 -32.214  0.00  0.00    +0.000 A 
ATOM     18  C   UNL     1     -15.290   9.676 -32.863  0.00  0.00    -0.130 A 
ATOM     19  C   UNL     1     -15.985   8.476 -32.981  0.00  0.00    -0.130 A 
ATOM     20  C   UNL     1     -17.256   8.344 -32.436  0.00  0.00    -0.130 A 
ATOM     21  C   UNL     1     -17.852   9.420 -31.795  0.00  0.00    -0.130 A 
ATOM     22  C   UNL     1     -17.163  10.621 -31.693  0.00  0.00    -0.130 A 
ENDBRANCH  16  17
ENDBRANCH  12  13
TORSDOF 4
