REMARK  Name = 3lj3_ligand
REMARK  6 active torsions:
REMARK  status: ('A' for Active; 'I' for Inactive)
REMARK    1  A    between atoms: N2_5  and  C21_29
REMARK    2  A    between atoms: N3_8  and  C9_17
REMARK    3  A    between atoms: O3_9  and  C11_19
REMARK    4  A    between atoms: N4_11  and  C22_30
REMARK    5  A    between atoms: O4_12  and  C12_20
REMARK    6  A    between atoms: C8_16  and  C16_24
REMARK                            x       y       z     vdW  Elec       q    Type
REMARK                         _______ _______ _______ _____ _____    ______ ____
ROOT
ATOM      1  C   UNL     1      48.812  14.597  30.680  0.00  0.00    +0.016 A 
ATOM      2  C   UNL     1      47.549  14.449  31.258  0.00  0.00    +0.053 A 
ATOM      3  C   UNL     1      46.703  13.458  30.729  0.00  0.00    +0.032 A 
ATOM      4  C   UNL     1      47.196  12.700  29.664  0.00  0.00    +0.127 A 
ATOM      5  N   UNL     1      46.229  11.800  29.305  0.00  0.00    -0.256 N 
ATOM      6  C   UNL     1      46.323  10.827  28.243  0.00  0.00    +0.216 C 
ATOM      7  C   UNL     1      45.133  11.967  30.104  0.00  0.00    +0.136 A 
ATOM      8  N   UNL     1      48.403  12.803  29.076  0.00  0.00    -0.306 NA
ATOM      9  C   UNL     1      45.389  12.984  30.997  0.00  0.00    -0.017 A 
ATOM     32  C   UNL     1      49.173  13.770  29.624  0.00  0.00    +0.050 A 
ENDROOT
BRANCH   9  10
ATOM     10  C   UNL     1      44.454  13.380  31.985  0.00  0.00    +0.018 C 
ATOM     11  C   UNL     1      43.182  12.930  31.999  0.00  0.00    +0.153 C 
ATOM     12  C   UNL     1      42.128  13.265  32.990  0.00  0.00    +0.161 C 
ATOM     13  C   UNL     1      40.977  12.504  32.506  0.00  0.00    +0.080 A 
ATOM     14  C   UNL     1      39.688  12.390  32.994  0.00  0.00    +0.091 A 
ATOM     17  C   UNL     1      38.814  11.564  32.274  0.00  0.00    +0.029 A 
ATOM     18  C   UNL     1      39.240  10.885  31.106  0.00  0.00    +0.076 A 
ATOM     21  C   UNL     1      40.546  11.018  30.637  0.00  0.00    +0.033 A 
ATOM     22  C   UNL     1      41.390  11.831  31.355  0.00  0.00    +0.115 A 
ATOM     23  O   UNL     1      42.199  13.979  33.964  0.00  0.00    -0.395 OA
ATOM     24  O   UNL     1      42.696  12.066  31.033  0.00  0.00    -0.262 OA
BRANCH  14  15
ATOM     15  O   UNL     1      39.267  13.035  34.108  0.00  0.00    -0.333 OA
ATOM     16  H   UNL     1      39.991  13.552  34.470  0.00  0.00    +0.251 HD
ENDBRANCH  14  15
BRANCH  18  19
ATOM     19  O   UNL     1      38.381  10.087  30.413  0.00  0.00    -0.335 OA
ATOM     20  H   UNL     1      38.836   9.710  29.656  0.00  0.00    +0.249 HD
ENDBRANCH  18  19
ENDBRANCH   9  10
BRANCH   2  25
ATOM     25  N   UNL     1      47.171  15.278  32.325  0.00  0.00    -0.306 N 
ATOM     26  C   UNL     1      48.146  15.693  33.337  0.00  0.00    +0.111 C 
ATOM     27  C   UNL     1      48.469  17.177  33.226  0.00  0.00    -0.085 C 
ATOM     28  N   UNL     1      47.189  17.971  33.237  0.00  0.00    +0.403 NA
ATOM     29  C   UNL     1      47.449  19.451  33.289  0.00  0.00    -0.131 C 
ATOM     30  C   UNL     1      46.334  17.596  32.055  0.00  0.00    -0.085 C 
ATOM     31  C   UNL     1      45.976  16.122  32.159  0.00  0.00    +0.111 C 
ENDBRANCH   2  25
TORSDOF 4
