REMARK  Name = 5TIU
REMARK  7 active torsions:
REMARK  status: ('A' for Active; 'I' for Inactive)
REMARK    1  A    between atoms: C_1  and  C_8
REMARK    2  A    between atoms: C_4  and  C_13
REMARK    3  A    between atoms: C_6  and  N_9
REMARK    4  A    between atoms: N_9  and  C_10
REMARK    5  A    between atoms: C_10  and  C_11
REMARK    6  A    between atoms: C_11  and  N_12
REMARK    7  A    between atoms: C_11  and  C_14
REMARK                            x       y       z     vdW  Elec       q    Type
REMARK                         _______ _______ _______ _____ _____    ______ ____
ROOT
ATOM      1  C   UNL     1      -4.029   0.564 -14.652  0.00  0.00    +0.153 A 
ATOM      7  C   UNL     1      -2.719   0.669 -14.202  0.00  0.00    +0.122 A 
ATOM     17  N   UNL     1      -2.328   1.700 -13.437  0.00  0.00    -0.227 NA
ATOM     18  C   UNL     1      -3.221   2.654 -13.150  0.00  0.00    +0.138 A 
ATOM     27  C   UNL     1      -4.512   2.545 -13.620  0.00  0.00    +0.155 A 
ATOM     28  N   UNL     1      -4.940   1.524 -14.370  0.00  0.00    -0.245 NA
ENDROOT
BRANCH   7   8
ATOM      8  C   UNL     1      -1.558  -0.201 -14.412  0.00  0.00    +0.093 A 
ATOM      9  C   UNL     1      -0.311  -0.019 -13.862  0.00  0.00    +0.040 A 
ATOM     10  C   UNL     1       0.552  -1.060 -14.303  0.00  0.00    +0.002 A 
ATOM     11  C   UNL     1       1.908  -1.305 -14.090  0.00  0.00    +0.010 A 
ATOM     12  C   UNL     1       2.418  -2.442 -14.702  0.00  0.00    +0.001 A 
ATOM     13  C   UNL     1       1.635  -3.243 -15.512  0.00  0.00    +0.002 A 
ATOM     14  C   UNL     1       0.302  -2.979 -15.766  0.00  0.00    +0.028 A 
ATOM     15  C   UNL     1      -0.221  -1.872 -15.118  0.00  0.00    +0.072 A 
ATOM     16  N   UNL     1      -1.494  -1.348 -15.163  0.00  0.00    -0.245 NA
ENDBRANCH   7   8
BRANCH   1   2
ATOM      2  C   UNL     1      -4.574  -0.482 -15.550  0.00  0.00    +0.262 C 
ATOM      3  N   UNL     1      -5.914  -0.351 -15.781  0.00  0.00    -0.324 N 
ATOM      4  H   UNL     1      -6.418  -1.050 -16.415  0.00  0.00    +0.145 HD
ATOM      5  H   UNL     1      -6.459   0.450 -15.328  0.00  0.00    +0.145 HD
ATOM      6  O   UNL     1      -3.921  -1.374 -16.104  0.00  0.00    -0.269 OA
ENDBRANCH   1   2
BRANCH  18  19
ATOM     19  N   UNL     1      -2.881   3.771 -12.377  0.00  0.00    -0.326 N 
ATOM     20  H   UNL     1      -3.629   4.442 -12.010  0.00  0.00    +0.147 HD
BRANCH  19  21
ATOM     21  C   UNL     1      -1.470   3.981 -12.094  0.00  0.00    +0.121 C 
BRANCH  21  22
ATOM     22  C   UNL     1      -0.649   4.436 -13.292  0.00  0.00    +0.065 C 
ATOM     23  C   UNL     1       0.808   4.578 -12.936  0.00  0.00    +0.025 C 
BRANCH  22  24
ATOM     24  N   UNL     1      -1.073   5.812 -13.674  0.00  0.00    -0.326 NA
ATOM     25  H   UNL     1      -2.112   5.808 -13.929  0.00  0.00    +0.118 HD
ATOM     26  H   UNL     1      -0.911   6.477 -12.852  0.00  0.00    +0.118 HD
ENDBRANCH  22  24
ENDBRANCH  21  22
ENDBRANCH  19  21
ENDBRANCH  18  19
TORSDOF 6
