REMARK  Name = 62V
REMARK  1 active torsions:
REMARK  status: ('A' for Active; 'I' for Inactive)
REMARK    1  A    between atoms: CAP_7  and  CAG_8
REMARK                            x       y       z     vdW  Elec       q    Type
REMARK                         _______ _______ _______ _____ _____    ______ ____
ROOT
ATOM      1  C   UNL     1      -7.600   3.000   9.000  0.00  0.00    +0.000 C 
ENDROOT
TORSDOF 0
