REMARK  Name = 3ZEW
REMARK  5 active torsions:
REMARK  status: ('A' for Active; 'I' for Inactive)
REMARK    1  A    between atoms: C_4  and  N_34
REMARK    2  A    between atoms: C_5  and  O_32
REMARK    3  A    between atoms: C_6  and  C_7
REMARK    4  A    between atoms: O_32  and  C_33
REMARK    5  A    between atoms: N_34  and  C_35
REMARK                            x       y       z     vdW  Elec       q    Type
REMARK                         _______ _______ _______ _____ _____    ______ ____
ROOT
ATOM      1  O   UNL     1       6.391  -7.573  70.700  0.00  0.00    -0.328 OA
ATOM      2  C   UNL     1       5.827  -7.573  69.387  0.00  0.00    +0.174 C 
ATOM      3  N   UNL     1       5.374  -8.974  69.092  0.00  0.00    -0.307 N 
ATOM      4  C   UNL     1       4.347  -9.394  68.203  0.00  0.00    +0.053 A 
ATOM      5  C   UNL     1       3.520  -8.636  67.376  0.00  0.00    +0.026 A 
ATOM      6  C   UNL     1       2.638  -9.290  66.525  0.00  0.00    +0.002 A 
ATOM      7  C   UNL     1       2.569 -10.676  66.507  0.00  0.00    +0.001 A 
ATOM      8  C   UNL     1       3.389 -11.433  67.334  0.00  0.00    +0.010 A 
ATOM      9  C   UNL     1       4.303 -10.801  68.182  0.00  0.00    +0.008 A 
ATOM     10  C   UNL     1       5.370 -11.276  69.076  0.00  0.00    +0.015 A 
ATOM     11  C   UNL     1       5.902 -12.544  69.368  0.00  0.00    -0.008 A 
ATOM     12  C   UNL     1       5.506 -13.900  68.872  0.00  0.00    +0.141 C 
ATOM     13  N   UNL     1       6.470 -14.757  69.528  0.00  0.00    -0.307 N 
ATOM     14  H   UNL     1       6.482 -15.820  69.411  0.00  0.00    +0.149 HD
ATOM     15  C   UNL     1       7.349 -14.093  70.298  0.00  0.00    +0.245 C 
ATOM     16  O   UNL     1       8.191 -14.634  71.008  0.00  0.00    -0.270 OA
ATOM     17  C   UNL     1       7.028 -12.657  70.177  0.00  0.00    +0.052 A 
ATOM     18  C   UNL     1       7.697 -11.542  70.714  0.00  0.00    +0.022 A 
ATOM     19  C   UNL     1       8.901 -11.325  71.508  0.00  0.00    +0.009 A 
ATOM     20  C   UNL     1       9.835 -12.164  72.118  0.00  0.00    +0.010 A 
ATOM     21  C   UNL     1      10.855 -11.623  72.889  0.00  0.00    +0.001 A 
ATOM     22  C   UNL     1      10.970 -10.250  73.046  0.00  0.00    +0.002 A 
ATOM     23  C   UNL     1      10.066  -9.390  72.434  0.00  0.00    +0.026 A 
ATOM     24  C   UNL     1       9.031  -9.936  71.674  0.00  0.00    +0.052 A 
ATOM     25  N   UNL     1       7.968  -9.301  71.014  0.00  0.00    -0.312 N 
ATOM     26  C   UNL     1       7.164 -10.263  70.435  0.00  0.00    +0.077 A 
ATOM     27  C   UNL     1       6.000 -10.131  69.613  0.00  0.00    +0.077 A 
ATOM     28  C   UNL     1       4.647  -6.644  69.596  0.00  0.00    +0.069 C 
ATOM     29  C   UNL     1       6.813  -6.993  68.345  0.00  0.00    +0.187 C 
ATOM     32  C   UNL     1       7.924  -6.186  69.015  0.00  0.00    +0.091 C 
ATOM     36  C   UNL     1       8.677  -7.106  69.982  0.00  0.00    +0.076 C 
ATOM     37  C   UNL     1       7.763  -7.821  70.946  0.00  0.00    +0.224 C 
ENDROOT
BRANCH  32  33
ATOM     33  N   UNL     1       8.799  -5.522  68.004  0.00  0.00    -0.314 NA
ATOM     34  H   UNL     1       8.179  -5.135  67.223  0.00  0.00    +0.122 HD
ATOM     35  C   UNL     1       9.597  -4.422  68.548  0.00  0.00    +0.101 C 
ENDBRANCH  32  33
BRANCH  29  30
ATOM     30  O   UNL     1       7.377  -8.069  67.594  0.00  0.00    -0.374 OA
ATOM     31  C   UNL     1       6.987  -8.120  66.227  0.00  0.00    +0.194 C 
ENDBRANCH  29  30
TORSDOF 2
