REMARK  Name = 4ez3_ligand
REMARK  5 active torsions:
REMARK  status: ('A' for Active; 'I' for Inactive)
REMARK    1  A    between atoms: O01_1  and  C02_2
REMARK    2  A    between atoms: C08_8  and  N09_9
REMARK    3  A    between atoms: N10_10  and  C11_11
REMARK    4  A    between atoms: C14_14  and  S15_15
REMARK    5  A    between atoms: S15_15  and  N17_17
REMARK                            x       y       z     vdW  Elec       q    Type
REMARK                         _______ _______ _______ _____ _____    ______ ____
ROOT
ATOM      5  N   UNL     1      -1.669  -6.676  27.885  0.00  0.00    -0.210 NA
ATOM      6  N   UNL     1      -2.579  -6.635  28.702  0.00  0.00    -0.222 NA
ENDROOT
BRANCH   5   4
ATOM      3  C   UNL     1      -0.836  -4.298  28.194  0.00  0.00    +0.280 A 
ATOM      4  C   UNL     1      -0.771  -5.585  27.576  0.00  0.00    +0.140 A 
ATOM     19  C   UNL     1       0.218  -5.834  26.587  0.00  0.00    +0.015 A 
ATOM     20  C   UNL     1       1.099  -4.810  26.248  0.00  0.00    +0.020 A 
ATOM     21  C   UNL     1       0.985  -3.570  26.874  0.00  0.00    +0.204 A 
ATOM     22  O   UNL     1       1.832  -2.569  26.541  0.00  0.00    -0.412 OA
ATOM     23  N   UNL     1       0.016  -3.349  27.825  0.00  0.00    -0.172 N 
ATOM     24  H   UNL     1      -0.049  -2.447  28.251  0.00  0.00    +0.266 HD
BRANCH   3   1
ATOM      1  O   UNL     1      -1.676  -4.023  29.048  0.00  0.00    -0.264 OA
ATOM      2  H   UNL     1      -2.216  -4.786  29.217  0.00  0.00    +0.275 HD
ENDBRANCH   3   1
ENDBRANCH   5   4
BRANCH   6   7
ATOM      7  C   UNL     1      -3.641  -7.640  28.573  0.00  0.00    +0.048 A 
ATOM      8  C   UNL     1      -4.714  -7.651  29.499  0.00  0.00    +0.020 A 
ATOM      9  C   UNL     1      -5.682  -8.597  29.365  0.00  0.00    +0.028 A 
ATOM     10  C   UNL     1      -5.592  -9.532  28.328  0.00  0.00    +0.106 A 
ATOM     17  C   UNL     1      -4.512  -9.516  27.398  0.00  0.00    +0.028 A 
ATOM     18  C   UNL     1      -3.557  -8.579  27.518  0.00  0.00    +0.020 A 
BRANCH  10  11
ATOM     11  S   UNL     1      -6.865 -10.748  28.175  0.00  0.00    +0.065 S 
ATOM     12  O   UNL     1      -7.945 -10.157  27.337  0.00  0.00    -0.151 OA
ATOM     16  O   UNL     1      -6.472 -11.871  27.368  0.00  0.00    -0.151 OA
BRANCH  11  13
ATOM     13  N   UNL     1      -7.332 -11.220  29.636  0.00  0.00    -0.261 NA
ATOM     14  H   UNL     1      -6.905 -10.825  30.449  0.00  0.00    +0.164 HD
ATOM     15  H   UNL     1      -8.050 -11.909  29.733  0.00  0.00    +0.164 HD
ENDBRANCH  11  13
ENDBRANCH  10  11
ENDBRANCH   6   7
TORSDOF 5
