REMARK  Name = 4OT5
REMARK  11 active torsions:
REMARK  status: ('A' for Active; 'I' for Inactive)
REMARK    1  A    between atoms: C_2  and  C_3
REMARK    2  A    between atoms: C_6  and  C_7
REMARK    3  A    between atoms: C_7  and  C_8
REMARK    4  A    between atoms: C_7  and  C_9
REMARK    5  A    between atoms: C_7  and  C_10
REMARK    6  A    between atoms: N_13  and  C_14
REMARK    7  A    between atoms: C_19  and  C_20
REMARK    8  A    between atoms: C_28  and  N_29
REMARK    9  A    between atoms: N_29  and  C_30
REMARK   10  A    between atoms: C_33  and  C_36
REMARK   11  A    between atoms: N_41  and  C_42
REMARK                            x       y       z     vdW  Elec       q    Type
REMARK                         _______ _______ _______ _____ _____    ______ ____
ROOT
ATOM     10  C   UNL     1      24.334   5.948   2.760  0.00  0.00    +0.090 A 
ATOM     11  C   UNL     1      23.162   5.817   3.464  0.00  0.00    +0.121 A 
ATOM     12  N   UNL     1      21.984   5.444   2.806  0.00  0.00    -0.302 N 
ATOM     13  C   UNL     1      20.707   5.232   3.261  0.00  0.00    +0.112 A 
ATOM     14  C   UNL     1      19.950   4.868   2.168  0.00  0.00    +0.131 A 
ATOM     15  N   UNL     1      20.758   4.899   1.047  0.00  0.00    -0.233 NA
ATOM     16  C   UNL     1      22.017   5.257   1.442  0.00  0.00    +0.178 A 
ATOM     17  C   UNL     1      23.203   5.428   0.743  0.00  0.00    +0.167 A 
ATOM     35  N   UNL     1      24.341   5.796   1.365  0.00  0.00    -0.227 NA
ENDROOT
BRANCH  10   9
ATOM      5  C   UNL     1      26.749   7.630   5.133  0.00  0.00    +0.034 A 
ATOM      6  C   UNL     1      27.989   7.261   4.597  0.00  0.00    +0.023 A 
ATOM      7  C   UNL     1      27.976   6.435   3.448  0.00  0.00    +0.002 A 
ATOM      8  C   UNL     1      26.789   5.982   2.863  0.00  0.00    +0.010 A 
ATOM      9  C   UNL     1      25.573   6.384   3.406  0.00  0.00    +0.004 A 
ATOM     36  C   UNL     1      25.534   7.188   4.560  0.00  0.00    +0.033 A 
BRANCH   5   3
ATOM      1  O   UNL     1      25.921   6.922   7.709  0.00  0.00    -0.270 OA
ATOM      2  C   UNL     1      26.225   8.099   7.435  0.00  0.00    +0.248 C 
ATOM      3  N   UNL     1      26.652   8.487   6.218  0.00  0.00    -0.281 N 
ATOM      4  H   UNL     1      26.931   9.511   6.082  0.00  0.00    +0.155 HD
BRANCH   2  37
ATOM     37  C   UNL     1      26.044   9.169   8.477  0.00  0.00    +0.037 A 
ATOM     38  C   UNL     1      25.990   8.873   9.805  0.00  0.00    +0.013 A 
ATOM     39  C   UNL     1      25.805   9.868  10.786  0.00  0.00    +0.005 A 
ATOM     40  C   UNL     1      25.584  11.212  10.415  0.00  0.00    -0.042 A 
ATOM     45  C   UNL     1      25.618  11.543   9.043  0.00  0.00    +0.005 A 
ATOM     46  C   UNL     1      25.825  10.517   8.082  0.00  0.00    +0.013 A 
BRANCH  40  41
ATOM     41  C   UNL     1      25.423  12.264  11.484  0.00  0.00    -0.013 C 
ATOM     42  C   UNL     1      26.760  13.029  11.639  0.00  0.00    +0.015 C 
ATOM     43  C   UNL     1      24.378  13.302  11.077  0.00  0.00    +0.015 C 
ATOM     44  C   UNL     1      25.077  11.690  12.845  0.00  0.00    +0.015 C 
ENDBRANCH  40  41
ENDBRANCH   2  37
ENDBRANCH   5   3
ENDBRANCH  10   9
BRANCH  17  18
ATOM     18  N   UNL     1      23.155   5.239  -0.631  0.00  0.00    -0.296 N 
ATOM     19  H   UNL     1      22.186   5.010  -1.022  0.00  0.00    +0.154 HD
BRANCH  18  20
ATOM     20  C   UNL     1      24.156   5.300  -1.565  0.00  0.00    +0.033 A 
ATOM     21  C   UNL     1      23.775   4.937  -2.873  0.00  0.00    +0.024 A 
ATOM     22  C   UNL     1      24.706   5.012  -3.922  0.00  0.00    +0.015 A 
ATOM     23  C   UNL     1      26.042   5.421  -3.663  0.00  0.00    +0.037 A 
ATOM     33  C   UNL     1      26.408   5.785  -2.327  0.00  0.00    +0.015 A 
ATOM     34  C   UNL     1      25.451   5.712  -1.289  0.00  0.00    +0.024 A 
BRANCH  23  24
ATOM     24  C   UNL     1      27.029   5.521  -4.799  0.00  0.00    +0.247 C 
ATOM     25  N   UNL     1      26.812   6.219  -5.920  0.00  0.00    -0.295 N 
ATOM     26  C   UNL     1      27.884   6.230  -6.957  0.00  0.00    +0.123 C 
ATOM     27  C   UNL     1      27.259   6.260  -8.331  0.00  0.00    +0.103 C 
ATOM     28  N   UNL     1      26.293   7.364  -8.475  0.00  0.00    -0.302 NA
ATOM     29  C   UNL     1      26.965   8.684  -8.754  0.00  0.00    +0.105 C 
ATOM     30  C   UNL     1      25.177   7.332  -7.500  0.00  0.00    +0.103 C 
ATOM     31  C   UNL     1      25.643   7.106  -6.081  0.00  0.00    +0.123 C 
ATOM     32  O   UNL     1      28.030   4.885  -4.677  0.00  0.00    -0.270 OA
ENDBRANCH  23  24
ENDBRANCH  18  20
ENDBRANCH  17  18
TORSDOF 7
