REMARK  Name = 4erw_ligand
REMARK  6 active torsions:
REMARK  status: ('A' for Active; 'I' for Inactive)
REMARK    1  A    between atoms: C23_4  and  N4_34
REMARK    2  A    between atoms: C22_5  and  O6_32
REMARK    3  A    between atoms: C21_6  and  C26_7
REMARK    4  A    between atoms: C8_23  and  O5_24
REMARK    5  A    between atoms: O6_32  and  C27_33
REMARK    6  A    between atoms: N4_34  and  C28_35
REMARK                            x       y       z     vdW  Elec       q    Type
REMARK                         _______ _______ _______ _____ _____    ______ ____
ROOT
ATOM      1  O   UNL     1       0.109 -10.395  27.079  0.00  0.00    -0.315 OA
ATOM      2  C   UNL     1       0.695  -9.782  25.975  0.00  0.00    +0.200 C 
ATOM      3  N   UNL     1       1.158  -8.335  26.181  0.00  0.00    -0.236 N 
ATOM      4  C   UNL     1       2.335  -7.606  25.651  0.00  0.00    +0.066 A 
ATOM      5  C   UNL     1       3.458  -7.958  24.830  0.00  0.00    +0.012 A 
ATOM      6  C   UNL     1       4.430  -7.017  24.515  0.00  0.00    -0.018 A 
ATOM      7  C   UNL     1       4.321  -5.697  24.976  0.00  0.00    -0.025 A 
ATOM      8  C   UNL     1       3.216  -5.327  25.781  0.00  0.00    -0.014 A 
ATOM      9  C   UNL     1       2.251  -6.278  26.104  0.00  0.00    -0.012 A 
ATOM     10  C   UNL     1       1.005  -6.167  26.922  0.00  0.00    -0.010 A 
ATOM     11  C   UNL     1       0.368  -5.060  27.666  0.00  0.00    -0.007 A 
ATOM     12  C   UNL     1       0.719  -3.671  27.868  0.00  0.00    +0.181 C 
ATOM     13  N   UNL     1      -0.239  -3.107  28.635  0.00  0.00    +0.267 N 
ATOM     14  H   UNL     1       0.181  -2.742  29.476  0.00  0.00    +0.206 HD
ATOM     15  H   UNL     1      -0.674  -2.356  28.123  0.00  0.00    +0.206 HD
ATOM     16  C   UNL     1      -1.171  -4.015  28.965  0.00  0.00    +0.236 C 
ATOM     19  C   UNL     1      -0.815  -5.283  28.351  0.00  0.00    +0.021 A 
ATOM     20  C   UNL     1      -1.445  -6.636  28.329  0.00  0.00    -0.008 A 
ATOM     21  C   UNL     1      -2.721  -7.257  28.942  0.00  0.00    -0.011 A 
ATOM     22  C   UNL     1      -3.750  -6.733  29.753  0.00  0.00    -0.014 A 
ATOM     23  C   UNL     1      -4.829  -7.578  30.171  0.00  0.00    -0.025 A 
ATOM     24  C   UNL     1      -4.864  -8.954  29.777  0.00  0.00    -0.018 A 
ATOM     25  C   UNL     1      -3.831  -9.488  28.959  0.00  0.00    +0.012 A 
ATOM     26  C   UNL     1      -2.760  -8.643  28.539  0.00  0.00    +0.066 A 
ATOM     27  N   UNL     1      -1.571  -8.853  27.720  0.00  0.00    -0.240 N 
ATOM     28  C   UNL     1      -0.787  -7.699  27.590  0.00  0.00    +0.086 A 
ATOM     29  C   UNL     1       0.402  -7.487  26.914  0.00  0.00    +0.086 A 
ATOM     30  C   UNL     1       1.840 -10.738  25.671  0.00  0.00    +0.079 C 
ATOM     31  C   UNL     1      -0.264  -9.769  24.704  0.00  0.00    +0.226 C 
ATOM     34  C   UNL     1      -1.257 -10.875  24.853  0.00  0.00    +0.102 C 
ATOM     39  C   UNL     1      -2.175 -10.523  25.956  0.00  0.00    +0.120 C 
ATOM     40  C   UNL     1      -1.338 -10.187  27.206  0.00  0.00    +0.260 C 
ENDROOT
BRANCH  34  35
ATOM     35  N   UNL     1      -2.048 -11.039  23.632  0.00  0.00    +0.229 N 
ATOM     36  H   UNL     1      -2.764 -10.330  23.604  0.00  0.00    +0.201 HD
ATOM     37  H   UNL     1      -1.444 -10.938  22.831  0.00  0.00    +0.201 HD
ATOM     38  C   UNL     1      -2.675 -12.351  23.594  0.00  0.00    +0.189 C 
ENDBRANCH  34  35
BRANCH  16  17
ATOM     17  O   UNL     1      -2.274  -3.776  29.717  0.00  0.00    -0.344 OA
ATOM     18  H   UNL     1      -2.774  -4.579  29.807  0.00  0.00    +0.218 HD
ENDBRANCH  16  17
BRANCH  31  32
ATOM     32  O   UNL     1      -0.963  -8.549  24.581  0.00  0.00    -0.369 OA
ATOM     33  C   UNL     1      -0.572  -7.575  23.650  0.00  0.00    +0.195 C 
ENDBRANCH  31  32
TORSDOF 3
