REMARK  Name = 6QAL
REMARK  0 active torsions:
REMARK  status: ('A' for Active; 'I' for Inactive)
REMARK                            x       y       z     vdW  Elec       q    Type
REMARK                         _______ _______ _______ _____ _____    ______ ____
ROOT
ATOM      1  C   UNL     1       3.060  14.924  37.684  0.00  0.00    -0.050 C 
ATOM      2  O   UNL     1       3.593  15.883  38.567  0.00  0.00    -0.400 OA
ATOM      3  C   UNL     1       1.889  15.364  36.743  0.00  0.00    -0.100 C 
ATOM      4  S   UNL     1       1.361  13.653  36.694  0.00  0.00    +1.300 S 
ATOM      5  O   UNL     1      -0.060  13.492  36.779  0.00  0.00    -0.650 OA
ATOM      6  O   UNL     1       2.120  12.886  35.765  0.00  0.00    -0.650 OA
ATOM      7  C   UNL     1       2.163  13.789  38.286  0.00  0.00    -0.100 C 
ENDROOT
TORSDOF 0
