REMARK  Name = 4jlm_ligand
REMARK  12 active torsions:
REMARK  status: ('A' for Active; 'I' for Inactive)
REMARK    1  A    between atoms: CAJ_2  and  CAL_3
REMARK    2  A    between atoms: CAL_3  and  OAR_4
REMARK    3  A    between atoms: OAR_4  and  CAZ_5
REMARK    4  A    between atoms: CAY_7  and  OAQ_8
REMARK    5  A    between atoms: OAQ_8  and  CAB_9
REMARK    6  A    between atoms: CAW_12  and  CBC_13
REMARK    7  A    between atoms: CBB_16  and  CAK_17
REMARK    8  A    between atoms: CAK_17  and  CAA_18
REMARK    9  A    between atoms: CBA_19  and  CAM_20
REMARK   10  A    between atoms: CAM_20  and  SAS_21
REMARK   11  A    between atoms: SAS_21  and  C2_22
REMARK   12  A    between atoms: C4_28  and  NAD_29
REMARK                            x       y       z     vdW  Elec       q    Type
REMARK                         _______ _______ _______ _____ _____    ______ ____
ROOT
ATOM     10  C   UNL     1     -33.489  11.846  -3.851  0.00  0.00    +0.091 A 
ATOM     11  S   UNL     1     -33.207  12.870  -5.086  0.00  0.00    -0.015 S 
ATOM     12  C   UNL     1     -31.606  13.036  -4.761  0.00  0.00    +0.026 A 
ATOM     13  C   UNL     1     -31.298  12.269  -3.675  0.00  0.00    +0.008 A 
ATOM     30  N   UNL     1     -32.360  11.626  -3.148  0.00  0.00    -0.323 NA
ENDROOT
BRANCH  10   9
ATOM      5  C   UNL     1     -36.237   9.982  -2.393  0.00  0.00    +0.123 A 
ATOM      6  C   UNL     1     -37.318  10.602  -3.041  0.00  0.00    +0.124 A 
ATOM      7  C   UNL     1     -37.087  11.627  -3.954  0.00  0.00    +0.016 A 
ATOM      8  C   UNL     1     -35.773  12.012  -4.190  0.00  0.00    -0.014 A 
ATOM      9  C   UNL     1     -34.700  11.378  -3.564  0.00  0.00    -0.006 A 
ATOM     33  C   UNL     1     -34.901  10.348  -2.635  0.00  0.00    +0.024 A 
BRANCH   6  31
ATOM     31  O   UNL     1     -38.584  10.176  -2.742  0.00  0.00    -0.322 OA
ATOM     32  C   UNL     1     -39.613  10.969  -3.403  0.00  0.00    +0.231 C 
ENDBRANCH   6  31
BRANCH   5   4
ATOM      4  O   UNL     1     -36.560   8.991  -1.534  0.00  0.00    -0.319 OA
BRANCH   4   3
ATOM      3  C   UNL     1     -35.442   8.727  -0.687  0.00  0.00    +0.223 C 
BRANCH   3   2
ATOM      1  F   UNL     1     -34.997   7.102   0.914  0.00  0.00    -0.246 F 
ATOM      2  C   UNL     1     -35.971   7.988   0.527  0.00  0.00    +0.246 C 
ENDBRANCH   3   2
ENDBRANCH   4   3
ENDBRANCH   5   4
ENDBRANCH  10   9
BRANCH  12  28
ATOM     28  C   UNL     1     -30.703  13.903  -5.663  0.00  0.00    +0.069 C 
ATOM     29  C   UNL     1     -29.809  14.854  -4.852  0.00  0.00    +0.020 C 
ENDBRANCH  12  28
BRANCH  13  14
ATOM     14  C   UNL     1     -29.903  12.110  -3.028  0.00  0.00    +0.143 C 
BRANCH  14  15
ATOM     15  S   UNL     1     -29.063  10.460  -3.247  0.00  0.00    -0.055 S 
BRANCH  15  16
ATOM     16  C   UNL     1     -27.390  10.917  -3.599  0.00  0.00    +0.133 A 
ATOM     17  N   UNL     1     -26.504   9.953  -3.920  0.00  0.00    -0.261 NA
ATOM     18  C   UNL     1     -25.221  10.213  -4.176  0.00  0.00    +0.102 A 
ATOM     19  C   UNL     1     -24.756  11.515  -4.130  0.00  0.00    +0.063 A 
ATOM     20  C   UNL     1     -25.694  12.496  -3.822  0.00  0.00    +0.102 A 
ATOM     24  N   UNL     1     -24.417   9.202  -4.476  0.00  0.00    -0.320 N 
ATOM     25  H   UNL     1     -24.787   8.241  -4.507  0.00  0.00    +0.180 HD
ATOM     26  H   UNL     1     -23.422   9.377  -4.678  0.00  0.00    +0.180 HD
ATOM     27  N   UNL     1     -26.974  12.176  -3.539  0.00  0.00    -0.261 NA
BRANCH  20  21
ATOM     21  N   UNL     1     -25.300  13.752  -3.753  0.00  0.00    -0.320 N 
ATOM     22  H   UNL     1     -25.969  14.488  -3.483  0.00  0.00    +0.180 HD
ATOM     23  H   UNL     1     -24.323  13.998  -3.969  0.00  0.00    +0.180 HD
ENDBRANCH  20  21
ENDBRANCH  15  16
ENDBRANCH  14  15
ENDBRANCH  13  14
TORSDOF 10
