REMARK  Name = 4kip_ligand
REMARK  6 active torsions:
REMARK  status: ('A' for Active; 'I' for Inactive)
REMARK    1  A    between atoms: C1_1  and  C7_7
REMARK    2  A    between atoms: C2_2  and  N26_26
REMARK    3  A    between atoms: C4_4  and  C8_8
REMARK    4  A    between atoms: N9_9  and  C11_11
REMARK    5  A    between atoms: C14_14  and  C15_15
REMARK    6  A    between atoms: C18_18  and  C20_20
REMARK                            x       y       z     vdW  Elec       q    Type
REMARK                         _______ _______ _______ _____ _____    ______ ____
ROOT
ATOM     15  N   UNL     1      37.263   4.046  33.902  0.00  0.00    -0.236 N 
ATOM     16  H   UNL     1      37.535   5.000  33.779  0.00  0.00    +0.223 HD
ATOM     17  C   UNL     1      36.661   3.722  35.075  0.00  0.00    +0.237 C 
ATOM     18  O   UNL     1      36.281   2.582  35.352  0.00  0.00    -0.379 OA
ENDROOT
BRANCH  15  14
ATOM      1  C   UNL     1      38.866   2.711  32.603  0.00  0.00    -0.019 A 
ATOM      2  C   UNL     1      40.049   3.330  33.308  0.00  0.00    +0.079 C 
ATOM      3  C   UNL     1      39.052   1.707  31.648  0.00  0.00    -0.015 A 
ATOM      4  C   UNL     1      37.992   1.172  30.936  0.00  0.00    -0.011 A 
ATOM      5  C   UNL     1      36.695   1.638  31.145  0.00  0.00    +0.029 A 
ATOM     13  C   UNL     1      36.480   2.637  32.091  0.00  0.00    +0.025 A 
ATOM     14  C   UNL     1      37.541   3.154  32.834  0.00  0.00    +0.074 A 
BRANCH   5   6
ATOM      6  C   UNL     1      35.497   1.161  30.385  0.00  0.00    +0.197 C 
ATOM      7  O   UNL     1      34.398   1.685  30.556  0.00  0.00    -0.388 OA
ATOM      8  N   UNL     1      35.700   0.174  29.494  0.00  0.00    -0.277 N 
ATOM      9  H   UNL     1      36.636  -0.143  29.342  0.00  0.00    +0.185 HD
BRANCH   8  10
ATOM     10  C   UNL     1      34.621  -0.460  28.736  0.00  0.00    +0.143 C 
ATOM     11  C   UNL     1      34.007   0.286  27.627  0.00  0.00    +0.003 C 
ATOM     12  C   UNL     1      34.892  -0.859  27.346  0.00  0.00    +0.003 C 
ENDBRANCH   8  10
ENDBRANCH   5   6
ENDBRANCH  15  14
BRANCH  17  19
ATOM     19  C   UNL     1      36.417   4.848  36.008  0.00  0.00    +0.126 A 
ATOM     20  S   UNL     1      35.689   4.430  37.528  0.00  0.00    +0.012 S 
ATOM     21  C   UNL     1      35.735   6.109  38.001  0.00  0.00    +0.118 A 
ATOM     29  N   UNL     1      36.251   6.912  37.065  0.00  0.00    -0.298 NA
ATOM     30  C   UNL     1      36.625   6.195  35.959  0.00  0.00    +0.082 A 
BRANCH  21  22
ATOM     22  C   UNL     1      35.281   6.595  39.311  0.00  0.00    +0.038 A 
ATOM     23  C   UNL     1      33.935   6.601  39.678  0.00  0.00    +0.058 A 
ATOM     24 CL   UNL     1      32.706   6.204  38.523  0.00  0.00    -0.065 Cl
ATOM     25  C   UNL     1      33.534   6.966  40.959  0.00  0.00    +0.021 A 
ATOM     26  C   UNL     1      34.488   7.359  41.883  0.00  0.00    +0.008 A 
ATOM     27  C   UNL     1      35.823   7.384  41.535  0.00  0.00    +0.006 A 
ATOM     28  C   UNL     1      36.221   7.006  40.259  0.00  0.00    +0.022 A 
ENDBRANCH  21  22
ENDBRANCH  17  19
TORSDOF 5
