REMARK  Name = 2J9M
REMARK  0 active torsions:
REMARK  status: ('A' for Active; 'I' for Inactive)
REMARK                            x       y       z     vdW  Elec       q    Type
REMARK                         _______ _______ _______ _____ _____    ______ ____
ROOT
ATOM      1 BR   UNL     1      -1.200  30.640   8.692  0.00  0.00    -0.045 Br
ATOM      2  C   UNL     1       0.375  30.170   7.731  0.00  0.00    +0.076 A 
ATOM      3  C   UNL     1       0.850  28.864   7.723  0.00  0.00    +0.138 A 
ATOM      4  N   UNL     1       0.207  27.890   8.374  0.00  0.00    -0.328 N 
ATOM      5  H   UNL     1      -0.838  27.754   8.190  0.00  0.00    +0.147 HD
ATOM      6  C   UNL     1       0.878  26.994   9.336  0.00  0.00    +0.104 C 
ATOM      7  C   UNL     1       1.544  25.808   8.625  0.00  0.00    +0.035 C 
ATOM      8  C   UNL     1       3.040  25.792   8.942  0.00  0.00    +0.107 C 
ATOM      9  N   UNL     1       3.659  24.591   8.354  0.00  0.00    -0.190 NA
ATOM     10  H   UNL     1       3.172  23.638   8.360  0.00  0.00    +0.148 HD
ATOM     11  S   UNL     1       5.163  24.812   7.680  0.00  0.00    +0.059 S 
ATOM     12  C   UNL     1       5.106  25.966   6.397  0.00  0.00    +0.107 A 
ATOM     13  C   UNL     1       5.755  25.683   5.198  0.00  0.00    +0.029 A 
ATOM     14  C   UNL     1       5.719  26.602   4.158  0.00  0.00    +0.004 A 
ATOM     15  C   UNL     1       5.038  27.804   4.347  0.00  0.00    +0.023 A 
ATOM     16  C   UNL     1       4.373  28.098   5.547  0.00  0.00    +0.035 A 
ATOM     17  N   UNL     1       3.740  29.277   5.668  0.00  0.00    -0.283 N 
ATOM     18  H   UNL     1       4.183  30.102   5.150  0.00  0.00    +0.155 HD
ATOM     19  C   UNL     1       2.629  29.546   6.353  0.00  0.00    +0.221 A 
ATOM     20  N   UNL     1       2.177  30.804   6.362  0.00  0.00    -0.221 NA
ATOM     21  C   UNL     1       4.427  27.167   6.584  0.00  0.00    +0.052 A 
ATOM     22  O   UNL     1       6.144  25.326   8.684  0.00  0.00    -0.153 OA
ATOM     23  O   UNL     1       5.623  23.484   7.133  0.00  0.00    -0.153 OA
ATOM     24  N   UNL     1       1.963  28.592   7.021  0.00  0.00    -0.198 NA
ATOM     25  C   UNL     1       1.083  31.132   7.023  0.00  0.00    +0.133 A 
ENDROOT
TORSDOF 0
