REMARK  Name = 9OL
REMARK  2 active torsions:
REMARK  status: ('A' for Active; 'I' for Inactive)
REMARK    1  A    between atoms: C6_4  and  C12_12
REMARK    2  A    between atoms: C12_12  and  C18_18
REMARK                            x       y       z     vdW  Elec       q    Type
REMARK                         _______ _______ _______ _____ _____    ______ ____
ROOT
ATOM      1  C   UNL     1     -15.290  14.903 -18.588  0.00  0.00    -0.020 A 
ATOM      2  C   UNL     1     -14.258  15.687 -18.107  0.00  0.00    +0.014 A 
ATOM      3  C   UNL     1     -13.026  15.082 -17.697  0.00  0.00    +0.082 A 
ATOM      4  C   UNL     1     -12.926  13.717 -17.457  0.00  0.00    +0.030 A 
ATOM      5  C   UNL     1     -11.685  13.306 -16.992  0.00  0.00    +0.169 A 
ATOM      6  N   UNL     1     -11.411  11.976 -16.677  0.00  0.00    -0.107 NA
ATOM      7  N   UNL     1     -10.661  14.157 -16.805  0.00  0.00    -0.206 NA
ATOM      8  C   UNL     1     -10.887  15.436 -17.084  0.00  0.00    +0.200 A 
ATOM      9  C   UNL     1     -14.131  12.812 -17.698  0.00  0.00    +0.027 C 
ATOM     10  C   UNL     1     -14.907  12.552 -16.429  0.00  0.00    +0.005 C 
ATOM     11  C   UNL     1     -13.722  11.468 -18.246  0.00  0.00    +0.005 C 
ATOM     12  N   UNL     1     -12.032  15.959 -17.510  0.00  0.00    -0.224 NA
ATOM     13  C   UNL     1     -14.425  17.063 -17.972  0.00  0.00    +0.001 A 
ATOM     14  C   UNL     1     -15.621  17.651 -18.323  0.00  0.00    -0.000 A 
ATOM     15  C   UNL     1     -16.664  16.884 -18.808  0.00  0.00    -0.004 A 
ATOM     24  C   UNL     1     -15.085  13.422 -18.727  0.00  0.00    +0.031 C 
ATOM     25  C   UNL     1     -16.496  15.503 -18.937  0.00  0.00    -0.004 A 
ENDROOT
BRANCH  15  16
ATOM     16  C   UNL     1     -17.915  17.561 -19.137  0.00  0.00    -0.022 C 
ATOM     17  C   UNL     1     -18.666  17.934 -18.098  0.00  0.00    -0.005 C 
BRANCH  16  18
ATOM     18  C   UNL     1     -18.395  17.880 -20.505  0.00  0.00    +0.025 C 
ATOM     19  C   UNL     1     -19.753  17.309 -20.849  0.00  0.00    +0.023 C 
ATOM     20  C   UNL     1     -20.325  18.050 -22.051  0.00  0.00    +0.089 C 
ATOM     21  N   UNL     1     -19.400  18.033 -23.188  0.00  0.00    -0.218 NA
ATOM     22  C   UNL     1     -18.069  18.562 -22.862  0.00  0.00    +0.089 C 
ATOM     23  C   UNL     1     -17.418  17.884 -21.662  0.00  0.00    +0.023 C 
ENDBRANCH  16  18
ENDBRANCH  15  16
TORSDOF 2
