REMARK  Name = 1xjd_ligand
REMARK  5 active torsions:
REMARK  status: ('A' for Active; 'I' for Inactive)
REMARK    1  A    between atoms: C24_24  and  C35_35
REMARK    2  A    between atoms: C25_25  and  O33_33
REMARK    3  A    between atoms: C26_26  and  N31_31
REMARK    4  A    between atoms: N31_31  and  C32_32
REMARK    5  A    between atoms: O33_33  and  C34_34
REMARK                            x       y       z     vdW  Elec       q    Type
REMARK                         _______ _______ _______ _____ _____    ______ ____
ROOT
ATOM      1  C   UNL     1      53.280  10.398   0.573  0.00  0.00    -0.013 A 
ATOM      2  C   UNL     1      54.129   9.482   1.354  0.00  0.00    -0.007 A 
ATOM      3  C   UNL     1      55.387   9.642   1.986  0.00  0.00    +0.001 A 
ATOM      4  C   UNL     1      56.331  10.786   2.200  0.00  0.00    -0.017 A 
ATOM      5  C   UNL     1      56.206  12.205   1.700  0.00  0.00    +0.196 C 
ATOM      6  N   UNL     1      57.427  12.742   2.229  0.00  0.00    -0.279 N 
ATOM      7  H   UNL     1      57.673  13.700   2.082  0.00  0.00    +0.186 HD
ATOM      8  C   UNL     1      58.213  11.942   2.911  0.00  0.00    +0.187 C 
ATOM      9  O   UNL     1      59.277  12.216   3.424  0.00  0.00    -0.396 OA
ATOM     10  C   UNL     1      57.488  10.647   2.887  0.00  0.00    +0.032 A 
ATOM     11  C   UNL     1      57.931   9.292   3.545  0.00  0.00    -0.002 A 
ATOM     12  C   UNL     1      58.992   8.833   4.330  0.00  0.00    -0.007 A 
ATOM     13  C   UNL     1      60.241   9.426   4.840  0.00  0.00    -0.011 A 
ATOM     14  C   UNL     1      61.177   8.665   5.634  0.00  0.00    -0.023 A 
ATOM     15  C   UNL     1      60.918   7.223   5.917  0.00  0.00    -0.016 A 
ATOM     16  C   UNL     1      59.705   6.568   5.431  0.00  0.00    +0.014 A 
ATOM     17  C   UNL     1      58.755   7.365   4.590  0.00  0.00    +0.068 A 
ATOM     18  N   UNL     1      57.542   6.993   4.044  0.00  0.00    -0.238 N 
ATOM     19  C   UNL     1      57.043   5.523   3.938  0.00  0.00    +0.260 C 
ATOM     20  O   UNL     1      56.126   5.390   2.811  0.00  0.00    -0.315 OA
ATOM     21  C   UNL     1      54.759   5.875   2.756  0.00  0.00    +0.202 C 
ATOM     22  C   UNL     1      54.119   4.791   1.859  0.00  0.00    +0.079 C 
ATOM     23  C   UNL     1      53.967   5.789   4.219  0.00  0.00    +0.227 C 
ATOM     26  C   UNL     1      54.712   4.695   5.051  0.00  0.00    +0.102 C 
ATOM     31  N   UNL     1      54.678   7.380   2.283  0.00  0.00    -0.229 N 
ATOM     32  C   UNL     1      56.254   5.136   5.300  0.00  0.00    +0.120 C 
ATOM     33  C   UNL     1      56.975   8.152   3.343  0.00  0.00    +0.095 A 
ATOM     34  C   UNL     1      55.759   8.309   2.603  0.00  0.00    +0.098 A 
ATOM     35  C   UNL     1      53.682   8.044   1.472  0.00  0.00    +0.070 A 
ATOM     36  C   UNL     1      52.377   7.645   0.890  0.00  0.00    +0.013 A 
ATOM     37  C   UNL     1      51.571   8.563   0.145  0.00  0.00    -0.018 A 
ATOM     38  C   UNL     1      52.012   9.993  -0.013  0.00  0.00    -0.024 A 
ENDROOT
BRANCH  26  27
ATOM     27  N   UNL     1      54.087   4.411   6.485  0.00  0.00    +0.229 N 
ATOM     28  H   UNL     1      54.134   5.256   7.032  0.00  0.00    +0.201 HD
ATOM     29  H   UNL     1      53.123   4.138   6.370  0.00  0.00    +0.201 HD
ATOM     30  C   UNL     1      54.826   3.300   7.233  0.00  0.00    +0.189 C 
ENDBRANCH  26  27
BRANCH  23  24
ATOM     24  O   UNL     1      54.005   7.111   4.939  0.00  0.00    -0.369 OA
ATOM     25  C   UNL     1      52.783   7.836   4.894  0.00  0.00    +0.195 C 
ENDBRANCH  23  24
TORSDOF 2
