REMARK  Name = 4P4C
REMARK  5 active torsions:
REMARK  status: ('A' for Active; 'I' for Inactive)
REMARK    1  A    between atoms: C_8  and  C_10
REMARK    2  A    between atoms: C_11  and  N_12
REMARK    3  A    between atoms: N_13  and  C_18
REMARK    4  A    between atoms: C_22  and  O_24
REMARK    5  A    between atoms: O_24  and  C_25
REMARK                            x       y       z     vdW  Elec       q    Type
REMARK                         _______ _______ _______ _____ _____    ______ ____
ROOT
ATOM      1  C   UNL     1       1.371 -15.111 -18.373  0.00  0.00    +0.002 A 
ATOM      2  C   UNL     1       1.117 -15.113 -17.003  0.00  0.00    +0.030 A 
ATOM      3  C   UNL     1       1.245 -13.934 -16.276  0.00  0.00    +0.090 A 
ATOM      4  N   UNL     1       1.001 -13.929 -14.945  0.00  0.00    -0.241 NA
ATOM      5  C   UNL     1       1.150 -12.745 -14.317  0.00  0.00    +0.123 A 
ATOM      6  C   UNL     1       1.555 -11.480 -14.996  0.00  0.00    +0.167 A 
ATOM      7  N   UNL     1       1.795 -11.503 -16.327  0.00  0.00    -0.226 NA
ATOM      8  N   UNL     1       1.556 -10.522 -14.041  0.00  0.00    -0.280 N 
ATOM     17  C   UNL     1       1.282 -10.968 -12.806  0.00  0.00    +0.117 A 
ATOM     21  C   UNL     1       0.968 -12.391 -12.890  0.00  0.00    +0.103 A 
ATOM     27  C   UNL     1       1.656 -12.682 -16.987  0.00  0.00    +0.092 A 
ATOM     28  C   UNL     1       1.894 -12.737 -18.356  0.00  0.00    +0.030 A 
ATOM     29  C   UNL     1       1.751 -13.944 -19.037  0.00  0.00    +0.002 A 
ENDROOT
BRANCH   8   9
ATOM      9  C   UNL     1       1.943  -9.270 -14.275  0.00  0.00    +0.053 A 
ATOM     10  C   UNL     1       3.185  -8.868 -13.788  0.00  0.00    +0.072 A 
ATOM     11  C   UNL     1       3.704  -7.591 -13.969  0.00  0.00    +0.122 A 
ATOM     14  C   UNL     1       2.979  -6.656 -14.687  0.00  0.00    +0.046 A 
ATOM     15  C   UNL     1       1.744  -7.025 -15.197  0.00  0.00    +0.006 A 
ATOM     16  C   UNL     1       1.243  -8.312 -15.004  0.00  0.00    +0.026 A 
BRANCH  11  12
ATOM     12  O   UNL     1       4.937  -7.286 -13.445  0.00  0.00    -0.495 OA
ATOM     13  C   UNL     1       5.537  -8.168 -12.504  0.00  0.00    +0.277 C 
ENDBRANCH  11  12
ENDBRANCH   8   9
BRANCH  21  22
ATOM     22  C   UNL     1       0.573 -13.324 -11.818  0.00  0.00    +0.247 C 
ATOM     23  N   UNL     1       0.223 -14.568 -12.134  0.00  0.00    -0.325 N 
ATOM     24  H   UNL     1       0.216 -14.878 -13.158  0.00  0.00    +0.145 HD
ATOM     25  H   UNL     1      -0.052 -15.258 -11.364  0.00  0.00    +0.145 HD
ATOM     26  O   UNL     1       0.605 -12.897 -10.674  0.00  0.00    -0.270 OA
ENDBRANCH  21  22
BRANCH  17  18
ATOM     18  N   UNL     1       1.221 -10.233 -11.667  0.00  0.00    -0.344 N 
ATOM     19  H   UNL     1       1.468  -9.192 -11.688  0.00  0.00    +0.144 HD
ATOM     20  H   UNL     1       0.926 -10.694 -10.748  0.00  0.00    +0.144 HD
ENDBRANCH  17  18
TORSDOF 4
