REMARK  Name = 3i81_ligand
REMARK  4 active torsions:
REMARK  status: ('A' for Active; 'I' for Inactive)
REMARK    1  A    between atoms: C4_4  and  C7_7
REMARK    2  A    between atoms: C22_22  and  C24_24
REMARK    3  A    between atoms: C22_22  and  C27_27
REMARK    4  A    between atoms: N25_25  and  C28_28
REMARK                            x       y       z     vdW  Elec       q    Type
REMARK                         _______ _______ _______ _____ _____    ______ ____
ROOT
ATOM      1  N   UNL     1     -18.378   3.452  13.770  0.00  0.00    -0.232 NA
ATOM      2  N   UNL     1     -18.422   2.113  13.956  0.00  0.00    -0.235 N 
ATOM      3  H   UNL     1     -18.927   1.649  14.724  0.00  0.00    +0.243 HD
ATOM      4  C   UNL     1     -17.718   1.464  13.004  0.00  0.00    +0.068 A 
ATOM      8  C   UNL     1     -17.204   2.505  12.173  0.00  0.00    -0.009 A 
ATOM      9  C   UNL     1     -17.639   3.773  12.679  0.00  0.00    +0.096 A 
ATOM     10  N   UNL     1     -17.411   5.150  12.228  0.00  0.00    -0.248 N 
ATOM     11  H   UNL     1     -17.877   5.870  12.798  0.00  0.00    +0.217 HD
ATOM     12  C   UNL     1     -16.679   5.640  11.172  0.00  0.00    +0.168 A 
ATOM     13  N   UNL     1     -16.106   4.794  10.263  0.00  0.00    -0.252 NA
ATOM     14  C   UNL     1     -15.393   5.277   9.233  0.00  0.00    +0.176 A 
ATOM     15  N   UNL     1     -14.830   4.439   8.337  0.00  0.00    -0.272 N 
ATOM     16  C   UNL     1     -15.138   3.005   8.261  0.00  0.00    +0.136 C 
ATOM     17  C   UNL     1     -16.656   2.812   8.003  0.00  0.00    +0.041 C 
ATOM     29  C   UNL     1     -14.310   2.576   7.049  0.00  0.00    +0.037 C 
ATOM     30  C   UNL     1     -13.293   3.671   6.732  0.00  0.00    +0.025 C 
ATOM     31  C   UNL     1     -13.885   4.918   7.356  0.00  0.00    +0.135 C 
ATOM     32  N   UNL     1     -15.249   6.611   9.111  0.00  0.00    -0.171 NA
ATOM     33  N   UNL     1     -15.811   7.501  10.008  0.00  0.00    -0.184 N 
ATOM     34  C   UNL     1     -15.804   8.864  10.090  0.00  0.00    +0.126 A 
ATOM     35  C   UNL     1     -16.543   9.285  11.217  0.00  0.00    -0.047 A 
ATOM     36  C   UNL     1     -17.031   8.153  11.865  0.00  0.00    -0.034 A 
ATOM     37  C   UNL     1     -16.555   7.038  11.083  0.00  0.00    +0.141 A 
ENDROOT
BRANCH  16  18
ATOM     18  C   UNL     1     -14.609   2.097   9.426  0.00  0.00    +0.250 C 
ATOM     19  O   UNL     1     -15.149   1.014   9.651  0.00  0.00    -0.333 OA
ATOM     20  N   UNL     1     -13.547   2.621  10.115  0.00  0.00    -0.228 N 
ATOM     21  H   UNL     1     -13.299   3.569   9.917  0.00  0.00    +0.228 HD
BRANCH  20  22
ATOM     22  C   UNL     1     -12.802   1.970  11.041  0.00  0.00    +0.088 A 
ATOM     23  C   UNL     1     -13.430   1.187  12.013  0.00  0.00    +0.095 A 
ATOM     24  N   UNL     1     -12.705   0.526  12.952  0.00  0.00    -0.281 NA
ATOM     25  C   UNL     1     -11.333   0.618  12.963  0.00  0.00    +0.197 A 
ATOM     26  F   UNL     1     -10.570  -0.018  13.873  0.00  0.00    -0.166 F 
ATOM     27  C   UNL     1     -10.626   1.375  12.034  0.00  0.00    +0.054 A 
ATOM     28  C   UNL     1     -11.387   2.041  11.084  0.00  0.00    +0.037 A 
ENDBRANCH  20  22
ENDBRANCH  16  18
BRANCH   4   5
ATOM      5  C   UNL     1     -17.535  -0.071  12.885  0.00  0.00    +0.123 C 
ATOM      6  C   UNL     1     -17.261  -0.271  11.439  0.00  0.00    +0.006 C 
ATOM      7  C   UNL     1     -18.668  -0.166  11.912  0.00  0.00    +0.006 C 
ENDBRANCH   4   5
TORSDOF 3
