REMARK  Name = 3qkk_ligand
REMARK  15 active torsions:
REMARK  status: ('A' for Active; 'I' for Inactive)
REMARK    1  A    between atoms: C1_1  and  O16_16
REMARK    2  A    between atoms: N12_12  and  C18_18
REMARK    3  A    between atoms: C18_18  and  C19_19
REMARK    4  A    between atoms: C19_19  and  O20_20
REMARK    5  A    between atoms: C19_19  and  C21_21
REMARK    6  A    between atoms: C21_21  and  N22_22
REMARK    7  A    between atoms: N22_22  and  C23_23
REMARK    8  A    between atoms: N22_22  and  S33_33
REMARK    9  A    between atoms: C23_23  and  C24_24
REMARK   10  A    between atoms: C24_24  and  O36_36
REMARK   11  A    between atoms: C25_25  and  S33_33
REMARK   12  A    between atoms: C26_26  and  C32_32
REMARK   13  A    between atoms: C30_30  and  C31_31
REMARK   14  A    between atoms: O36_36  and  C38_38
REMARK   15  A    between atoms: C37_37  and  C38_38
REMARK                            x       y       z     vdW  Elec       q    Type
REMARK                         _______ _______ _______ _____ _____    ______ ____
ROOT
ATOM     15  C   UNL     1      29.443   1.071  13.216  0.00  0.00    +0.113 C 
ENDROOT
BRANCH  15  34
ATOM     34  O   UNL     1      28.569   0.552  12.222  0.00  0.00    -0.392 OA
ATOM     35  H   UNL     1      29.037  -0.099  11.694  0.00  0.00    +0.210 HD
ENDBRANCH  15  34
BRANCH  15  14
ATOM     14  C   UNL     1      28.699   2.116  14.068  0.00  0.00    -0.076 C 
BRANCH  14  13
ATOM      1  C   UNL     1      24.757   6.236   7.760  0.00  0.00    +0.082 A 
ATOM      4  C   UNL     1      25.947   6.829   8.247  0.00  0.00    +0.034 A 
ATOM      5  C   UNL     1      26.717   6.114   9.193  0.00  0.00    +0.053 A 
ATOM      6  C   UNL     1      27.965   6.679   9.761  0.00  0.00    +0.128 C 
ATOM      7  O   UNL     1      28.482   7.730   9.416  0.00  0.00    -0.385 OA
ATOM      8  C   UNL     1      28.706   5.821  10.780  0.00  0.00    +0.155 C 
ATOM      9  C   UNL     1      27.746   4.861  11.522  0.00  0.00    +0.088 C 
ATOM     10  C   UNL     1      26.720   5.630  12.406  0.00  0.00    +0.038 C 
ATOM     11  C   UNL     1      25.926   4.736  13.374  0.00  0.00    -0.019 C 
ATOM     12  C   UNL     1      26.865   3.776  14.162  0.00  0.00    -0.109 C 
ATOM     13  N   UNL     1      27.818   3.024  13.298  0.00  0.00    +0.407 NA
ATOM     36  C   UNL     1      28.605   3.883  12.353  0.00  0.00    -0.066 C 
ATOM     37  O   UNL     1      27.035   4.135  10.532  0.00  0.00    -0.313 OA
ATOM     38  C   UNL     1      26.297   4.826   9.613  0.00  0.00    +0.102 A 
ATOM     39  C   UNL     1      25.120   4.243   9.105  0.00  0.00    +0.019 A 
ATOM     40  C   UNL     1      24.338   4.952   8.174  0.00  0.00    +0.019 A 
BRANCH   1   2
ATOM      2  O   UNL     1      23.956   6.901   6.873  0.00  0.00    -0.339 OA
ATOM      3  H   UNL     1      23.199   6.353   6.653  0.00  0.00    +0.244 HD
ENDBRANCH   1   2
ENDBRANCH  14  13
ENDBRANCH  15  14
BRANCH  15  16
ATOM     16  C   UNL     1      29.959  -0.087  14.093  0.00  0.00    +0.154 C 
BRANCH  16  17
ATOM     17  N   UNL     1      31.124  -0.790  13.482  0.00  0.00    -0.231 NA
BRANCH  17  18
ATOM     18  S   UNL     1      32.735  -0.117  13.481  0.00  0.00    +0.066 S 
ATOM     19  O   UNL     1      33.595  -1.000  12.695  0.00  0.00    -0.152 OA
ATOM     20  O   UNL     1      33.140   0.130  14.865  0.00  0.00    -0.152 OA
BRANCH  18  21
ATOM     21  C   UNL     1      32.574   1.519  12.652  0.00  0.00    +0.110 A 
ATOM     22  C   UNL     1      32.348   1.619  11.254  0.00  0.00    -0.026 A 
ATOM     23  C   UNL     1      32.253   0.386  10.362  0.00  0.00    +0.086 C 
ATOM     24  C   UNL     1      32.216   2.883  10.649  0.00  0.00    -0.016 A 
ATOM     25  C   UNL     1      32.300   4.045  11.448  0.00  0.00    -0.017 A 
ATOM     26  C   UNL     1      32.515   3.960  12.840  0.00  0.00    -0.016 A 
ATOM     27  C   UNL     1      32.651   2.696  13.442  0.00  0.00    -0.026 A 
ATOM     28  C   UNL     1      32.865   2.634  14.949  0.00  0.00    +0.086 C 
ENDBRANCH  18  21
ENDBRANCH  17  18
BRANCH  17  29
ATOM     29  C   UNL     1      30.800  -2.024  12.711  0.00  0.00    +0.153 C 
BRANCH  29  30
ATOM     30  C   UNL     1      30.422  -3.184  13.667  0.00  0.00    +0.180 C 
BRANCH  30  31
ATOM     31  O   UNL     1      30.386  -4.405  12.941  0.00  0.00    -0.378 OA
BRANCH  31  32
ATOM     32  C   UNL     1      30.577  -5.528  13.777  0.00  0.00    +0.156 C 
ATOM     33  C   UNL     1      30.351  -6.771  12.913  0.00  0.00    +0.034 C 
ENDBRANCH  31  32
ENDBRANCH  30  31
ENDBRANCH  29  30
ENDBRANCH  17  29
ENDBRANCH  16  17
ENDBRANCH  15  16
TORSDOF 12
