REMARK  Name = 4jbp_ligand
REMARK  11 active torsions:
REMARK  status: ('A' for Active; 'I' for Inactive)
REMARK    1  A    between atoms: C40_3  and  O43_4
REMARK    2  A    between atoms: N35_7  and  C36_8
REMARK    3  A    between atoms: C36_8  and  C37_9
REMARK    4  A    between atoms: C37_9  and  O34_10
REMARK    5  A    between atoms: O34_10  and  C9_11
REMARK    6  A    between atoms: C6_16  and  C2_17
REMARK    7  A    between atoms: N44_26  and  C16_27
REMARK    8  A    between atoms: C16_27  and  C17_28
REMARK    9  A    between atoms: C17_28  and  C18_29
REMARK   10  A    between atoms: C21_34  and  N24_35
REMARK   11  A    between atoms: N26_38  and  C27_39
REMARK                            x       y       z     vdW  Elec       q    Type
REMARK                         _______ _______ _______ _____ _____    ______ ____
ROOT
ATOM     11  C   UNL     1       3.507  32.008   6.438  0.00  0.00    +0.123 A 
ATOM     12  C   UNL     1       4.399  31.002   6.297  0.00  0.00    +0.006 A 
ATOM     13  C   UNL     1       4.732  30.571   7.530  0.00  0.00    +0.061 A 
ATOM     14  C   UNL     1       5.579  29.586   8.044  0.00  0.00    +0.123 A 
ATOM     15  N   UNL     1       6.333  28.787   7.276  0.00  0.00    -0.299 N 
ATOM     16  H   UNL     1       6.323  28.913   6.254  0.00  0.00    +0.187 HD
ATOM     37  N   UNL     1       5.639  29.433   9.382  0.00  0.00    -0.271 NA
ATOM     38  C   UNL     1       4.940  30.192  10.217  0.00  0.00    +0.152 A 
ATOM     39  N   UNL     1       4.136  31.147   9.772  0.00  0.00    -0.265 NA
ATOM     40  C   UNL     1       4.022  31.344   8.457  0.00  0.00    +0.196 A 
ATOM     41  O   UNL     1       3.280  32.224   7.760  0.00  0.00    -0.236 OA
ENDROOT
BRANCH  11  10
ATOM      7  C   UNL     1       1.490  34.508   3.743  0.00  0.00    +0.093 A 
ATOM      8  C   UNL     1       1.318  34.662   5.120  0.00  0.00    +0.024 A 
ATOM      9  C   UNL     1       2.008  33.832   5.995  0.00  0.00    +0.001 A 
ATOM     10  C   UNL     1       2.849  32.826   5.514  0.00  0.00    +0.006 A 
ATOM     42  C   UNL     1       3.010  32.674   4.133  0.00  0.00    +0.001 A 
ATOM     43  C   UNL     1       2.332  33.513   3.251  0.00  0.00    +0.024 A 
BRANCH   7   6
ATOM      6  O   UNL     1       0.832  35.313   2.870  0.00  0.00    -0.311 OA
BRANCH   6   5
ATOM      5  C   UNL     1       0.052  36.378   3.502  0.00  0.00    +0.245 C 
BRANCH   5   4
ATOM      4  C   UNL     1      -0.522  37.318   2.451  0.00  0.00    +0.165 C 
BRANCH   4   2
ATOM      1  C   UNL     1       1.562  38.513   2.214  0.00  0.00    +0.134 C 
ATOM      2  N   UNL     1       0.530  37.731   1.516  0.00  0.00    +0.237 N 
ATOM      3  H   UNL     1       0.955  36.908   1.118  0.00  0.00    +0.203 HD
ATOM     44  C   UNL     1      -0.052  38.545   0.435  0.00  0.00    +0.134 C 
ATOM     45  C   UNL     1       1.018  38.817  -0.628  0.00  0.00    +0.082 C 
ATOM     46  C   UNL     1       2.222  39.547  -0.012  0.00  0.00    +0.125 C 
ATOM     49  C   UNL     1       2.708  38.814   1.254  0.00  0.00    +0.082 C 
BRANCH  46  47
ATOM     47  O   UNL     1       3.286  39.614  -0.972  0.00  0.00    -0.391 OA
ATOM     48  H   UNL     1       2.981  40.066  -1.750  0.00  0.00    +0.210 HD
ENDBRANCH  46  47
ENDBRANCH   4   2
ENDBRANCH   5   4
ENDBRANCH   6   5
ENDBRANCH   7   6
ENDBRANCH  11  10
BRANCH  15  17
ATOM     17  C   UNL     1       7.185  27.722   7.872  0.00  0.00    +0.147 C 
BRANCH  17  18
ATOM     18  C   UNL     1       8.544  28.265   8.384  0.00  0.00    +0.078 C 
BRANCH  18  19
ATOM     19  C   UNL     1       9.429  27.105   8.860  0.00  0.00    -0.056 A 
ATOM     20  C   UNL     1      10.372  26.527   8.018  0.00  0.00    -0.021 A 
ATOM     21  C   UNL     1      11.142  25.459   8.476  0.00  0.00    +0.001 A 
ATOM     22  C   UNL     1      10.988  24.955   9.774  0.00  0.00    +0.060 A 
ATOM     35  C   UNL     1      10.059  25.551  10.612  0.00  0.00    +0.001 A 
ATOM     36  C   UNL     1       9.282  26.607  10.149  0.00  0.00    -0.021 A 
BRANCH  22  23
ATOM     23  N   UNL     1      11.744  23.945  10.247  0.00  0.00    -0.218 N 
ATOM     24  H   UNL     1      12.196  24.076  11.130  0.00  0.00    +0.224 HD
ATOM     25  C   UNL     1      11.934  22.772   9.615  0.00  0.00    +0.315 C 
ATOM     26  N   UNL     1      12.755  21.900  10.222  0.00  0.00    -0.215 N 
ATOM     27  H   UNL     1      13.152  22.177  11.097  0.00  0.00    +0.226 HD
ATOM     34  O   UNL     1      11.393  22.511   8.546  0.00  0.00    -0.381 OA
BRANCH  26  28
ATOM     28  C   UNL     1      13.086  20.689   9.752  0.00  0.00    +0.067 A 
ATOM     29  C   UNL     1      12.560  20.154   8.578  0.00  0.00    +0.009 A 
ATOM     30  C   UNL     1      12.957  18.888   8.142  0.00  0.00    -0.018 A 
ATOM     31  C   UNL     1      13.887  18.147   8.871  0.00  0.00    -0.029 A 
ATOM     32  C   UNL     1      14.417  18.675  10.045  0.00  0.00    -0.018 A 
ATOM     33  C   UNL     1      14.017  19.940  10.475  0.00  0.00    +0.009 A 
ENDBRANCH  26  28
ENDBRANCH  22  23
ENDBRANCH  18  19
ENDBRANCH  17  18
ENDBRANCH  15  17
TORSDOF 11
