REMARK  Name = 3mpt_ligand
REMARK  6 active torsions:
REMARK  status: ('A' for Active; 'I' for Inactive)
REMARK    1  A    between atoms: C1_1  and  C2_2
REMARK    2  A    between atoms: C7_7  and  C8_8
REMARK    3  A    between atoms: C8_8  and  C10_10
REMARK    4  A    between atoms: C13_13  and  C15_15
REMARK    5  A    between atoms: N17_17  and  C18_18
REMARK    6  A    between atoms: C18_18  and  C19_19
REMARK                            x       y       z     vdW  Elec       q    Type
REMARK                         _______ _______ _______ _____ _____    ______ ____
ROOT
ATOM      5  C   UNL     1      42.953  31.420  31.604  0.00  0.00    +0.023 A 
ATOM      6  C   UNL     1      44.344  31.683  31.750  0.00  0.00    -0.002 A 
ATOM      7  C   UNL     1      44.519  32.963  32.250  0.00  0.00    +0.129 A 
ATOM     18  N   UNL     1      43.265  33.467  32.396  0.00  0.00    -0.271 N 
ATOM     19  H   UNL     1      43.057  34.413  32.747  0.00  0.00    +0.240 HD
ATOM     20  C   UNL     1      42.319  32.562  32.019  0.00  0.00    +0.146 A 
ENDROOT
BRANCH   7   8
ATOM      8  C   UNL     1      45.679  33.736  32.593  0.00  0.00    +0.220 C 
ATOM      9  N   UNL     1      46.852  33.054  32.492  0.00  0.00    -0.273 N 
ATOM     10  H   UNL     1      46.868  32.104  32.181  0.00  0.00    +0.187 HD
ATOM     17  O   UNL     1      45.632  34.902  32.976  0.00  0.00    -0.391 OA
BRANCH   9  11
ATOM     11  C   UNL     1      48.069  33.737  32.845  0.00  0.00    +0.235 C 
BRANCH  11  12
ATOM     12  C   UNL     1      48.853  33.969  31.643  0.00  0.00    +0.117 A 
ATOM     13  O   UNL     1      49.917  33.141  31.454  0.00  0.00    -0.267 OA
ATOM     14  C   UNL     1      50.479  33.536  30.274  0.00  0.00    +0.152 A 
ATOM     15  C   UNL     1      49.786  34.594  29.722  0.00  0.00    -0.051 A 
ATOM     16  C   UNL     1      48.723  34.871  30.612  0.00  0.00    -0.047 A 
ENDBRANCH  11  12
ENDBRANCH   9  11
ENDBRANCH   7   8
BRANCH   5   4
ATOM      4  C   UNL     1      42.263  30.240  31.138  0.00  0.00    +0.133 C 
ATOM     21  O   UNL     1      42.854  29.208  30.874  0.00  0.00    -0.386 OA
BRANCH   4   3
ATOM      1  C   UNL     1      40.654  29.261  33.296  0.00  0.00    +0.094 C 
ATOM      2  C   UNL     1      40.008  29.840  32.083  0.00  0.00    -0.028 A 
ATOM      3  C   UNL     1      40.781  30.305  31.037  0.00  0.00    +0.030 A 
ATOM     22  C   UNL     1      40.177  30.833  29.913  0.00  0.00    +0.015 A 
ATOM     23  C   UNL     1      38.797  30.895  29.854  0.00  0.00    -0.006 A 
ATOM     24  C   UNL     1      38.020  30.436  30.892  0.00  0.00    -0.001 A 
ATOM     25  C   UNL     1      38.627  29.901  32.004  0.00  0.00    +0.002 A 
ENDBRANCH   4   3
ENDBRANCH   5   4
TORSDOF 5
