REMARK  Name = 4QT1
REMARK  6 active torsions:
REMARK  status: ('A' for Active; 'I' for Inactive)
REMARK    1  A    between atoms: S_1  and  N_2
REMARK    2  A    between atoms: S_1  and  C_20
REMARK    3  A    between atoms: N_13  and  C_18
REMARK    4  A    between atoms: C_20  and  C_24
REMARK    5  A    between atoms: C_24  and  C_25
REMARK    6  A    between atoms: C_24  and  C_26
REMARK                            x       y       z     vdW  Elec       q    Type
REMARK                         _______ _______ _______ _____ _____    ______ ____
ROOT
ATOM     13  N   UNL     1       0.687 -17.474  -4.929  0.00  0.00    -0.295 N 
ATOM     14  H   UNL     1       0.876 -16.430  -4.787  0.00  0.00    +0.151 HD
ATOM     15  C   UNL     1      -0.408 -18.055  -4.394  0.00  0.00    +0.305 C 
ATOM     16  O   UNL     1      -0.533 -19.257  -4.535  0.00  0.00    -0.253 OA
ATOM     17  N   UNL     1      -1.347 -17.349  -3.708  0.00  0.00    -0.253 N 
ATOM     18  H   UNL     1      -2.166 -17.867  -3.255  0.00  0.00    +0.158 HD
ATOM     19  C   UNL     1      -1.261 -15.962  -3.585  0.00  0.00    +0.145 A 
ATOM     20  C   UNL     1      -2.380 -15.261  -3.091  0.00  0.00    +0.157 A 
ATOM     21  N   UNL     1      -2.391 -13.925  -3.002  0.00  0.00    -0.231 NA
ATOM     22  C   UNL     1      -1.310 -13.233  -3.400  0.00  0.00    +0.179 A 
ATOM     23  N   UNL     1      -1.026 -11.890  -3.425  0.00  0.00    -0.234 NA
ATOM     24  C   UNL     1       0.248 -11.728  -3.941  0.00  0.00    +0.115 A 
ATOM     25  C   UNL     1       0.826 -12.911  -4.241  0.00  0.00    +0.051 A 
ATOM     26  C   UNL     1      -0.169 -13.936  -3.910  0.00  0.00    +0.111 A 
ATOM     27  N   UNL     1      -0.179 -15.287  -3.988  0.00  0.00    -0.227 NA
ENDROOT
BRANCH  13  12
ATOM      8  N   UNL     1       3.438 -16.652  -6.202  0.00  0.00    -0.179 NA
ATOM      9  C   UNL     1       2.840 -16.210  -7.486  0.00  0.00    +0.109 C 
ATOM     10  C   UNL     1       1.350 -16.569  -7.562  0.00  0.00    +0.019 C 
ATOM     11  C   UNL     1       1.188 -18.054  -7.175  0.00  0.00    +0.025 C 
ATOM     12  C   UNL     1       1.614 -18.304  -5.710  0.00  0.00    +0.090 C 
ATOM     28  C   UNL     1       3.085 -17.925  -5.514  0.00  0.00    +0.131 C 
BRANCH   8   1
ATOM      1  S   UNL     1       4.624 -15.703  -5.522  0.00  0.00    +0.032 S 
ATOM      6  O   UNL     1       4.562 -15.984  -4.139  0.00  0.00    -0.158 OA
ATOM      7  O   UNL     1       4.327 -14.380  -5.993  0.00  0.00    -0.158 OA
BRANCH   1   2
ATOM      2  C   UNL     1       6.084 -16.468  -6.282  0.00  0.00    +0.188 C 
BRANCH   2   3
ATOM      3  C   UNL     1       7.343 -15.682  -5.930  0.00  0.00    +0.005 C 
ATOM      4  C   UNL     1       8.524 -16.282  -6.717  0.00  0.00    +0.009 C 
ATOM      5  C   UNL     1       7.619 -15.889  -4.448  0.00  0.00    +0.009 C 
ENDBRANCH   2   3
ENDBRANCH   1   2
ENDBRANCH   8   1
ENDBRANCH  13  12
TORSDOF 4
