REMARK  Name = 4FT0
REMARK  4 active torsions:
REMARK  status: ('A' for Active; 'I' for Inactive)
REMARK    1  A    between atoms: C_16  and  C_17
REMARK    2  A    between atoms: C_21  and  C_22
REMARK    3  A    between atoms: C_25  and  O_26
REMARK    4  A    between atoms: O_26  and  C_27
REMARK                            x       y       z     vdW  Elec       q    Type
REMARK                         _______ _______ _______ _____ _____    ______ ____
ROOT
ATOM      1  O   UNL     1      16.568  -1.852   9.078  0.00  0.00    -0.267 OA
ATOM      2  C   UNL     1      17.208  -2.896   9.349  0.00  0.00    +0.258 A 
ATOM      3  C   UNL     1      16.603  -4.027  10.030  0.00  0.00    +0.063 A 
ATOM      4  C   UNL     1      15.200  -4.138   9.857  0.00  0.00    +0.016 A 
ATOM      5  C   UNL     1      14.455  -5.051  10.543  0.00  0.00    +0.009 A 
ATOM      6  C   UNL     1      15.069  -5.917  11.484  0.00  0.00    -0.016 A 
ATOM     18  C   UNL     1      16.453  -5.845  11.630  0.00  0.00    +0.035 A 
ATOM     19  C   UNL     1      17.237  -4.931  10.883  0.00  0.00    +0.053 A 
ATOM     20  N   UNL     1      18.605  -5.189  10.932  0.00  0.00    -0.353 N 
ATOM     21  H   UNL     1      18.900  -5.756  11.720  0.00  0.00    +0.166 HD
ATOM     22  C   UNL     1      19.654  -4.765  10.116  0.00  0.00    +0.063 A 
ATOM     23  C   UNL     1      20.827  -5.598  10.156  0.00  0.00    +0.028 A 
ATOM     24  C   UNL     1      21.911  -5.380   9.311  0.00  0.00    +0.002 A 
ATOM     25  C   UNL     1      21.882  -4.323   8.404  0.00  0.00    +0.002 A 
ATOM     26  C   UNL     1      20.765  -3.505   8.340  0.00  0.00    +0.028 A 
ATOM     27  C   UNL     1      19.623  -3.711   9.184  0.00  0.00    +0.066 A 
ATOM     28  N   UNL     1      18.538  -2.870   8.928  0.00  0.00    -0.320 N 
ATOM     29  H   UNL     1      18.760  -2.065   8.351  0.00  0.00    +0.169 HD
ENDROOT
BRANCH   6   7
ATOM      7  C   UNL     1      14.252  -6.829  12.308  0.00  0.00    -0.014 A 
ATOM      8  C   UNL     1      14.718  -8.129  12.673  0.00  0.00    +0.009 A 
ATOM      9  C   UNL     1      13.919  -8.975  13.445  0.00  0.00    +0.014 A 
ATOM     10  C   UNL     1      12.636  -8.565  13.887  0.00  0.00    +0.039 A 
ATOM     11  C   UNL     1      12.161  -7.286  13.513  0.00  0.00    +0.130 A 
ATOM     17  C   UNL     1      12.978  -6.417  12.741  0.00  0.00    +0.054 A 
BRANCH  10  14
ATOM     14  C   UNL     1      11.874  -9.503  14.808  0.00  0.00    +0.075 C 
ATOM     15  O   UNL     1      10.654  -9.607  14.623  0.00  0.00    -0.544 OA
ATOM     16  O   UNL     1      12.550 -10.079  15.685  0.00  0.00    -0.544 OA
ENDBRANCH  10  14
BRANCH  11  12
ATOM     12  O   UNL     1      10.870  -6.892  13.896  0.00  0.00    -0.494 OA
ATOM     13  C   UNL     1      10.297  -5.740  13.296  0.00  0.00    +0.277 C 
ENDBRANCH  11  12
ENDBRANCH   6   7
TORSDOF 3
