REMARK  Name = 2zb1_ligand
REMARK  7 active torsions:
REMARK  status: ('A' for Active; 'I' for Inactive)
REMARK    1  A    between atoms: C17_2  and  C14_8
REMARK    2  A    between atoms: N3_3  and  C18_4
REMARK    3  A    between atoms: C18_4  and  C19_5
REMARK    4  A    between atoms: C11_13  and  C9_14
REMARK    5  A    between atoms: C7_15  and  C8_16
REMARK    6  A    between atoms: C4_20  and  C3_21
REMARK    7  A    between atoms: C2_25  and  C1_26
REMARK                            x       y       z     vdW  Elec       q    Type
REMARK                         _______ _______ _______ _____ _____    ______ ____
ROOT
ATOM      3  C   UNL     1      44.442  32.944  32.048  0.00  0.00    +0.048 A 
ATOM      4  C   UNL     1      43.234  33.604  32.262  0.00  0.00    +0.024 A 
ATOM      5  C   UNL     1      42.036  32.915  32.184  0.00  0.00    +0.012 A 
ATOM      6  C   UNL     1      42.000  31.566  31.869  0.00  0.00    -0.017 A 
ATOM     20  C   UNL     1      43.207  30.876  31.683  0.00  0.00    +0.012 A 
ATOM     21  C   UNL     1      44.417  31.567  31.772  0.00  0.00    +0.024 A 
ENDROOT
BRANCH   6   7
ATOM      7  C   UNL     1      40.756  30.935  31.833  0.00  0.00    -0.009 A 
ATOM      8  C   UNL     1      40.493  30.069  32.894  0.00  0.00    +0.022 A 
ATOM      9  C   UNL     1      39.291  29.386  33.007  0.00  0.00    +0.037 A 
ATOM     16  C   UNL     1      38.301  29.592  32.046  0.00  0.00    +0.013 A 
ATOM     17  C   UNL     1      38.543  30.458  30.987  0.00  0.00    +0.002 A 
ATOM     18  C   UNL     1      39.759  31.138  30.878  0.00  0.00    -0.032 A 
ATOM     19  C   UNL     1      39.951  32.067  29.718  0.00  0.00    +0.094 C 
BRANCH   9  10
ATOM     10  C   UNL     1      39.115  28.532  34.101  0.00  0.00    +0.213 A 
ATOM     11  O   UNL     1      38.099  27.840  34.374  0.00  0.00    -0.193 OA
ATOM     12  C   UNL     1      38.292  27.183  35.437  0.00  0.00    +0.196 A 
ATOM     13  C   UNL     1      37.147  26.311  35.880  0.00  0.00    +0.178 C 
ATOM     14  N   UNL     1      39.492  27.405  35.982  0.00  0.00    -0.250 NA
ATOM     15  N   UNL     1      40.038  28.315  35.072  0.00  0.00    -0.250 NA
ENDBRANCH   9  10
ENDBRANCH   6   7
BRANCH   3   2
ATOM      1  O   UNL     1      45.720  34.896  32.582  0.00  0.00    -0.386 OA
ATOM      2  C   UNL     1      45.743  33.718  32.195  0.00  0.00    +0.204 C 
ATOM     22  N   UNL     1      46.913  33.092  31.988  0.00  0.00    -0.286 N 
ATOM     23  H   UNL     1      46.931  32.132  31.709  0.00  0.00    +0.184 HD
BRANCH  22  24
ATOM     24  C   UNL     1      48.154  33.829  32.175  0.00  0.00    +0.138 C 
BRANCH  24  25
ATOM     25  C   UNL     1      49.280  33.155  31.426  0.00  0.00    +0.011 C 
ATOM     26  C   UNL     1      50.291  34.205  31.004  0.00  0.00    +0.006 C 
ATOM     27  C   UNL     1      49.278  33.672  29.993  0.00  0.00    +0.006 C 
ENDBRANCH  24  25
ENDBRANCH  22  24
ENDBRANCH   3   2
TORSDOF 5
