REMARK  Name = 3R28
REMARK  5 active torsions:
REMARK  status: ('A' for Active; 'I' for Inactive)
REMARK    1  A    between atoms: N_1  and  C_6
REMARK    2  A    between atoms: N_1  and  C_11
REMARK    3  A    between atoms: N_3  and  C_9
REMARK    4  A    between atoms: C_5  and  C_10
REMARK    5  A    between atoms: C_11  and  C_12
REMARK                            x       y       z     vdW  Elec       q    Type
REMARK                         _______ _______ _______ _____ _____    ______ ____
ROOT
ATOM     13  C   UNL     1     -65.557  -9.948  24.316  0.00  0.00    +0.041 A 
ATOM     14  C   UNL     1     -65.947  -9.547  25.627  0.00  0.00    +0.046 A 
ATOM     15  C   UNL     1     -67.228  -9.035  25.899  0.00  0.00    +0.073 A 
ATOM     16 CL   UNL     1     -67.569  -8.599  27.535  0.00  0.00    -0.081 Cl
ATOM     17  C   UNL     1     -68.192  -8.897  24.829  0.00  0.00    +0.145 A 
ATOM     18  C   UNL     1     -67.811  -9.306  23.507  0.00  0.00    +0.049 A 
ATOM     22  C   UNL     1     -66.506  -9.834  23.237  0.00  0.00    +0.059 A 
ENDROOT
BRANCH  22  23
ATOM     23  C   UNL     1     -66.188 -10.225  21.947  0.00  0.00    +0.243 C 
ATOM     24  O   UNL     1     -65.338 -11.073  21.754  0.00  0.00    -0.270 OA
ATOM     25  N   UNL     1     -66.846  -9.681  20.871  0.00  0.00    -0.325 N 
ATOM     26  H   UNL     1     -66.594  -9.989  19.878  0.00  0.00    +0.145 HD
ATOM     27  H   UNL     1     -67.611  -8.949  21.026  0.00  0.00    +0.145 HD
ENDBRANCH  22  23
BRANCH  17  19
ATOM     19  N   UNL     1     -69.378  -8.423  25.017  0.00  0.00    +0.058 N 
ATOM     20  O   UNL     1     -69.594  -7.453  25.890  0.00  0.00    -0.126 OA
ATOM     21  O   UNL     1     -70.400  -8.862  24.307  0.00  0.00    -0.126 OA
ENDBRANCH  17  19
BRANCH  13   1
ATOM      1  N   UNL     1     -64.364 -10.417  24.101  0.00  0.00    -0.339 N 
ATOM      2  H   UNL     1     -64.230 -11.108  23.296  0.00  0.00    +0.146 HD
BRANCH   1   3
ATOM      3  C   UNL     1     -63.170 -10.044  24.916  0.00  0.00    +0.137 C 
BRANCH   3   4
ATOM      4  C   UNL     1     -62.944 -11.072  26.004  0.00  0.00    -0.025 A 
ATOM      5  C   UNL     1     -63.026 -12.459  25.706  0.00  0.00    +0.046 A 
ATOM      6  C   UNL     1     -62.823 -13.420  26.731  0.00  0.00    +0.162 A 
ATOM      7  F   UNL     1     -62.905 -14.700  26.451  0.00  0.00    -0.202 F 
ATOM      8  C   UNL     1     -62.535 -13.000  28.058  0.00  0.00    +0.193 A 
ATOM      9  F   UNL     1     -62.344 -13.905  29.013  0.00  0.00    -0.200 F 
ATOM     10  C   UNL     1     -62.455 -11.613  28.360  0.00  0.00    +0.162 A 
ATOM     11  F   UNL     1     -62.195 -11.217  29.593  0.00  0.00    -0.202 F 
ATOM     12  C   UNL     1     -62.660 -10.649  27.333  0.00  0.00    +0.046 A 
ENDBRANCH   3   4
ENDBRANCH   1   3
ENDBRANCH  13   1
TORSDOF 5
