REMARK  Name = 3roc_ligand
REMARK  9 active torsions:
REMARK  status: ('A' for Active; 'I' for Inactive)
REMARK    1  A    between atoms: C1_1  and  C7_7
REMARK    2  A    between atoms: C7_7  and  O8_8
REMARK    3  A    between atoms: O8_8  and  C9_9
REMARK    4  A    between atoms: N12_12  and  C15_15
REMARK    5  A    between atoms: C16_16  and  C25_25
REMARK    6  A    between atoms: C19_19  and  C26_26
REMARK    7  A    between atoms: N28_28  and  C29_29
REMARK    8  A    between atoms: C29_29  and  C30_30
REMARK    9  A    between atoms: C30_30  and  O31_31
REMARK                            x       y       z     vdW  Elec       q    Type
REMARK                         _______ _______ _______ _____ _____    ______ ____
ROOT
ATOM      4  C   UNL     1      35.437  38.235  21.197  0.00  0.00    +0.160 A 
ATOM      5  N   UNL     1      35.347  37.242  22.029  0.00  0.00    -0.245 NA
ATOM      6  C   UNL     1      35.024  37.393  23.271  0.00  0.00    +0.316 A 
ATOM      7  N   UNL     1      34.728  38.753  23.845  0.00  0.00    -0.144 N 
ATOM     23  C   UNL     1      34.812  39.848  23.007  0.00  0.00    +0.228 A 
ATOM     24  O   UNL     1      34.591  41.035  23.356  0.00  0.00    -0.413 OA
ATOM     25  C   UNL     1      35.197  39.550  21.566  0.00  0.00    +0.125 A 
ATOM     26 CL   UNL     1      35.318  40.844  20.440  0.00  0.00    -0.107 Cl
ENDROOT
BRANCH   7   8
ATOM      8  C   UNL     1      34.365  38.834  25.237  0.00  0.00    +0.122 A 
ATOM      9  C   UNL     1      35.277  39.384  26.135  0.00  0.00    +0.045 A 
ATOM     10  C   UNL     1      34.986  39.488  27.490  0.00  0.00    +0.036 A 
ATOM     19  C   UNL     1      33.731  39.016  27.940  0.00  0.00    -0.002 A 
ATOM     20  C   UNL     1      32.808  38.462  27.065  0.00  0.00    -0.007 A 
ATOM     21  C   UNL     1      33.106  38.373  25.709  0.00  0.00    -0.006 A 
ATOM     22  C   UNL     1      31.947  37.938  24.798  0.00  0.00    +0.086 C 
BRANCH  10  11
ATOM     11  C   UNL     1      35.945  40.084  28.496  0.00  0.00    +0.198 C 
ATOM     12  N   UNL     1      35.740  39.854  29.812  0.00  0.00    -0.285 N 
ATOM     13  H   UNL     1      34.938  40.266  30.244  0.00  0.00    +0.184 HD
ATOM     18  O   UNL     1      36.881  40.791  28.107  0.00  0.00    -0.388 OA
BRANCH  12  14
ATOM     14  C   UNL     1      36.635  39.028  30.649  0.00  0.00    +0.162 C 
BRANCH  14  15
ATOM     15  C   UNL     1      36.068  37.610  30.845  0.00  0.00    +0.180 C 
BRANCH  15  16
ATOM     16  O   UNL     1      34.642  37.637  30.883  0.00  0.00    -0.393 OA
ATOM     17  H   UNL     1      34.313  36.754  31.004  0.00  0.00    +0.209 HD
ENDBRANCH  15  16
ENDBRANCH  14  15
ENDBRANCH  12  14
ENDBRANCH  10  11
ENDBRANCH   7   8
BRANCH   4   3
ATOM      3  O   UNL     1      35.781  37.951  19.907  0.00  0.00    -0.286 OA
BRANCH   3   2
ATOM      2  C   UNL     1      36.281  36.605  19.505  0.00  0.00    +0.265 C 
BRANCH   2   1
ATOM      1  C   UNL     1      36.887  36.787  18.131  0.00  0.00    +0.018 A 
ATOM     27  C   UNL     1      36.101  36.578  17.002  0.00  0.00    -0.007 A 
ATOM     28  C   UNL     1      36.631  36.787  15.740  0.00  0.00    +0.016 A 
ATOM     29  C   UNL     1      37.956  37.211  15.604  0.00  0.00    +0.123 A 
ATOM     30  F   UNL     1      38.447  37.437  14.382  0.00  0.00    -0.190 F 
ATOM     31  C   UNL     1      38.751  37.407  16.726  0.00  0.00    +0.056 A 
ATOM     32  C   UNL     1      38.220  37.192  17.986  0.00  0.00    +0.134 A 
ATOM     33  F   UNL     1      38.978  37.392  19.081  0.00  0.00    -0.190 F 
ENDBRANCH   2   1
ENDBRANCH   3   2
ENDBRANCH   4   3
TORSDOF 8
