REMARK  Name = 3vbq_ligand
REMARK  5 active torsions:
REMARK  status: ('A' for Active; 'I' for Inactive)
REMARK    1  A    between atoms: C13_2  and  C12_14
REMARK    2  A    between atoms: C21_5  and  N28_25
REMARK    3  A    between atoms: C24_7  and  N27_27
REMARK    4  A    between atoms: C07_18  and  C03_19
REMARK    5  A    between atoms: C04_24  and  N28_25
REMARK                            x       y       z     vdW  Elec       q    Type
REMARK                         _______ _______ _______ _____ _____    ______ ____
ROOT
ATOM      5  C   UNL     1     -23.575 -36.999  -1.677  0.00  0.00    +0.065 A 
ATOM      6  C   UNL     1     -23.896 -38.115  -2.463  0.00  0.00    +0.114 A 
ATOM      7  N   UNL     1     -23.887 -38.065  -3.830  0.00  0.00    -0.286 NA
ATOM      8  C   UNL     1     -23.509 -36.905  -4.546  0.00  0.00    +0.140 A 
ATOM      9  C   UNL     1     -23.181 -35.830  -3.713  0.00  0.00    +0.139 A 
ATOM     22  N   UNL     1     -23.219 -35.876  -2.355  0.00  0.00    -0.258 NA
ENDROOT
BRANCH   5   4
ATOM      1  C   UNL     1     -23.734 -36.895   2.649  0.00  0.00    +0.009 A 
ATOM      2  C   UNL     1     -23.915 -38.091   1.940  0.00  0.00    +0.003 A 
ATOM      3  C   UNL     1     -23.837 -38.135   0.524  0.00  0.00    +0.013 A 
ATOM      4  C   UNL     1     -23.576 -36.999  -0.237  0.00  0.00    +0.002 A 
ATOM     23  C   UNL     1     -23.420 -35.765   0.494  0.00  0.00    +0.020 A 
ATOM     24  C   UNL     1     -23.499 -35.717   1.879  0.00  0.00    -0.024 A 
BRANCH  24  25
ATOM     25  C   UNL     1     -23.365 -34.449   2.599  0.00  0.00    +0.031 C 
ATOM     26  C   UNL     1     -22.658 -33.337   2.096  0.00  0.00    +0.120 C 
ATOM     27  S   UNL     1     -21.856 -33.074   0.612  0.00  0.00    +0.046 S 
ATOM     28  C   UNL     1     -21.480 -31.388   1.098  0.00  0.00    +0.283 C 
ATOM     29  O   UNL     1     -20.864 -30.636   0.357  0.00  0.00    -0.370 OA
ATOM     30  N   UNL     1     -22.015 -31.044   2.290  0.00  0.00    -0.187 N 
ATOM     31  H   UNL     1     -21.956 -30.142   2.717  0.00  0.00    +0.226 HD
ATOM     32  C   UNL     1     -22.647 -32.129   2.812  0.00  0.00    +0.248 C 
ATOM     33  O   UNL     1     -23.208 -31.997   3.920  0.00  0.00    -0.373 OA
ENDBRANCH  24  25
ENDBRANCH   5   4
BRANCH   9  10
ATOM     10  N   UNL     1     -22.831 -34.709  -4.278  0.00  0.00    -0.299 N 
ATOM     11  H   UNL     1     -22.806 -34.650  -5.306  0.00  0.00    +0.183 HD
BRANCH  10  12
ATOM     12  C   UNL     1     -22.473 -33.534  -3.488  0.00  0.00    +0.095 C 
ATOM     13  C   UNL     1     -23.714 -32.623  -3.542  0.00  0.00    +0.033 C 
ATOM     14  C   UNL     1     -23.373 -31.483  -2.565  0.00  0.00    +0.056 C 
ATOM     15  C   UNL     1     -22.438 -30.629  -3.261  0.00  0.00    +0.061 C 
ATOM     20  C   UNL     1     -21.121 -31.478  -3.334  0.00  0.00    +0.056 C 
ATOM     21  C   UNL     1     -21.285 -32.799  -4.143  0.00  0.00    +0.033 C 
BRANCH  15  16
ATOM     16  N   UNL     1     -22.306 -29.390  -2.467  0.00  0.00    +0.221 N 
ATOM     17  H   UNL     1     -22.048 -29.623  -1.521  0.00  0.00    +0.200 HD
ATOM     18  H   UNL     1     -21.595 -28.804  -2.875  0.00  0.00    +0.200 HD
ATOM     19  H   UNL     1     -23.186 -28.898  -2.464  0.00  0.00    +0.200 HD
ENDBRANCH  15  16
ENDBRANCH  10  12
ENDBRANCH   9  10
TORSDOF 5
