REMARK  Name = 4FTJ
REMARK  5 active torsions:
REMARK  status: ('A' for Active; 'I' for Inactive)
REMARK    1  A    between atoms: O_1  and  C_2
REMARK    2  A    between atoms: C_5  and  N_8
REMARK    3  A    between atoms: N_8  and  C_9
REMARK    4  A    between atoms: C_9  and  C_10
REMARK    5  A    between atoms: C_15  and  C_16
REMARK                            x       y       z     vdW  Elec       q    Type
REMARK                         _______ _______ _______ _____ _____    ______ ____
ROOT
ATOM     10  C   UNL     1      20.681  -5.488  10.010  0.00  0.00    -0.033 A 
ATOM     11  C   UNL     1      20.815  -4.379   9.180  0.00  0.00    +0.005 A 
ATOM     12  C   UNL     1      19.735  -3.562   8.895  0.00  0.00    +0.010 A 
ATOM     13  C   UNL     1      18.484  -3.831   9.447  0.00  0.00    +0.006 A 
ATOM     14  C   UNL     1      17.199  -3.175   9.336  0.00  0.00    +0.097 A 
ATOM     15  N   UNL     1      16.647  -2.096   8.770  0.00  0.00    -0.173 NA
ATOM     16  N   UNL     1      15.343  -2.106   9.179  0.00  0.00    -0.276 N 
ATOM     17  H   UNL     1      14.722  -1.366   8.866  0.00  0.00    +0.189 HD
ATOM     18  C   UNL     1      15.068  -3.156   9.986  0.00  0.00    +0.073 A 
ATOM     24  C   UNL     1      16.250  -3.899  10.119  0.00  0.00    +0.010 A 
ATOM     25  C   UNL     1      16.911  -5.039  10.749  0.00  0.00    +0.075 C 
ATOM     26  C   UNL     1      18.334  -4.930  10.290  0.00  0.00    -0.033 A 
ATOM     27  C   UNL     1      19.431  -5.737  10.568  0.00  0.00    +0.009 A 
ENDROOT
BRANCH  18  19
ATOM     19  C   UNL     1      13.817  -3.373  10.636  0.00  0.00    +0.038 A 
ATOM     20  C   UNL     1      12.770  -2.518  10.623  0.00  0.00    +0.204 A 
ATOM     21  O   UNL     1      11.775  -2.961  11.440  0.00  0.00    -0.470 OA
ATOM     22  C   UNL     1      12.215  -4.146  11.971  0.00  0.00    +0.195 A 
ATOM     23  C   UNL     1      13.434  -4.431  11.516  0.00  0.00    +0.051 A 
ENDBRANCH  18  19
BRANCH  10   9
ATOM      9  C   UNL     1      21.831  -6.439  10.225  0.00  0.00    +0.116 C 
BRANCH   9   7
ATOM      7  N   UNL     1      22.432  -6.819   8.944  0.00  0.00    -0.309 NA
ATOM      8  H   UNL     1      23.190  -6.196   8.685  0.00  0.00    +0.123 HD
BRANCH   7   6
ATOM      3  C   UNL     1      25.316  -9.652   7.908  0.00  0.00    +0.115 C 
ATOM      4  C   UNL     1      24.468 -10.020   9.107  0.00  0.00    +0.033 C 
ATOM      5  C   UNL     1      23.748  -8.803   9.680  0.00  0.00    +0.021 C 
ATOM      6  C   UNL     1      22.735  -8.243   8.698  0.00  0.00    +0.054 C 
ATOM     28  C   UNL     1      23.203  -8.443   7.265  0.00  0.00    +0.021 C 
ATOM     29  C   UNL     1      24.727  -8.472   7.159  0.00  0.00    +0.033 C 
BRANCH   3   1
ATOM      1  O   UNL     1      25.447 -10.777   7.032  0.00  0.00    -0.392 OA
ATOM      2  H   UNL     1      26.371 -10.746   6.669  0.00  0.00    +0.210 HD
ENDBRANCH   3   1
ENDBRANCH   7   6
ENDBRANCH   9   7
ENDBRANCH  10   9
TORSDOF 5
