REMARK  Name = 5HO7
REMARK  5 active torsions:
REMARK  status: ('A' for Active; 'I' for Inactive)
REMARK    1  A    between atoms: C_1  and  C_7
REMARK    2  A    between atoms: C_2  and  N_4
REMARK    3  A    between atoms: C_3  and  S_10
REMARK    4  A    between atoms: C_5  and  O_14
REMARK    5  A    between atoms: C_6  and  S_10
REMARK                            x       y       z     vdW  Elec       q    Type
REMARK                         _______ _______ _______ _____ _____    ______ ____
ROOT
ATOM      1  C   UNL     1      41.006  14.935   2.995  0.00  0.00    +0.160 A 
ATOM      7  C   UNL     1      41.331  16.359   2.827  0.00  0.00    +0.160 A 
ATOM     10  N   UNL     1      42.504  16.583   3.310  0.00  0.00    -0.065 NA
ATOM     11  N   UNL     1      43.006  15.403   3.820  0.00  0.00    -0.049 N 
ATOM     12  C   UNL     1      44.219  15.343   4.392  0.00  0.00    +0.379 C 
ATOM     15  N   UNL     1      44.977  16.463   4.479  0.00  0.00    -0.292 N 
ATOM     16  H   UNL     1      45.944  16.420   4.934  0.00  0.00    +0.149 HD
ATOM     17  H   UNL     1      44.608  17.390   4.093  0.00  0.00    +0.149 HD
ATOM     18  C   UNL     1      42.103  14.391   3.637  0.00  0.00    +0.313 A 
ENDROOT
BRANCH   1   2
ATOM      2  C   UNL     1      39.804  14.193   2.584  0.00  0.00    +0.252 C 
ATOM      3  O   UNL     1      39.697  13.007   2.863  0.00  0.00    -0.270 OA
ATOM      4  N   UNL     1      38.823  14.804   1.884  0.00  0.00    -0.325 N 
ATOM      5  H   UNL     1      37.953  14.254   1.590  0.00  0.00    +0.145 HD
ATOM      6  H   UNL     1      38.916  15.838   1.623  0.00  0.00    +0.145 HD
ENDBRANCH   1   2
BRANCH  18  19
ATOM     19  N   UNL     1      42.220  13.074   4.014  0.00  0.00    -0.247 N 
ATOM     20  H   UNL     1      43.107  12.736   4.508  0.00  0.00    +0.288 HD
ATOM     21  H   UNL     1      41.424  12.387   3.813  0.00  0.00    +0.288 HD
ENDBRANCH  18  19
BRANCH   7   8
ATOM      8  S   UNL     1      40.437  17.628   2.043  0.00  0.00    -0.105 S 
ATOM      9  C   UNL     1      40.174  18.797   3.411  0.00  0.00    +0.091 C 
ENDBRANCH   7   8
BRANCH  12  13
ATOM     13  O   UNL     1      44.630  14.290   4.838  0.00  0.00    -0.464 OA
ATOM     14  H   UNL     1      43.979  13.950   5.588  0.00  0.00    +0.297 HD
ENDBRANCH  12  13
TORSDOF 4
