REMARK  Name = RAP
REMARK  6 active torsions:
REMARK  status: ('A' for Active; 'I' for Inactive)
REMARK    1  A    between atoms: C16_22  and  O7_23
REMARK    2  A    between atoms: C27_35  and  O9_36
REMARK    3  A    between atoms: C34_45  and  C35_46
REMARK    4  A    between atoms: C35_46  and  C36_47
REMARK    5  A    between atoms: C36_47  and  C37_48
REMARK    6  A    between atoms: C39_50  and  O12_51
REMARK                            x       y       z     vdW  Elec       q    Type
REMARK                         _______ _______ _______ _____ _____    ______ ____
ROOT
ATOM      1  C   UNL     1      -8.483  19.480  -3.542  0.00  0.00    +0.335 C 
ATOM      2  O   UNL     1      -7.247  19.003  -2.940  0.00  0.00    -0.451 OA
ATOM      3  C   UNL     1      -6.068  19.708  -3.274  0.00  0.00    +0.176 C 
ATOM      4  C   UNL     1      -5.224  19.675  -1.991  0.00  0.00    +0.108 C 
ATOM      5  C   UNL     1      -5.605  20.798  -1.061  0.00  0.00    +0.158 C 
ATOM      6  C   UNL     1      -4.506  21.564  -0.354  0.00  0.00    +0.079 C 
ATOM      7  C   UNL     1      -4.981  22.299   0.898  0.00  0.00    +0.013 C 
ATOM      8  C   UNL     1      -3.943  22.553  -1.363  0.00  0.00    -0.025 C 
ATOM      9  C   UNL     1      -2.767  22.378  -2.013  0.00  0.00    -0.015 C 
ATOM     10  C   UNL     1      -1.885  21.174  -1.752  0.00  0.00    +0.029 C 
ATOM     11  C   UNL     1      -2.304  23.431  -2.992  0.00  0.00    +0.204 C 
ATOM     12  C   UNL     1      -1.005  24.065  -2.532  0.00  0.00    +0.206 C 
ATOM     13  C   UNL     1      -1.160  25.064  -1.398  0.00  0.00    +0.180 C 
ATOM     14  C   UNL     1      -1.256  24.602   0.046  0.00  0.00    +0.060 C 
ATOM     15  C   UNL     1      -2.089  25.563   0.902  0.00  0.00    +0.008 C 
ATOM     16  C   UNL     1       0.175  24.446   0.586  0.00  0.00    +0.012 C 
ATOM     17  C   UNL     1       0.301  23.505   1.802  0.00  0.00    +0.022 C 
ATOM     18  C   UNL     1       1.774  23.468   2.200  0.00  0.00    +0.005 C 
ATOM     19  C   UNL     1      -0.160  22.093   1.499  0.00  0.00    -0.026 C 
ATOM     20  C   UNL     1      -1.210  21.539   2.116  0.00  0.00    -0.005 C 
ATOM     21  C   UNL     1      -1.669  20.181   1.806  0.00  0.00    -0.000 C 
ATOM     22  C   UNL     1      -2.842  19.761   2.299  0.00  0.00    -0.001 C 
ATOM     23  C   UNL     1      -3.354  18.419   2.000  0.00  0.00    -0.006 C 
ATOM     24  C   UNL     1      -4.506  17.888   2.511  0.00  0.00    -0.017 C 
ATOM     25  C   UNL     1      -5.453  18.635   3.455  0.00  0.00    +0.029 C 
ATOM     26  C   UNL     1      -4.883  16.495   2.063  0.00  0.00    +0.136 C 
ATOM     29  C   UNL     1      -6.072  16.643   1.122  0.00  0.00    +0.063 C 
ATOM     30  C   UNL     1      -6.289  15.405   0.261  0.00  0.00    +0.121 C 
ATOM     31  O   UNL     1      -7.565  15.643  -0.344  0.00  0.00    -0.329 OA
ATOM     32  C   UNL     1      -8.061  14.713  -1.317  0.00  0.00    +0.279 C 
ATOM     33  O   UNL     1      -8.244  13.405  -0.764  0.00  0.00    -0.187 OA
ATOM     34  C   UNL     1      -9.419  15.256  -1.746  0.00  0.00    +0.279 C 
ATOM     35  O   UNL     1     -10.437  14.763  -1.314  0.00  0.00    -0.281 OA
ATOM     36  C   UNL     1      -9.569  16.352  -2.700  0.00  0.00    +0.289 C 
ATOM     37  N   UNL     1      -9.522  17.630  -2.286  0.00  0.00    -0.265 N 
ATOM     38  C   UNL     1      -9.225  18.117  -0.908  0.00  0.00    +0.094 C 
ATOM     39  C   UNL     1     -10.389  18.972  -0.386  0.00  0.00    +0.022 C 
ATOM     40  C   UNL     1     -10.663  20.121  -1.364  0.00  0.00    +0.004 C 
ATOM     41  C   UNL     1     -10.893  19.603  -2.792  0.00  0.00    +0.031 C 
ATOM     42  O   UNL     1      -9.746  16.028  -3.854  0.00  0.00    -0.267 OA
ATOM     43  C   UNL     1      -7.049  14.584  -2.469  0.00  0.00    +0.062 C 
ATOM     44  C   UNL     1      -5.664  14.245  -1.900  0.00  0.00    +0.008 C 
ATOM     45  C   UNL     1      -7.512  13.534  -3.492  0.00  0.00    +0.006 C 
ATOM     46  C   UNL     1      -5.225  15.244  -0.825  0.00  0.00    +0.030 C 
ATOM     47  O   UNL     1      -1.144  26.258  -1.639  0.00  0.00    -0.293 OA
ATOM     50  O   UNL     1      -3.261  24.476  -3.219  0.00  0.00    -0.216 OA
ATOM     51  O   UNL     1      -6.776  21.095  -0.936  0.00  0.00    -0.296 OA
ATOM     64  C   UNL     1      -9.751  18.706  -3.284  0.00  0.00    +0.175 C 
ATOM     65  O   UNL     1      -8.463  20.475  -4.250  0.00  0.00    -0.248 OA
ENDROOT
BRANCH  26  27
ATOM     27  O   UNL     1      -5.216  15.603   3.133  0.00  0.00    -0.349 OA
ATOM     28  C   UNL     1      -4.041  15.167   3.812  0.00  0.00    +0.174 C 
ENDBRANCH  26  27
BRANCH  12  48
ATOM     48  O   UNL     1      -0.439  24.650  -3.704  0.00  0.00    -0.343 OA
ATOM     49  C   UNL     1       0.960  24.943  -3.641  0.00  0.00    +0.175 C 
ENDBRANCH  12  48
BRANCH   3  52
ATOM     52  C   UNL     1      -5.419  19.002  -4.475  0.00  0.00    +0.041 C 
ATOM     53  C   UNL     1      -4.983  17.576  -4.126  0.00  0.00    +0.004 C 
BRANCH  52  54
ATOM     54  C   UNL     1      -4.241  19.774  -5.049  0.00  0.00    +0.004 C 
BRANCH  54  55
ATOM     55  C   UNL     1      -4.562  21.159  -5.627  0.00  0.00    +0.003 C 
ATOM     56  C   UNL     1      -3.276  21.672  -6.308  0.00  0.00    +0.032 C 
ATOM     57  C   UNL     1      -3.484  23.071  -6.900  0.00  0.00    +0.145 C 
ATOM     60  C   UNL     1      -4.595  22.995  -7.947  0.00  0.00    +0.179 C 
ATOM     61  C   UNL     1      -5.916  22.439  -7.391  0.00  0.00    +0.035 C 
ATOM     62  O   UNL     1      -4.812  24.286  -8.517  0.00  0.00    -0.221 OA
ATOM     63  C   UNL     1      -5.736  21.136  -6.616  0.00  0.00    +0.003 C 
BRANCH  57  58
ATOM     58  O   UNL     1      -2.297  23.509  -7.562  0.00  0.00    -0.351 OA
ATOM     59  C   UNL     1      -1.355  24.212  -6.759  0.00  0.00    +0.174 C 
ENDBRANCH  57  58
ENDBRANCH  54  55
ENDBRANCH  52  54
ENDBRANCH   3  52
TORSDOF 6
