REMARK  Name = 2w7x_ligand
REMARK  9 active torsions:
REMARK  status: ('A' for Active; 'I' for Inactive)
REMARK    1  A    between atoms: N7_2  and  C3_4
REMARK    2  A    between atoms: C8_8  and  C9_13
REMARK    3  A    between atoms: N2_15  and  C10_16
REMARK    4  A    between atoms: C13_19  and  C16_22
REMARK    5  A    between atoms: C16_22  and  C17_23
REMARK    6  A    between atoms: N3_24  and  N4_25
REMARK    7  A    between atoms: N4_25  and  C18_26
REMARK    8  A    between atoms: C18_26  and  N6_27
REMARK    9  A    between atoms: C18_26  and  N5_28
REMARK                            x       y       z     vdW  Elec       q    Type
REMARK                         _______ _______ _______ _____ _____    ______ ____
ROOT
ATOM     13  C   UNL     1      47.101 -13.992 -10.653  0.00  0.00    +0.212 A 
ATOM     14  C   UNL     1      48.076 -13.018 -10.738  0.00  0.00    +0.162 A 
ATOM     15  C   UNL     1      48.194 -12.273 -11.911  0.00  0.00    +0.130 A 
ATOM     16  C   UNL     1      47.339 -12.489 -12.994  0.00  0.00    +0.120 A 
ATOM     29  C   UNL     1      46.385 -13.485 -12.901  0.00  0.00    +0.130 A 
ATOM     30  C   UNL     1      46.273 -14.218 -11.752  0.00  0.00    +0.162 A 
ENDROOT
BRANCH  13  11
ATOM     10  C   UNL     1      47.656 -14.812  -8.429  0.00  0.00    +0.395 C 
ATOM     11  N   UNL     1      46.924 -14.825  -9.542  0.00  0.00    -0.132 N 
ATOM     12  H   UNL     1      46.165 -15.505  -9.589  0.00  0.00    +0.328 HD
ATOM     31  O   UNL     1      48.566 -14.018  -8.203  0.00  0.00    -0.290 OA
BRANCH  10   9
ATOM      3  C   UNL     1      47.857 -17.519  -4.270  0.00  0.00    +0.157 A 
ATOM      4  C   UNL     1      47.550 -17.017  -5.523  0.00  0.00    +0.168 A 
ATOM      5  C   UNL     1      46.618 -17.627  -6.319  0.00  0.00    +0.084 A 
ATOM      6  C   UNL     1      45.955 -18.778  -5.899  0.00  0.00    +0.097 A 
ATOM      7  C   UNL     1      46.248 -19.292  -4.633  0.00  0.00    +0.053 A 
ATOM      8  C   UNL     1      46.491 -16.904  -7.537  0.00  0.00    +0.187 A 
ATOM      9  C   UNL     1      47.364 -15.838  -7.415  0.00  0.00    +0.266 A 
ATOM     32  N   UNL     1      48.000 -15.946  -6.209  0.00  0.00    -0.198 N 
ATOM     33  H   UNL     1      48.718 -15.304  -5.873  0.00  0.00    +0.259 HD
ATOM     34  C   UNL     1      47.199 -18.665  -3.824  0.00  0.00    +0.112 A 
BRANCH   3   2
ATOM      1  O   UNL     1      49.465 -15.911  -3.970  0.00  0.00    -0.484 OA
ATOM      2  N   UNL     1      48.834 -16.867  -3.509  0.00  0.00    -0.198 N 
ATOM     35  O   UNL     1      49.103 -17.262  -2.375  0.00  0.00    -0.484 OA
ENDBRANCH   3   2
ENDBRANCH  10   9
ENDBRANCH  13  11
BRANCH  16  17
ATOM     17  C   UNL     1      47.459 -11.704 -14.260  0.00  0.00    +0.223 C 
ATOM     18  N   UNL     1      47.060 -12.228 -15.347  0.00  0.00    +0.009 NA
ATOM     28  C   UNL     1      48.096 -10.346 -14.278  0.00  0.00    +0.203 C 
BRANCH  18  19
ATOM     19  N   UNL     1      47.124 -11.616 -16.453  0.00  0.00    -0.132 N 
ATOM     20  H   UNL     1      47.478 -10.662 -16.527  0.00  0.00    +0.285 HD
BRANCH  19  21
ATOM     21  C   UNL     1      46.699 -12.299 -17.513  0.00  0.00    +0.195 C 
BRANCH  21  22
ATOM     22  N   UNL     1      46.348 -13.496 -17.367  0.00  0.00    -0.345 NA
ATOM     23  H   UNL     1      46.020 -14.033 -18.170  0.00  0.00    +0.168 HD
ATOM     24  H   UNL     1      46.391 -13.931 -16.446  0.00  0.00    +0.168 HD
ENDBRANCH  21  22
BRANCH  21  25
ATOM     25  N   UNL     1      46.711 -11.797 -18.725  0.00  0.00    -0.345 NA
ATOM     26  H   UNL     1      46.376 -12.354 -19.511  0.00  0.00    +0.168 HD
ATOM     27  H   UNL     1      47.055 -10.850 -18.881  0.00  0.00    +0.168 HD
ENDBRANCH  21  25
ENDBRANCH  19  21
ENDBRANCH  18  19
ENDBRANCH  16  17
TORSDOF 8
