REMARK  Name = 4USD
REMARK  9 active torsions:
REMARK  status: ('A' for Active; 'I' for Inactive)
REMARK    1  A    between atoms: C_1  and  C_2
REMARK    2  A    between atoms: C_4  and  S_5
REMARK    3  A    between atoms: S_5  and  C_8
REMARK    4  A    between atoms: C_11  and  C_12
REMARK    5  A    between atoms: N_13  and  C_14
REMARK    6  A    between atoms: C_16  and  C_17
REMARK    7  A    between atoms: C_23  and  C_24
REMARK    8  A    between atoms: C_29  and  O_30
REMARK    9  A    between atoms: O_30  and  C_31
REMARK                            x       y       z     vdW  Elec       q    Type
REMARK                         _______ _______ _______ _____ _____    ______ ____
ROOT
ATOM      4  C   UNL     1      31.190  -2.729 -14.010  0.00  0.00    +0.142 A 
ATOM      5  N   UNL     1      31.322  -2.458 -12.730  0.00  0.00    -0.227 NA
ATOM      6  C   UNL     1      30.252  -1.764 -12.406  0.00  0.00    +0.097 A 
ATOM      7  C   UNL     1      29.486  -1.661 -13.505  0.00  0.00    +0.077 A 
ATOM     26  N   UNL     1      30.073  -2.272 -14.526  0.00  0.00    -0.326 N 
ATOM     27  C   UNL     1      29.608  -2.407 -15.962  0.00  0.00    +0.151 C 
ENDROOT
BRANCH   7   8
ATOM      8  C   UNL     1      28.327  -1.034 -13.675  0.00  0.00    +0.001 A 
ATOM      9  C   UNL     1      27.168  -1.749 -14.000  0.00  0.00    +0.010 A 
ATOM     10  C   UNL     1      25.981  -1.049 -14.202  0.00  0.00    +0.009 A 
ATOM     11  C   UNL     1      25.978   0.340 -14.086  0.00  0.00    -0.014 A 
ATOM     12  C   UNL     1      24.793   1.015 -14.265  0.00  0.00    +0.054 A 
ATOM     13  C   UNL     1      24.752   2.395 -14.168  0.00  0.00    +0.121 A 
ATOM     16  C   UNL     1      25.903   3.119 -13.843  0.00  0.00    +0.046 A 
ATOM     17  C   UNL     1      27.092   2.439 -13.641  0.00  0.00    +0.012 A 
ATOM     18  C   UNL     1      27.126   1.052 -13.769  0.00  0.00    -0.017 A 
ATOM     19  C   UNL     1      28.306   0.357 -13.579  0.00  0.00    +0.018 A 
BRANCH  13  14
ATOM     14  O   UNL     1      23.569   3.048 -14.337  0.00  0.00    -0.495 OA
ATOM     15  C   UNL     1      22.564   2.611 -15.254  0.00  0.00    +0.277 C 
ENDBRANCH  13  14
ENDBRANCH   7   8
BRANCH   4   3
ATOM      1  C   UNL     1      33.776  -1.728 -14.124  0.00  0.00    +0.044 C 
ATOM      2  C   UNL     1      33.394  -2.951 -14.691  0.00  0.00    -0.038 A 
ATOM      3  C   UNL     1      32.086  -3.422 -14.639  0.00  0.00    +0.021 A 
ATOM     28  C   UNL     1      31.689  -4.633 -15.189  0.00  0.00    +0.013 A 
ATOM     29  C   UNL     1      32.632  -5.412 -15.824  0.00  0.00    +0.028 A 
ATOM     30  C   UNL     1      33.952  -4.953 -15.885  0.00  0.00    +0.088 A 
ATOM     35  C   UNL     1      34.336  -3.733 -15.333  0.00  0.00    +0.031 A 
BRANCH  30  31
ATOM     31  S   UNL     1      35.135  -5.882 -16.676  0.00  0.00    -0.006 S 
ATOM     32  C   UNL     1      36.633  -5.949 -15.718  0.00  0.00    +0.200 C 
ATOM     33  O   UNL     1      35.493  -5.141 -17.975  0.00  0.00    -0.170 OA
ATOM     34  O   UNL     1      34.539  -7.283 -16.907  0.00  0.00    -0.170 OA
ENDBRANCH  30  31
ENDBRANCH   4   3
BRANCH   6  20
ATOM     20  C   UNL     1      30.076  -1.337 -11.147  0.00  0.00    +0.005 A 
ATOM     21  C   UNL     1      31.175  -1.407 -10.272  0.00  0.00    +0.030 A 
ATOM     22  C   UNL     1      31.063  -1.001  -8.946  0.00  0.00    +0.111 A 
ATOM     23  N   UNL     1      29.834  -0.526  -8.455  0.00  0.00    -0.263 NA
ATOM     24  C   UNL     1      28.734  -0.457  -9.312  0.00  0.00    +0.111 A 
ATOM     25  C   UNL     1      28.854  -0.872 -10.640  0.00  0.00    +0.030 A 
ENDBRANCH   6  20
TORSDOF 5
