REMARK  Name = 4u6r_ligand
REMARK  9 active torsions:
REMARK  status: ('A' for Active; 'I' for Inactive)
REMARK    1  A    between atoms: C23_3  and  N6_4
REMARK    2  A    between atoms: C20_7  and  N4_8
REMARK    3  A    between atoms: C11_14  and  C14_15
REMARK    4  A    between atoms: C19_20  and  O1_21
REMARK    5  A    between atoms: O1_21  and  C4_22
REMARK    6  A    between atoms: C5_23  and  C26_24
REMARK    7  A    between atoms: C1_32  and  N1_33
REMARK    8  A    between atoms: N1_33  and  S1_34
REMARK    9  A    between atoms: S1_34  and  C27_37
REMARK                            x       y       z     vdW  Elec       q    Type
REMARK                         _______ _______ _______ _____ _____    ______ ____
ROOT
ATOM     10  C   UNL     1       0.159 -24.050  -0.268  0.00  0.00    +0.065 A 
ATOM     11  C   UNL     1       1.490 -23.733  -0.262  0.00  0.00    +0.199 A 
ATOM     36  N   UNL     1       2.353 -24.704  -0.180  0.00  0.00    -0.266 NA
ATOM     37  C   UNL     1       2.004 -25.949  -0.090  0.00  0.00    +0.084 A 
ATOM     38  C   UNL     1       0.709 -26.329  -0.071  0.00  0.00    +0.021 A 
ATOM     39  C   UNL     1      -0.225 -25.351  -0.151  0.00  0.00    +0.037 A 
ENDROOT
BRANCH  10   9
ATOM      3  N   UNL     1      -4.235 -23.289  -0.849  0.00  0.00    -0.287 N 
ATOM      4  H   UNL     1      -5.069 -22.778  -0.526  0.00  0.00    +0.186 HD
ATOM      5  C   UNL     1      -3.075 -22.799  -0.595  0.00  0.00    +0.187 A 
ATOM      6  N   UNL     1      -2.951 -21.519  -0.367  0.00  0.00    -0.258 NA
ATOM      7  C   UNL     1      -1.802 -20.987  -0.118  0.00  0.00    +0.100 A 
ATOM      8  C   UNL     1      -0.707 -21.795  -0.075  0.00  0.00    +0.046 A 
ATOM      9  C   UNL     1      -0.861 -23.129  -0.321  0.00  0.00    +0.057 A 
ATOM     40  N   UNL     1      -2.049 -23.578  -0.564  0.00  0.00    -0.253 NA
BRANCH   3   2
ATOM      1  C   UNL     1      -5.809 -25.013  -1.347  0.00  0.00    +0.034 C 
ATOM      2  C   UNL     1      -4.417 -24.526  -1.568  0.00  0.00    +0.098 C 
ATOM     41  C   UNL     1      -4.231 -24.356  -3.050  0.00  0.00    +0.034 C 
ATOM     42  C   UNL     1      -4.499 -25.634  -3.790  0.00  0.00    +0.056 C 
ATOM     43  C   UNL     1      -5.825 -26.262  -3.449  0.00  0.00    +0.061 C 
ATOM     48  C   UNL     1      -6.027 -26.352  -1.984  0.00  0.00    +0.056 C 
BRANCH  43  44
ATOM     44  N   UNL     1      -5.846 -27.585  -3.996  0.00  0.00    +0.221 N 
ATOM     45  H   UNL     1      -5.108 -28.132  -3.581  0.00  0.00    +0.200 HD
ATOM     46  H   UNL     1      -6.735 -28.016  -3.798  0.00  0.00    +0.200 HD
ATOM     47  H   UNL     1      -5.710 -27.538  -4.994  0.00  0.00    +0.200 HD
ENDBRANCH  43  44
ENDBRANCH   3   2
ENDBRANCH  10   9
BRANCH  11  12
ATOM     12  O   UNL     1       1.878 -22.456  -0.368  0.00  0.00    -0.250 OA
BRANCH  12  13
ATOM     13  C   UNL     1       3.082 -22.014  -0.053  0.00  0.00    +0.112 A 
ATOM     14  C   UNL     1       3.320 -21.591   1.202  0.00  0.00    +0.002 A 
ATOM     15  C   UNL     1       4.538 -21.102   1.562  0.00  0.00    -0.001 A 
ATOM     16  C   UNL     1       5.537 -21.021   0.633  0.00  0.00    +0.064 A 
ATOM     29  C   UNL     1       5.291 -21.432  -0.635  0.00  0.00    -0.018 A 
ATOM     30  C   UNL     1       4.752 -20.693   2.849  0.00  0.00    -0.001 A 
ATOM     31  C   UNL     1       3.752 -20.783   3.782  0.00  0.00    -0.014 A 
ATOM     32  C   UNL     1       2.539 -21.287   3.422  0.00  0.00    -0.012 A 
ATOM     33  C   UNL     1       2.331 -21.678   2.130  0.00  0.00    -0.005 A 
ATOM     34  C   UNL     1       4.067 -21.896  -0.986  0.00  0.00    -0.032 A 
ATOM     35  C   UNL     1       3.877 -22.331  -2.400  0.00  0.00    +0.070 C 
BRANCH  16  17
ATOM     17  N   UNL     1       6.707 -20.546   0.921  0.00  0.00    -0.188 N 
ATOM     18  H   UNL     1       7.326 -21.074   1.502  0.00  0.00    +0.218 HD
BRANCH  17  19
ATOM     19  S   UNL     1       7.174 -19.117   0.354  0.00  0.00    +0.090 S 
ATOM     27  O   UNL     1       8.558 -19.217   0.080  0.00  0.00    -0.144 OA
ATOM     28  O   UNL     1       6.399 -18.653  -0.786  0.00  0.00    -0.144 OA
BRANCH  19  20
ATOM     20  C   UNL     1       6.924 -17.844   1.373  0.00  0.00    +0.128 A 
ATOM     21  C   UNL     1       7.572 -17.606   2.566  0.00  0.00    +0.068 A 
ATOM     22 CL   UNL     1       8.756 -18.621   3.183  0.00  0.00    -0.069 Cl
ATOM     23  C   UNL     1       7.283 -16.528   3.332  0.00  0.00    +0.016 A 
ATOM     24  C   UNL     1       6.331 -15.660   2.902  0.00  0.00    +0.001 A 
ATOM     25  C   UNL     1       5.680 -15.873   1.712  0.00  0.00    +0.002 A 
ATOM     26  C   UNL     1       5.965 -16.970   0.938  0.00  0.00    +0.030 A 
ENDBRANCH  19  20
ENDBRANCH  17  19
ENDBRANCH  16  17
ENDBRANCH  12  13
ENDBRANCH  11  12
TORSDOF 8
