REMARK  Name = 5NKF
REMARK  16 active torsions:
REMARK  status: ('A' for Active; 'I' for Inactive)
REMARK    1  A    between atoms: C_6  and  N_7
REMARK    2  A    between atoms: C_8  and  O_9
REMARK    3  A    between atoms: C_8  and  C_10
REMARK    4  A    between atoms: C_13  and  C_14
REMARK    5  A    between atoms: C_19  and  N_20
REMARK    6  A    between atoms: C_25  and  C_26
REMARK    7  A    between atoms: N_28  and  C_29
REMARK    8  A    between atoms: C_35  and  C_36
REMARK    9  A    between atoms: C_42  and  N_43
REMARK   10  A    between atoms: C_44  and  O_45
REMARK   11  A    between atoms: C_44  and  C_46
REMARK   12  A    between atoms: C_49  and  C_50
REMARK   13  A    between atoms: C_55  and  N_56
REMARK   14  A    between atoms: C_61  and  C_62
REMARK   15  A    between atoms: N_64  and  C_65
REMARK   16  A    between atoms: C_71  and  C_72
REMARK                            x       y       z     vdW  Elec       q    Type
REMARK                         _______ _______ _______ _____ _____    ______ ____
ROOT
ATOM      1  F   UNL     1     -96.439 -16.700  47.741  0.00  0.00    +0.000 F 
ENDROOT
TORSDOF 0
