REMARK  Name = 2ZDY
REMARK  9 active torsions:
REMARK  status: ('A' for Active; 'I' for Inactive)
REMARK    1  A    between atoms: P_1  and  O_8
REMARK    2  A    between atoms: P_5  and  O_8
REMARK    3  A    between atoms: P_5  and  O_9
REMARK    4  A    between atoms: O_9  and  C_10
REMARK    5  A    between atoms: C_10  and  C_11
REMARK    6  A    between atoms: C_13  and  O_14
REMARK    7  A    between atoms: C_15  and  O_16
REMARK    8  A    between atoms: C_17  and  N_18
REMARK    9  A    between atoms: C_22  and  N_23
REMARK                            x       y       z     vdW  Elec       q    Type
REMARK                         _______ _______ _______ _____ _____    ______ ____
ROOT
ATOM      6  C   UNL     1     -25.341   5.761  10.571  0.00  0.00    +0.178 C 
ATOM      7  C   UNL     1     -24.574   7.014  10.033  0.00  0.00    +0.178 C 
ATOM      8  C   UNL     1     -25.701   7.832   9.459  0.00  0.00    +0.195 C 
ATOM      9  C   UNL     1     -26.959   7.398  10.237  0.00  0.00    +0.253 C 
ATOM     26  O   UNL     1     -26.776   6.061  10.691  0.00  0.00    -0.346 OA
ENDROOT
BRANCH   9  10
ATOM     10  N   UNL     1     -27.267   8.308  11.410  0.00  0.00    -0.285 N 
ATOM     11  C   UNL     1     -27.986   9.451  11.250  0.00  0.00    +0.167 A 
ATOM     12  N   UNL     1     -28.541   9.973  10.047  0.00  0.00    -0.216 NA
ATOM     13  C   UNL     1     -29.248  11.192  10.157  0.00  0.00    +0.225 A 
ATOM     14  N   UNL     1     -29.386  11.848  11.409  0.00  0.00    -0.219 NA
ATOM     15  C   UNL     1     -28.800  11.280  12.632  0.00  0.00    +0.147 A 
ATOM     19  C   UNL     1     -28.052  10.012  12.584  0.00  0.00    +0.147 A 
ATOM     20  N   UNL     1     -27.411   9.246  13.482  0.00  0.00    -0.231 NA
ATOM     21  C   UNL     1     -26.974   8.283  12.782  0.00  0.00    +0.203 A 
BRANCH  15  16
ATOM     16  N   UNL     1     -28.947  11.921  13.784  0.00  0.00    -0.341 N 
ATOM     17  H   UNL     1     -29.491  12.842  13.818  0.00  0.00    +0.144 HD
ATOM     18  H   UNL     1     -28.522  11.517  14.679  0.00  0.00    +0.144 HD
ENDBRANCH  15  16
ENDBRANCH   9  10
BRANCH   8  22
ATOM     22  O   UNL     1     -25.813   7.638   8.072  0.00  0.00    -0.385 OA
ATOM     23  H   UNL     1     -24.918   7.926   7.604  0.00  0.00    +0.210 HD
ENDBRANCH   8  22
BRANCH   7  24
ATOM     24  O   UNL     1     -23.502   6.685   9.142  0.00  0.00    -0.386 OA
ATOM     25  H   UNL     1     -22.805   6.079   9.641  0.00  0.00    +0.210 HD
ENDBRANCH   7  24
BRANCH   6   5
ATOM      5  C   UNL     1     -24.593   5.231  11.696  0.00  0.00    +0.202 C 
BRANCH   5   4
ATOM      4  O   UNL     1     -24.046   5.922  12.737  0.00  0.00    -0.325 OA
BRANCH   4   3
ATOM      3  P   UNL     1     -22.796   5.282  13.534  0.00  0.00    +0.215 P 
ATOM     27  O   UNL     1     -23.234   3.882  13.948  0.00  0.00    -0.437 OA
ATOM     28  O   UNL     1     -22.389   6.211  14.554  0.00  0.00    -0.517 OA
BRANCH   3   2
ATOM      2  O   UNL     1     -21.605   5.228  12.480  0.00  0.00    -0.314 OA
BRANCH   2   1
ATOM      1  P   UNL     1     -20.796   6.396  11.732  0.00  0.00    -0.007 P 
ATOM     29  O   UNL     1     -19.252   5.757  11.776  0.00  0.00    -0.577 OA
ATOM     30  O   UNL     1     -20.855   7.665  12.506  0.00  0.00    -0.577 OA
ATOM     31  O   UNL     1     -21.254   6.649  10.377  0.00  0.00    -0.637 OA
ENDBRANCH   2   1
ENDBRANCH   3   2
ENDBRANCH   4   3
ENDBRANCH   5   4
ENDBRANCH   6   5
TORSDOF 9
