REMARK  Name = E6Q
REMARK  1 active torsions:
REMARK  status: ('A' for Active; 'I' for Inactive)
REMARK    1  A    between atoms: C7_5  and  C2_17
REMARK                            x       y       z     vdW  Elec       q    Type
REMARK                         _______ _______ _______ _____ _____    ______ ____
ROOT
ATOM      3  C   UNL     1      63.722  64.581  54.680  0.00  0.00    +0.021 A 
ATOM      4  C   UNL     1      62.539  64.487  55.542  0.00  0.00    +0.019 A 
ATOM      5  C   UNL     1      63.024  64.473  56.865  0.00  0.00    +0.086 A 
ATOM      6  C   UNL     1      62.116  64.406  57.942  0.00  0.00    +0.074 A 
ATOM      7  C   UNL     1      62.329  64.359  59.392  0.00  0.00    +0.271 C 
ATOM      8  O   UNL     1      63.388  64.365  60.017  0.00  0.00    -0.268 OA
ATOM      9  N   UNL     1      61.085  64.306  59.932  0.00  0.00    -0.174 NA
ATOM     10  C   UNL     1      60.007  64.296  58.960  0.00  0.00    +0.089 C 
ATOM     11  C   UNL     1      60.749  64.351  57.677  0.00  0.00    +0.022 A 
ATOM     12  C   UNL     1      60.281  64.352  56.369  0.00  0.00    +0.002 A 
ATOM     13  N   UNL     1      64.396  64.529  56.835  0.00  0.00    -0.244 NA
ATOM     14  C   UNL     1      61.163  64.418  55.304  0.00  0.00    +0.002 A 
ATOM     15  C   UNL     1      64.810  64.593  55.523  0.00  0.00    +0.099 A 
ENDROOT
BRANCH   3   2
ATOM      1  C   UNL     1      62.854  64.022  52.400  0.00  0.00    +0.000 A 
ATOM      2  C   UNL     1      63.768  64.700  53.199  0.00  0.00    +0.002 A 
ATOM     16  C   UNL     1      64.752  65.460  52.585  0.00  0.00    +0.000 A 
ATOM     17  C   UNL     1      64.834  65.518  51.209  0.00  0.00    +0.000 A 
ATOM     18  C   UNL     1      63.927  64.844  50.429  0.00  0.00    +0.000 A 
ATOM     19  C   UNL     1      62.934  64.104  51.021  0.00  0.00    +0.000 A 
ENDBRANCH   3   2
TORSDOF 1
