REMARK  Name = 4XX5
REMARK  4 active torsions:
REMARK  status: ('A' for Active; 'I' for Inactive)
REMARK    1  A    between atoms: C_3  and  N_16
REMARK    2  A    between atoms: C_5  and  O_20
REMARK    3  A    between atoms: C_6  and  C_8
REMARK    4  A    between atoms: O_20  and  C_21
REMARK                            x       y       z     vdW  Elec       q    Type
REMARK                         _______ _______ _______ _____ _____    ______ ____
ROOT
ATOM      1  C   UNL     1      22.661  59.405  23.534  0.00  0.00    +0.111 C 
ATOM      2  N   UNL     1      23.084  60.744  23.067  0.00  0.00    -0.323 N 
ATOM      3  C   UNL     1      22.046  61.462  22.318  0.00  0.00    +0.149 C 
ATOM      4  C   UNL     1      20.691  61.247  22.952  0.00  0.00    +0.032 A 
ATOM      5  S   UNL     1      19.239  62.182  22.587  0.00  0.00    -0.055 S 
ATOM      6  C   UNL     1      18.312  61.244  23.698  0.00  0.00    +0.165 A 
ATOM      7  N   UNL     1      19.077  60.332  24.234  0.00  0.00    -0.229 NA
ATOM      8  N   UNL     1      16.941  61.390  23.961  0.00  0.00    -0.265 N 
ATOM      9  H   UNL     1      16.486  60.665  24.603  0.00  0.00    +0.157 HD
ATOM     10  C   UNL     1      16.136  62.381  23.467  0.00  0.00    +0.216 C 
ATOM     11  O   UNL     1      16.555  63.285  22.759  0.00  0.00    -0.276 OA
ATOM     12  C   UNL     1      14.658  62.396  23.797  0.00  0.00    +0.109 C 
ATOM     13  C   UNL     1      20.366  60.301  23.871  0.00  0.00    +0.057 A 
ATOM     22  C   UNL     1      21.403  59.331  24.409  0.00  0.00    +0.075 C 
ENDROOT
BRANCH   2  14
ATOM     14  C   UNL     1      24.258  60.670  22.291  0.00  0.00    +0.052 A 
ATOM     15  C   UNL     1      25.311  59.839  22.687  0.00  0.00    +0.134 A 
ATOM     16  N   UNL     1      26.441  59.741  22.000  0.00  0.00    -0.258 NA
ATOM     17  C   UNL     1      26.623  60.428  20.883  0.00  0.00    +0.156 A 
ATOM     18  C   UNL     1      25.616  61.280  20.392  0.00  0.00    +0.140 A 
ATOM     21  C   UNL     1      24.411  61.405  21.104  0.00  0.00    +0.072 A 
BRANCH  18  19
ATOM     19  O   UNL     1      25.838  61.953  19.219  0.00  0.00    -0.493 OA
ATOM     20  C   UNL     1      24.875  62.896  18.714  0.00  0.00    +0.277 C 
ENDBRANCH  18  19
ENDBRANCH   2  14
TORSDOF 2
