REMARK  Name = 3WZK
REMARK  5 active torsions:
REMARK  status: ('A' for Active; 'I' for Inactive)
REMARK    1  A    between atoms: C_2  and  C_7
REMARK    2  A    between atoms: N_3  and  C_4
REMARK    3  A    between atoms: C_10  and  C_13
REMARK    4  A    between atoms: N_22  and  C_23
REMARK    5  A    between atoms: C_23  and  C_24
REMARK                            x       y       z     vdW  Elec       q    Type
REMARK                         _______ _______ _______ _____ _____    ______ ____
ROOT
ATOM      7  C   UNL     1       1.243 -33.692 -11.512  0.00  0.00    +0.073 C 
ATOM      8  C   UNL     1       0.923 -32.593 -10.731  0.00  0.00    +0.140 C 
ATOM      9  N   UNL     1       0.185 -33.079  -9.704  0.00  0.00    -0.232 NA
ATOM     10  C   UNL     1       0.064 -34.421  -9.856  0.00  0.00    +0.181 C 
ATOM     11  C   UNL     1      -0.637 -35.436  -9.007  0.00  0.00    +0.170 C 
ATOM     12  N   UNL     1      -1.274 -35.014  -7.894  0.00  0.00    -0.259 NA
ATOM     19  N   UNL     1      -0.626 -36.736  -9.388  0.00  0.00    -0.342 N 
ATOM     20  H   UNL     1      -1.126 -37.477  -8.800  0.00  0.00    +0.167 HD
ATOM     21  C   UNL     1       0.026 -37.087 -10.524  0.00  0.00    +0.102 C 
ATOM     22  C   UNL     1       0.690 -36.128 -11.317  0.00  0.00    +0.111 C 
ATOM     23  N   UNL     1       0.705 -34.813 -10.979  0.00  0.00    -0.295 N 
ENDROOT
BRANCH   7   6
ATOM      3  C   UNL     1       3.476 -33.777 -15.205  0.00  0.00    +0.037 A 
ATOM      4  C   UNL     1       3.557 -34.861 -14.327  0.00  0.00    +0.013 A 
ATOM      5  C   UNL     1       2.844 -34.843 -13.122  0.00  0.00    +0.010 A 
ATOM      6  C   UNL     1       2.029 -33.758 -12.792  0.00  0.00    +0.000 A 
ATOM     24  C   UNL     1       1.962 -32.674 -13.669  0.00  0.00    +0.010 A 
ATOM     25  C   UNL     1       2.679 -32.680 -14.873  0.00  0.00    +0.013 A 
BRANCH   3   2
ATOM      1  O   UNL     1       5.313 -34.404 -16.548  0.00  0.00    -0.270 OA
ATOM      2  C   UNL     1       4.252 -33.788 -16.498  0.00  0.00    +0.244 C 
ATOM     26  N   UNL     1       3.790 -33.134 -17.571  0.00  0.00    -0.309 N 
ATOM     27  H   UNL     1       2.821 -32.680 -17.552  0.00  0.00    +0.149 HD
BRANCH  26  28
ATOM     28  C   UNL     1       4.620 -33.047 -18.765  0.00  0.00    +0.073 C 
ATOM     29  C   UNL     1       5.478 -31.793 -18.680  0.00  0.00    +0.024 C 
ATOM     30  C   UNL     1       4.278 -31.832 -19.625  0.00  0.00    +0.024 C 
ENDBRANCH  26  28
ENDBRANCH   3   2
ENDBRANCH   7   6
BRANCH  12  13
ATOM     13  C   UNL     1      -1.905 -35.934  -6.969  0.00  0.00    +0.186 C 
BRANCH  13  14
ATOM     14  C   UNL     1      -0.914 -36.426  -5.937  0.00  0.00    +0.011 A 
ATOM     15  C   UNL     1      -0.372 -37.676  -5.657  0.00  0.00    +0.013 A 
ATOM     16  C   UNL     1       0.519 -37.631  -4.577  0.00  0.00    +0.008 A 
ATOM     17  C   UNL     1       0.715 -36.382  -3.976  0.00  0.00    +0.045 A 
ATOM     18  S   UNL     1      -0.275 -35.242  -4.835  0.00  0.00    -0.100 S 
ENDBRANCH  13  14
ENDBRANCH  12  13
TORSDOF 5
