REMARK  Name = 2QG6
REMARK  7 active torsions:
REMARK  status: ('A' for Active; 'I' for Inactive)
REMARK    1  A    between atoms: P_2  and  O_5
REMARK    2  A    between atoms: O_5  and  C_6
REMARK    3  A    between atoms: C_6  and  C_7
REMARK    4  A    between atoms: C_9  and  O_10
REMARK    5  A    between atoms: C_11  and  O_12
REMARK    6  A    between atoms: C_13  and  N_14
REMARK    7  A    between atoms: C_16  and  C_17
REMARK                            x       y       z     vdW  Elec       q    Type
REMARK                         _______ _______ _______ _____ _____    ______ ____
ROOT
ATOM      5  C   UNL     1       9.623  54.691  30.584  0.00  0.00    +0.178 C 
ATOM      6  C   UNL     1      10.335  55.502  31.640  0.00  0.00    +0.178 C 
ATOM      7  C   UNL     1       9.321  56.579  32.087  0.00  0.00    +0.193 C 
ATOM      8  C   UNL     1       8.122  56.377  31.148  0.00  0.00    +0.237 C 
ATOM     24  O   UNL     1       8.138  55.048  30.674  0.00  0.00    -0.348 OA
ENDROOT
BRANCH   8   9
ATOM      9  N   UNL     1       6.746  56.792  31.765  0.00  0.00    -0.308 N 
ATOM     10  C   UNL     1       6.389  58.185  32.110  0.00  0.00    +0.107 C 
ATOM     11  C   UNL     1       5.063  58.334  32.663  0.00  0.00    +0.024 C 
ATOM     12  C   UNL     1       4.104  57.254  32.891  0.00  0.00    +0.043 C 
ATOM     13  C   UNL     1       4.596  55.880  32.494  0.00  0.00    +0.028 C 
ATOM     19  C   UNL     1       5.878  55.673  31.951  0.00  0.00    +0.081 C 
BRANCH  13  14
ATOM     14  C   UNL     1       3.477  54.815  32.785  0.00  0.00    +0.239 C 
ATOM     15  N   UNL     1       3.921  53.601  32.427  0.00  0.00    -0.326 N 
ATOM     16  H   UNL     1       3.293  52.743  32.552  0.00  0.00    +0.145 HD
ATOM     17  H   UNL     1       4.903  53.490  32.017  0.00  0.00    +0.145 HD
ATOM     18  O   UNL     1       2.378  54.984  33.251  0.00  0.00    -0.271 OA
ENDBRANCH  13  14
ENDBRANCH   8   9
BRANCH   7  20
ATOM     20  O   UNL     1       9.909  57.899  32.037  0.00  0.00    -0.385 OA
ATOM     21  H   UNL     1      10.742  57.936  32.676  0.00  0.00    +0.210 HD
ENDBRANCH   7  20
BRANCH   6  22
ATOM     22  O   UNL     1      11.567  56.048  31.117  0.00  0.00    -0.386 OA
ATOM     23  H   UNL     1      12.195  55.265  30.809  0.00  0.00    +0.210 HD
ENDBRANCH   6  22
BRANCH   5   4
ATOM      4  C   UNL     1       9.909  53.283  30.747  0.00  0.00    +0.198 C 
BRANCH   4   3
ATOM      3  O   UNL     1       9.071  52.505  29.905  0.00  0.00    -0.365 OA
BRANCH   3   2
ATOM      1  O   UNL     1      10.113  53.298  27.599  0.00  0.00    -0.577 OA
ATOM      2  P   UNL     1       9.747  52.023  28.523  0.00  0.00    -0.015 P 
ATOM     25  O   UNL     1       8.741  51.162  27.845  0.00  0.00    -0.638 OA
ATOM     26  O   UNL     1      10.980  51.221  28.828  0.00  0.00    -0.577 OA
ENDBRANCH   3   2
ENDBRANCH   4   3
ENDBRANCH   5   4
TORSDOF 7
