REMARK  Name = 6TB
REMARK  6 active torsions:
REMARK  status: ('A' for Active; 'I' for Inactive)
REMARK    1  A    between atoms: C10_1  and  O11_19
REMARK    2  A    between atoms: C13_2  and  N14_21
REMARK    3  A    between atoms: C20_4  and  N19_25
REMARK    4  A    between atoms: C26_8  and  C25_27
REMARK    5  A    between atoms: C05_14  and  N06_15
REMARK    6  A    between atoms: C07_16  and  C08_17
REMARK                            x       y       z     vdW  Elec       q    Type
REMARK                         _______ _______ _______ _____ _____    ______ ____
ROOT
ATOM     19  N   UNL     1       7.840  -7.698  -0.200  0.00  0.00    -0.253 N 
ATOM     20  C   UNL     1       8.999  -6.962  -0.060  0.00  0.00    +0.225 A 
ATOM     21  N   UNL     1       9.186  -6.220   1.045  0.00  0.00    -0.210 NA
ATOM     22  C   UNL     1      10.279  -5.471   1.211  0.00  0.00    +0.120 A 
ATOM     23  C   UNL     1      11.304  -5.447   0.253  0.00  0.00    +0.105 A 
ATOM     24  N   UNL     1      12.396  -4.625   0.448  0.00  0.00    -0.252 N 
ATOM     25  C   UNL     1      12.351  -3.566   1.456  0.00  0.00    +0.120 C 
ATOM     26  C   UNL     1      13.479  -4.774  -0.350  0.00  0.00    +0.248 C 
ATOM     27  O   UNL     1      14.481  -4.032  -0.223  0.00  0.00    -0.273 OA
ATOM     28  C   UNL     1      13.505  -5.841  -1.388  0.00  0.00    +0.151 C 
ATOM     31  N   UNL     1      12.168  -6.235  -1.848  0.00  0.00    -0.287 N 
ATOM     37  C   UNL     1      11.153  -6.238  -0.898  0.00  0.00    +0.150 A 
ATOM     38  N   UNL     1       9.980  -6.940  -1.011  0.00  0.00    -0.197 NA
ATOM     39  C   UNL     1       7.530  -8.188  -1.514  0.00  0.00    +0.120 C 
ENDROOT
BRANCH  19  18
ATOM      1  C   UNL     1       6.478  -8.640   1.572  0.00  0.00    +0.152 A 
ATOM      2  C   UNL     1       5.392  -8.507   2.455  0.00  0.00    +0.043 A 
ATOM      3  C   UNL     1       4.616  -7.332   2.488  0.00  0.00    +0.058 A 
ATOM     14  C   UNL     1       4.942  -6.293   1.602  0.00  0.00    +0.006 A 
ATOM     15  C   UNL     1       6.010  -6.413   0.714  0.00  0.00    +0.018 A 
ATOM     18  C   UNL     1       6.788  -7.579   0.691  0.00  0.00    +0.088 A 
BRANCH   3   4
ATOM      4  C   UNL     1       3.507  -7.193   3.371  0.00  0.00    +0.265 C 
ATOM      5  N   UNL     1       3.399  -7.964   4.488  0.00  0.00    -0.203 NA
ATOM     13  O   UNL     1       2.522  -6.455   3.044  0.00  0.00    -0.268 OA
BRANCH   5   6
ATOM      6  C   UNL     1       2.248  -7.896   5.328  0.00  0.00    +0.098 C 
ATOM      7  C   UNL     1       2.610  -8.316   6.777  0.00  0.00    +0.039 C 
ATOM      8  C   UNL     1       1.326  -8.385   7.643  0.00  0.00    +0.074 C 
ATOM      9  N   UNL     1       0.238  -9.209   7.018  0.00  0.00    -0.271 NA
ATOM     10  C   UNL     1      -0.974  -9.259   7.890  0.00  0.00    +0.090 C 
ATOM     11  C   UNL     1      -0.108  -8.817   5.613  0.00  0.00    +0.074 C 
ATOM     12  C   UNL     1       1.155  -8.821   4.725  0.00  0.00    +0.039 C 
ENDBRANCH   5   6
ENDBRANCH   3   4
BRANCH   1  16
ATOM     16  O   UNL     1       7.264  -9.772   1.499  0.00  0.00    -0.470 OA
ATOM     17  C   UNL     1       7.039 -10.895   2.403  0.00  0.00    +0.253 C 
ENDBRANCH   1  16
ENDBRANCH  19  18
BRANCH  31  32
ATOM     32  C   UNL     1      12.111  -7.008  -3.081  0.00  0.00    +0.075 C 
ATOM     33  C   UNL     1      11.914  -8.536  -3.016  0.00  0.00    +0.020 C 
ATOM     34  C   UNL     1      11.453  -8.897  -4.429  0.00  0.00    +0.002 C 
ATOM     35  C   UNL     1      10.576  -7.705  -4.891  0.00  0.00    +0.002 C 
ATOM     36  C   UNL     1      10.994  -6.497  -4.029  0.00  0.00    +0.020 C 
ENDBRANCH  31  32
BRANCH  28  29
ATOM     29  C   UNL     1      14.452  -6.969  -0.863  0.00  0.00    +0.029 C 
ATOM     30  C   UNL     1      13.950  -7.634   0.431  0.00  0.00    +0.002 C 
ENDBRANCH  28  29
TORSDOF 6
