REMARK  Name = GVQ
REMARK  3 active torsions:
REMARK  status: ('A' for Active; 'I' for Inactive)
REMARK    1  A    between atoms: C9_9  and  C12_11
REMARK    2  A    between atoms: C9_9  and  C13_12
REMARK    3  A    between atoms: C9_9  and  C15_14
REMARK                            x       y       z     vdW  Elec       q    Type
REMARK                         _______ _______ _______ _____ _____    ______ ____
ROOT
ATOM      7  C   UNL     1      10.230   9.122   3.816  0.00  0.00    +0.064 C 
ENDROOT
BRANCH   7   2
ATOM      1  C   UNL     1      10.979  10.496   1.839  0.00  0.00    -0.003 A 
ATOM      2  C   UNL     1      11.127  10.149   3.174  0.00  0.00    -0.017 A 
ATOM      3  C   UNL     1      12.096  10.757   3.955  0.00  0.00    -0.003 A 
ATOM      4  C   UNL     1      12.930  11.709   3.405  0.00  0.00    +0.011 A 
ATOM      5  C   UNL     1      12.781  12.051   2.075  0.00  0.00    +0.058 A 
ATOM      6 CL   UNL     1      13.827  13.246   1.396  0.00  0.00    -0.082 Cl
ATOM     16  C   UNL     1      11.814  11.451   1.284  0.00  0.00    +0.011 A 
ENDBRANCH   7   2
BRANCH   7   8
ATOM      8  C   UNL     1       8.878   9.770   4.047  0.00  0.00    -0.017 A 
ATOM      9  C   UNL     1       8.597  10.316   5.293  0.00  0.00    -0.004 A 
ATOM     10  C   UNL     1       7.368  10.921   5.532  0.00  0.00    -0.000 A 
ATOM     11  C   UNL     1       6.416  10.990   4.529  0.00  0.00    -0.000 A 
ATOM     12  C   UNL     1       6.696  10.447   3.278  0.00  0.00    -0.000 A 
ATOM     13  C   UNL     1       7.924   9.839   3.037  0.00  0.00    -0.004 A 
ENDBRANCH   7   8
BRANCH   7  14
ATOM     14  C   UNL     1      10.149   7.848   2.960  0.00  0.00    +0.118 C 
ATOM     15  N   UNL     1      11.504   7.298   2.798  0.00  0.00    -0.131 NA
ENDBRANCH   7  14
TORSDOF 3
