REMARK  Name = 3fzs_ligand
REMARK  12 active torsions:
REMARK  status: ('A' for Active; 'I' for Inactive)
REMARK    1  A    between atoms: N2_3  and  C3_4
REMARK    2  A    between atoms: C6_7  and  O41_31
REMARK    3  A    between atoms: N9_14  and  C10_15
REMARK    4  A    between atoms: C13_17  and  C16_24
REMARK    5  A    between atoms: N11_19  and  C15_20
REMARK    6  A    between atoms: C17_21  and  C16_24
REMARK    7  A    between atoms: C18_22  and  C16_24
REMARK    8  A    between atoms: C19_23  and  C16_24
REMARK    9  A    between atoms: C22_27  and  C25_30
REMARK   10  A    between atoms: O41_31  and  C42_32
REMARK   11  A    between atoms: C42_32  and  C43_33
REMARK   12  A    between atoms: C43_33  and  N44_34
REMARK                            x       y       z     vdW  Elec       q    Type
REMARK                         _______ _______ _______ _____ _____    ______ ____
ROOT
ATOM      1  C   UNL     1      -4.859  -2.655  12.350  0.00  0.00    +0.323 C 
ATOM      2  N   UNL     1      -5.617  -1.645  12.771  0.00  0.00    -0.179 N 
ATOM      3  H   UNL     1      -6.076  -1.784  13.649  0.00  0.00    +0.234 HD
ATOM     20  N   UNL     1      -4.837  -3.726  13.167  0.00  0.00    -0.217 N 
ATOM     21  H   UNL     1      -5.453  -3.728  13.955  0.00  0.00    +0.226 HD
ATOM     42  O   UNL     1      -4.256  -2.640  11.279  0.00  0.00    -0.379 OA
ENDROOT
BRANCH  20  22
ATOM     22  C   UNL     1      -4.009  -4.832  12.983  0.00  0.00    +0.068 A 
ATOM     23  C   UNL     1      -3.181  -4.936  14.102  0.00  0.00    -0.014 A 
ATOM     24  C   UNL     1      -2.192  -5.906  14.209  0.00  0.00    -0.007 A 
ATOM     25  C   UNL     1      -2.000  -6.792  13.163  0.00  0.00    +0.084 A 
ATOM     36  C   UNL     1      -2.800  -6.684  12.007  0.00  0.00    +0.005 A 
ATOM     37  C   UNL     1      -2.592  -7.577  10.955  0.00  0.00    +0.001 A 
ATOM     38  C   UNL     1      -3.370  -7.490   9.805  0.00  0.00    -0.008 A 
ATOM     39  C   UNL     1      -4.350  -6.516   9.696  0.00  0.00    -0.009 A 
ATOM     40  C   UNL     1      -4.568  -5.622  10.739  0.00  0.00    +0.002 A 
ATOM     41  C   UNL     1      -3.801  -5.697  11.894  0.00  0.00    +0.004 A 
BRANCH  25  26
ATOM     26  O   UNL     1      -1.022  -7.753  13.278  0.00  0.00    -0.322 OA
BRANCH  26  27
ATOM     27  C   UNL     1       0.062  -7.617  14.213  0.00  0.00    +0.240 C 
BRANCH  27  28
ATOM     28  C   UNL     1       1.120  -8.689  13.936  0.00  0.00    +0.165 C 
BRANCH  28  29
ATOM     29  N   UNL     1       2.073  -8.232  12.914  0.00  0.00    +0.240 N 
ATOM     30  H   UNL     1       2.492  -7.369  13.223  0.00  0.00    +0.204 HD
ATOM     31  C   UNL     1       3.138  -9.263  12.786  0.00  0.00    +0.160 C 
ATOM     32  C   UNL     1       4.092  -8.961  11.630  0.00  0.00    +0.210 C 
ATOM     33  O   UNL     1       3.346  -8.725  10.429  0.00  0.00    -0.369 OA
ATOM     34  C   UNL     1       2.440  -7.626  10.558  0.00  0.00    +0.210 C 
ATOM     35  C   UNL     1       1.398  -7.979  11.617  0.00  0.00    +0.160 C 
ENDBRANCH  28  29
ENDBRANCH  27  28
ENDBRANCH  26  27
ENDBRANCH  25  26
ENDBRANCH  20  22
BRANCH   2   4
ATOM      4  C   UNL     1      -5.855  -0.428  12.157  0.00  0.00    +0.219 A 
ATOM      5  N   UNL     1      -6.628   0.517  12.702  0.00  0.00    -0.107 N 
ATOM     13  N   UNL     1      -6.736   1.647  11.899  0.00  0.00    -0.167 NA
ATOM     14  C   UNL     1      -6.008   1.273  10.821  0.00  0.00    -0.004 A 
ATOM     19  C   UNL     1      -5.433  -0.013  10.891  0.00  0.00    +0.003 A 
BRANCH   5   6
ATOM      6  C   UNL     1      -7.218   0.554  13.911  0.00  0.00    +0.123 A 
ATOM      7  C   UNL     1      -8.482   1.129  14.103  0.00  0.00    +0.033 A 
ATOM      8  C   UNL     1      -9.076   1.231  15.360  0.00  0.00    -0.006 A 
ATOM      9  C   UNL     1      -8.394   0.772  16.479  0.00  0.00    -0.049 A 
ATOM     10  C   UNL     1      -9.050   0.881  17.837  0.00  0.00    +0.083 C 
ATOM     11  C   UNL     1      -7.125   0.221  16.344  0.00  0.00    -0.006 A 
ATOM     12  C   UNL     1      -6.544   0.141  15.070  0.00  0.00    +0.033 A 
ENDBRANCH   5   6
BRANCH  14  15
ATOM     15  C   UNL     1      -5.903   2.254   9.680  0.00  0.00    -0.046 C 
ATOM     16  C   UNL     1      -4.900   1.761   8.650  0.00  0.00    -0.047 C 
ATOM     17  C   UNL     1      -5.512   3.633  10.235  0.00  0.00    -0.047 C 
ATOM     18  C   UNL     1      -7.252   2.351   8.989  0.00  0.00    -0.047 C 
ENDBRANCH  14  15
ENDBRANCH   2   4
TORSDOF 8
