REMARK  Name = 5FBO
REMARK  6 active torsions:
REMARK  status: ('A' for Active; 'I' for Inactive)
REMARK    1  A    between atoms: C_7  and  C_10
REMARK    2  A    between atoms: C_9  and  C_17
REMARK    3  A    between atoms: C_14  and  C_37
REMARK    4  A    between atoms: C_20  and  C_24
REMARK    5  A    between atoms: C_31  and  C_33
REMARK    6  A    between atoms: C_38  and  C_40
REMARK                            x       y       z     vdW  Elec       q    Type
REMARK                         _______ _______ _______ _____ _____    ______ ____
ROOT
ATOM      1  N   UNL     1     -21.092   4.872 -19.542  0.00  0.00    -0.237 NA
ATOM      2  C   UNL     1     -20.884   5.065 -18.243  0.00  0.00    +0.142 A 
ATOM      3  N   UNL     1     -21.919   4.768 -17.416  0.00  0.00    -0.341 N 
ATOM      4  H   UNL     1     -21.815   4.902 -16.360  0.00  0.00    +0.144 HD
ATOM      5  H   UNL     1     -22.839   4.400 -17.821  0.00  0.00    +0.144 HD
ATOM      6  C   UNL     1     -19.615   5.559 -17.770  0.00  0.00    +0.114 A 
ATOM      7  C   UNL     1     -19.035   5.898 -16.597  0.00  0.00    +0.103 A 
ATOM     29  N   UNL     1     -17.759   6.351 -16.805  0.00  0.00    -0.231 NA
ATOM     30  C   UNL     1     -17.535   6.304 -18.127  0.00  0.00    +0.120 A 
ATOM     43  N   UNL     1     -18.674   5.880 -18.752  0.00  0.00    -0.298 N 
ATOM     44  C   UNL     1     -18.909   5.624 -20.100  0.00  0.00    +0.113 A 
ATOM     45  C   UNL     1     -20.140   5.124 -20.448  0.00  0.00    +0.131 A 
ENDROOT
BRANCH  30  31
ATOM     31  C   UNL     1     -16.277   6.706 -18.832  0.00  0.00    +0.073 C 
ATOM     32  C   UNL     1     -15.040   6.450 -17.965  0.00  0.00    +0.014 C 
ATOM     33  C   UNL     1     -13.791   7.031 -18.623  0.00  0.00    +0.023 C 
ATOM     34  C   UNL     1     -13.943   8.500 -19.002  0.00  0.00    +0.073 C 
ATOM     35  C   UNL     1     -13.979   9.435 -17.803  0.00  0.00    +0.028 C 
ATOM     36  N   UNL     1     -15.167   8.654 -19.878  0.00  0.00    -0.298 N 
ATOM     37  C   UNL     1     -15.178   9.051 -21.170  0.00  0.00    +0.219 C 
ATOM     41  O   UNL     1     -16.168   8.915 -21.851  0.00  0.00    -0.275 OA
ATOM     42  C   UNL     1     -16.384   8.197 -19.183  0.00  0.00    +0.119 C 
BRANCH  37  38
ATOM     38  C   UNL     1     -13.924   9.601 -21.821  0.00  0.00    +0.075 C 
ATOM     39  C   UNL     1     -13.393   8.753 -22.954  0.00  0.00    +0.013 C 
ATOM     40  C   UNL     1     -14.016  10.061 -23.258  0.00  0.00    +0.013 C 
ENDBRANCH  37  38
ENDBRANCH  30  31
BRANCH   7   8
ATOM      8  C   UNL     1     -19.496   5.802 -15.273  0.00  0.00    +0.038 A 
ATOM      9  C   UNL     1     -19.630   6.958 -14.503  0.00  0.00    +0.013 A 
ATOM     10  C   UNL     1     -20.033   6.888 -13.183  0.00  0.00    +0.014 A 
ATOM     11  C   UNL     1     -20.362   5.666 -12.604  0.00  0.00    +0.040 A 
ATOM     26  C   UNL     1     -20.194   4.500 -13.348  0.00  0.00    +0.052 A 
ATOM     27  C   UNL     1     -19.755   4.599 -14.640  0.00  0.00    +0.133 A 
ATOM     28  F   UNL     1     -19.643   3.451 -15.354  0.00  0.00    -0.205 F 
BRANCH  11  12
ATOM     12  C   UNL     1     -20.742   5.492 -11.166  0.00  0.00    +0.249 C 
ATOM     13  N   UNL     1     -21.039   6.623 -10.480  0.00  0.00    -0.266 N 
ATOM     14  H   UNL     1     -21.102   7.518 -11.063  0.00  0.00    +0.157 HD
ATOM     15  C   UNL     1     -21.275   6.772  -9.104  0.00  0.00    +0.126 A 
ATOM     16  C   UNL     1     -20.982   5.811  -8.126  0.00  0.00    +0.056 A 
ATOM     17  C   UNL     1     -21.273   6.112  -6.797  0.00  0.00    +0.059 A 
ATOM     22  C   UNL     1     -21.846   7.342  -6.510  0.00  0.00    +0.032 A 
ATOM     23  C   UNL     1     -22.088   8.232  -7.531  0.00  0.00    +0.113 A 
ATOM     24  N   UNL     1     -21.819   7.968  -8.819  0.00  0.00    -0.240 NA
ATOM     25  O   UNL     1     -20.732   4.381 -10.647  0.00  0.00    -0.270 OA
BRANCH  17  18
ATOM     18  C   UNL     1     -20.996   5.111  -5.718  0.00  0.00    +0.418 C 
ATOM     19  F   UNL     1     -21.935   5.088  -4.782  0.00  0.00    -0.166 F 
ATOM     20  F   UNL     1     -19.829   5.318  -5.112  0.00  0.00    -0.166 F 
ATOM     21  F   UNL     1     -20.964   3.844  -6.148  0.00  0.00    -0.166 F 
ENDBRANCH  17  18
ENDBRANCH  11  12
ENDBRANCH   7   8
TORSDOF 5
