REMARK  Name = 69G
REMARK  4 active torsions:
REMARK  status: ('A' for Active; 'I' for Inactive)
REMARK    1  A    between atoms: C4_1  and  C3_9
REMARK    2  A    between atoms: C4_1  and  N5_12
REMARK    3  A    between atoms: C7_4  and  C16_15
REMARK    4  A    between atoms: C20_19  and  C22_21
REMARK                            x       y       z     vdW  Elec       q    Type
REMARK                         _______ _______ _______ _____ _____    ______ ____
ROOT
ATOM      2  N   UNL     1     -18.532   4.244  10.509  0.00  0.00    -0.289 N 
ATOM      3  C   UNL     1     -19.104   4.713  11.639  0.00  0.00    +0.279 C 
ATOM      4  C   UNL     1     -18.429   5.684  12.400  0.00  0.00    +0.137 A 
ATOM      5  N   UNL     1     -18.738   6.337  13.570  0.00  0.00    -0.239 NA
ATOM      6  C   UNL     1     -17.721   7.188  13.875  0.00  0.00    +0.099 A 
ATOM      7  C   UNL     1     -16.753   7.108  12.938  0.00  0.00    +0.022 A 
ATOM      8  C   UNL     1     -17.171   6.158  11.986  0.00  0.00    +0.025 A 
ATOM      9  C   UNL     1     -16.593   5.624  10.741  0.00  0.00    +0.019 C 
ATOM     21  O   UNL     1     -20.197   4.291  12.002  0.00  0.00    -0.265 OA
ATOM     22  C   UNL     1     -17.319   4.693  10.065  0.00  0.00    +0.079 C 
ENDROOT
BRANCH   9  10
ATOM     10  C   UNL     1     -15.280   6.105  10.216  0.00  0.00    +0.002 A 
ATOM     11  C   UNL     1     -14.955   7.462  10.240  0.00  0.00    +0.005 A 
ATOM     12  C   UNL     1     -13.726   7.913   9.749  0.00  0.00    +0.054 A 
ATOM     18  C   UNL     1     -12.834   6.987   9.206  0.00  0.00    +0.004 A 
ATOM     19  C   UNL     1     -13.156   5.644   9.177  0.00  0.00    +0.000 A 
ATOM     20  C   UNL     1     -14.373   5.196   9.667  0.00  0.00    +0.000 A 
BRANCH  12  13
ATOM     13  C   UNL     1     -13.375   9.357   9.797  0.00  0.00    +0.249 C 
ATOM     14  N   UNL     1     -13.257   9.997  10.981  0.00  0.00    -0.273 N 
ATOM     15  C   UNL     1     -13.479   9.297  12.250  0.00  0.00    +0.115 C 
ATOM     16  C   UNL     1     -12.901  11.417  11.000  0.00  0.00    +0.115 C 
ATOM     17  O   UNL     1     -13.168   9.983   8.776  0.00  0.00    -0.270 OA
ENDBRANCH  12  13
ENDBRANCH   9  10
BRANCH   2   1
ATOM      1  C   UNL     1     -19.242   3.235   9.725  0.00  0.00    +0.135 C 
BRANCH   1  23
ATOM     23  C   UNL     1     -20.112   3.894   8.680  0.00  0.00    -0.006 C 
ATOM     24  C   UNL     1     -20.253   5.196   8.644  0.00  0.00    -0.028 C 
ATOM     25  C   UNL     1     -21.129   5.834   7.598  0.00  0.00    +0.030 C 
ENDBRANCH   1  23
ENDBRANCH   2   1
TORSDOF 4
