REMARK  Name = I3P
REMARK  6 active torsions:
REMARK  status: ('A' for Active; 'I' for Inactive)
REMARK    1  A    between atoms: C1_1  and  O1_7
REMARK    2  A    between atoms: C4_4  and  O4_10
REMARK    3  A    between atoms: C5_5  and  O5_11
REMARK    4  A    between atoms: O1_7  and  P1_13
REMARK    5  A    between atoms: O4_10  and  P4_17
REMARK    6  A    between atoms: O5_11  and  P5_21
REMARK                            x       y       z     vdW  Elec       q    Type
REMARK                         _______ _______ _______ _____ _____    ______ ____
ROOT
ATOM      1  C   UNL     1      15.085  17.279  35.384  0.00  0.00    +0.192 C 
ATOM      7  C   UNL     1      16.350  16.476  35.105  0.00  0.00    +0.212 C 
ATOM      8  O   UNL     1      17.422  17.005  35.882  0.00  0.00    -0.218 OA
ATOM      9  C   UNL     1      16.696  16.561  33.623  0.00  0.00    +0.189 C 
ATOM     15  C   UNL     1      15.535  16.065  32.765  0.00  0.00    +0.189 C 
ATOM     16  C   UNL     1      14.239  16.818  33.092  0.00  0.00    +0.215 C 
ATOM     17  O   UNL     1      13.132  16.316  32.319  0.00  0.00    -0.218 OA
ATOM     23  C   UNL     1      13.912  16.714  34.580  0.00  0.00    +0.215 C 
ATOM     24  O   UNL     1      13.662  15.348  34.932  0.00  0.00    -0.218 OA
ENDROOT
BRANCH   1   2
ATOM      2  O   UNL     1      14.803  17.277  36.785  0.00  0.00    -0.267 OA
BRANCH   2   3
ATOM      3  P   UNL     1      14.252  18.625  37.471  0.00  0.00    +0.533 P 
ATOM      4  O   UNL     1      13.814  18.178  38.837  0.00  0.00    -0.115 OA
ATOM      5  O   UNL     1      15.459  19.541  37.500  0.00  0.00    -0.115 OA
ATOM      6  O   UNL     1      13.122  19.047  36.553  0.00  0.00    -0.222 OA
ENDBRANCH   2   3
ENDBRANCH   1   2
BRANCH   9  10
ATOM     10  O   UNL     1      17.853  15.778  33.343  0.00  0.00    -0.267 OA
BRANCH  10  11
ATOM     11  P   UNL     1      19.342  16.401  33.234  0.00  0.00    +0.533 P 
ATOM     12  O   UNL     1      19.680  16.764  34.658  0.00  0.00    -0.115 OA
ATOM     13  O   UNL     1      20.183  15.275  32.673  0.00  0.00    -0.115 OA
ATOM     14  O   UNL     1      19.189  17.577  32.288  0.00  0.00    -0.222 OA
ENDBRANCH  10  11
ENDBRANCH   9  10
BRANCH  15  18
ATOM     18  O   UNL     1      15.896  16.261  31.410  0.00  0.00    -0.267 OA
BRANCH  18  19
ATOM     19  P   UNL     1      15.669  15.162  30.252  0.00  0.00    +0.533 P 
ATOM     20  O   UNL     1      16.423  13.946  30.713  0.00  0.00    -0.115 OA
ATOM     21  O   UNL     1      14.165  15.023  30.222  0.00  0.00    -0.115 OA
ATOM     22  O   UNL     1      16.217  15.802  28.992  0.00  0.00    -0.222 OA
ENDBRANCH  18  19
ENDBRANCH  15  18
TORSDOF 6
