REMARK  Name = 4n70_ligand
REMARK  7 active torsions:
REMARK  status: ('A' for Active; 'I' for Inactive)
REMARK    1  A    between atoms: C1_1  and  C14_14
REMARK    2  A    between atoms: N3_3  and  C7_7
REMARK    3  A    between atoms: C5_5  and  N25_25
REMARK    4  A    between atoms: C6_6  and  O33_33
REMARK    5  A    between atoms: C12_12  and  N13_13
REMARK    6  A    between atoms: C15_15  and  C16_16
REMARK    7  A    between atoms: C21_21  and  C23_23
REMARK                            x       y       z     vdW  Elec       q    Type
REMARK                         _______ _______ _______ _____ _____    ______ ____
ROOT
ATOM     13  C   UNL     1     -16.504  35.137  -2.719  0.00  0.00    +0.085 A 
ATOM     14  C   UNL     1     -17.023  35.273  -1.435  0.00  0.00    +0.113 A 
ATOM     34  C   UNL     1     -16.507  34.452  -0.427  0.00  0.00    +0.081 A 
ATOM     35  N   UNL     1     -15.581  33.492  -0.648  0.00  0.00    -0.333 NA
ATOM     36  C   UNL     1     -15.092  33.367  -1.891  0.00  0.00    +0.045 A 
ATOM     37  C   UNL     1     -15.539  34.149  -2.950  0.00  0.00    +0.026 A 
ENDROOT
BRANCH  13  12
ATOM      1  C   UNL     1     -18.928  37.004  -4.871  0.00  0.00    +0.042 C 
ATOM      2  C   UNL     1     -20.376  36.732  -5.299  0.00  0.00    +0.012 C 
ATOM      3  C   UNL     1     -17.985  37.337  -6.068  0.00  0.00    +0.169 C 
ATOM      6  C   UNL     1     -16.490  37.492  -5.570  0.00  0.00    +0.112 C 
ATOM     11  C   UNL     1     -16.024  36.202  -4.874  0.00  0.00    +0.186 C 
ATOM     12  N   UNL     1     -16.957  35.907  -3.782  0.00  0.00    -0.300 N 
ATOM     38  C   UNL     1     -18.396  35.779  -4.120  0.00  0.00    +0.136 C 
BRANCH   6   7
ATOM      7  N   UNL     1     -15.642  37.859  -6.717  0.00  0.00    +0.224 N 
ATOM      8  H   UNL     1     -15.695  37.137  -7.418  0.00  0.00    +0.200 HD
ATOM      9  H   UNL     1     -15.964  38.731  -7.107  0.00  0.00    +0.200 HD
ATOM     10  H   UNL     1     -14.687  37.960  -6.410  0.00  0.00    +0.200 HD
ENDBRANCH   6   7
BRANCH   3   4
ATOM      4  O   UNL     1     -18.350  38.591  -6.696  0.00  0.00    -0.386 OA
ATOM      5  H   UNL     1     -19.245  38.538  -7.010  0.00  0.00    +0.210 HD
ENDBRANCH   3   4
ENDBRANCH  13  12
BRANCH  14  15
ATOM     15  N   UNL     1     -17.984  36.268  -1.213  0.00  0.00    -0.229 N 
ATOM     16  H   UNL     1     -18.420  36.670  -2.018  0.00  0.00    +0.224 HD
ATOM     17  C   UNL     1     -18.379  36.739   0.019  0.00  0.00    +0.247 C 
ATOM     18  O   UNL     1     -18.022  36.328   1.106  0.00  0.00    -0.370 OA
BRANCH  17  19
ATOM     19  C   UNL     1     -19.303  37.903  -0.004  0.00  0.00    +0.121 A 
ATOM     20  N   UNL     1     -19.595  38.334  -1.267  0.00  0.00    -0.276 NA
ATOM     21  C   UNL     1     -20.398  39.438  -1.392  0.00  0.00    +0.092 A 
ATOM     30  C   UNL     1     -20.900  40.094  -0.268  0.00  0.00    +0.171 A 
ATOM     31  F   UNL     1     -21.704  41.173  -0.434  0.00  0.00    -0.170 F 
ATOM     32  C   UNL     1     -20.596  39.620   1.039  0.00  0.00    +0.068 A 
ATOM     33  C   UNL     1     -19.772  38.496   1.204  0.00  0.00    +0.056 A 
BRANCH  21  22
ATOM     22  C   UNL     1     -20.737  39.874  -2.757  0.00  0.00    +0.069 A 
ATOM     23  C   UNL     1     -19.739  40.217  -3.700  0.00  0.00    +0.143 A 
ATOM     24  F   UNL     1     -18.453  40.089  -3.440  0.00  0.00    -0.181 F 
ATOM     25  C   UNL     1     -20.239  40.561  -4.941  0.00  0.00    +0.028 A 
ATOM     26  C   UNL     1     -21.493  40.804  -5.468  0.00  0.00    -0.003 A 
ATOM     27  C   UNL     1     -22.482  40.449  -4.501  0.00  0.00    +0.028 A 
ATOM     28  C   UNL     1     -22.108  40.016  -3.192  0.00  0.00    +0.143 A 
ATOM     29  F   UNL     1     -23.065  39.688  -2.289  0.00  0.00    -0.181 F 
ENDBRANCH  21  22
ENDBRANCH  17  19
ENDBRANCH  14  15
TORSDOF 6
