REMARK  Name = 2ZI5
REMARK  8 active torsions:
REMARK  status: ('A' for Active; 'I' for Inactive)
REMARK    1  A    between atoms: N_1  and  C_9
REMARK    2  A    between atoms: C_10  and  O_11
REMARK    3  A    between atoms: C_12  and  O_15
REMARK    4  A    between atoms: C_13  and  C_16
REMARK    5  A    between atoms: C_16  and  O_17
REMARK    6  A    between atoms: O_17  and  P_18
REMARK    7  A    between atoms: P_18  and  O_21
REMARK    8  A    between atoms: O_21  and  P_22
REMARK                            x       y       z     vdW  Elec       q    Type
REMARK                         _______ _______ _______ _____ _____    ______ ____
ROOT
ATOM      2  C   UNL     1     112.638   5.974 -14.320  0.00  0.00    +0.255 C 
ATOM      3  O   UNL     1     112.008   7.231 -14.469  0.00  0.00    -0.346 OA
ATOM      4  C   UNL     1     111.743   7.757 -13.165  0.00  0.00    +0.178 C 
ATOM     15  C   UNL     1     112.489   6.921 -12.150  0.00  0.00    +0.178 C 
ATOM     18  C   UNL     1     113.327   6.004 -12.992  0.00  0.00    +0.195 C 
ENDROOT
BRANCH   2   1
ATOM      1  N   UNL     1     113.517   5.742 -15.466  0.00  0.00    -0.272 N 
ATOM     21  C   UNL     1     114.521   6.610 -15.758  0.00  0.00    +0.098 C 
ATOM     22  C   UNL     1     115.461   6.302 -16.743  0.00  0.00    +0.088 C 
ATOM     23  C   UNL     1     115.284   5.114 -17.467  0.00  0.00    +0.254 C 
ATOM     24  O   UNL     1     116.070   4.787 -18.348  0.00  0.00    -0.268 OA
ATOM     25  N   UNL     1     114.163   4.341 -17.278  0.00  0.00    -0.275 N 
ATOM     26  H   UNL     1     113.921   3.567 -17.976  0.00  0.00    +0.173 HD
ATOM     27  C   UNL     1     113.357   4.565 -16.195  0.00  0.00    +0.331 C 
ATOM     28  O   UNL     1     112.452   3.787 -15.972  0.00  0.00    -0.246 OA
ENDBRANCH   2   1
BRANCH  15  16
ATOM     16  O   UNL     1     111.545   6.211 -11.417  0.00  0.00    -0.386 OA
ATOM     17  H   UNL     1     110.913   5.689 -12.073  0.00  0.00    +0.210 HD
ENDBRANCH  15  16
BRANCH  18  19
ATOM     19  O   UNL     1     113.495   4.752 -12.418  0.00  0.00    -0.385 OA
ATOM     20  H   UNL     1     112.556   4.305 -12.271  0.00  0.00    +0.210 HD
ENDBRANCH  18  19
BRANCH   4   5
ATOM      5  C   UNL     1     112.223   9.219 -13.053  0.00  0.00    +0.202 C 
BRANCH   5   6
ATOM      6  O   UNL     1     113.632   9.269 -13.464  0.00  0.00    -0.325 OA
BRANCH   6   7
ATOM      7  P   UNL     1     114.598  10.185 -12.587  0.00  0.00    +0.215 P 
ATOM     13  O   UNL     1     115.992   9.792 -12.759  0.00  0.00    -0.517 OA
ATOM     14  O   UNL     1     114.264  10.404 -11.178  0.00  0.00    -0.437 OA
BRANCH   7   8
ATOM      8  O   UNL     1     114.367  11.583 -13.425  0.00  0.00    -0.314 OA
BRANCH   8   9
ATOM      9  P   UNL     1     114.879  13.073 -12.946  0.00  0.00    -0.007 P 
ATOM     10  O   UNL     1     115.324  13.707 -14.170  0.00  0.00    -0.637 OA
ATOM     11  O   UNL     1     113.696  13.862 -12.508  0.00  0.00    -0.577 OA
ATOM     12  O   UNL     1     115.772  12.792 -11.818  0.00  0.00    -0.577 OA
ENDBRANCH   8   9
ENDBRANCH   7   8
ENDBRANCH   6   7
ENDBRANCH   5   6
ENDBRANCH   4   5
TORSDOF 8
