REMARK  Name = 4LL5
REMARK  2 active torsions:
REMARK  status: ('A' for Active; 'I' for Inactive)
REMARK    1  A    between atoms: C_6  and  C_7
REMARK    2  A    between atoms: C_8  and  C_15
REMARK                            x       y       z     vdW  Elec       q    Type
REMARK                         _______ _______ _______ _____ _____    ______ ____
ROOT
ATOM      3  C   UNL     1      72.008-119.849   1.531  0.00  0.00    +0.098 A 
ATOM      4  N   UNL     1      71.995-119.162   0.296  0.00  0.00    -0.221 NA
ATOM      5  C   UNL     1      71.508-117.943   0.544  0.00  0.00    +0.178 A 
ATOM      6  S   UNL     1      71.215-116.574  -0.473  0.00  0.00    -0.058 S 
ATOM      7  C   UNL     1      70.544-115.581   0.858  0.00  0.00    +0.067 A 
ATOM      8  C   UNL     1      70.636-116.385   2.173  0.00  0.00    +0.101 A 
ATOM      9  N   UNL     1      71.176-117.746   1.892  0.00  0.00    -0.293 N 
ATOM     10  C   UNL     1      71.487-118.977   2.539  0.00  0.00    +0.082 A 
ENDROOT
BRANCH   3   2
ATOM      1  C   UNL     1      72.844-121.960   2.753  0.00  0.00    +0.013 A 
ATOM      2  C   UNL     1      72.496-121.280   1.566  0.00  0.00    +0.003 A 
ATOM     17  C   UNL     1      72.630-122.037   0.381  0.00  0.00    +0.013 A 
ATOM     18  C   UNL     1      73.074-123.364   0.355  0.00  0.00    +0.039 A 
ATOM     19  C   UNL     1      73.399-123.978   1.557  0.00  0.00    +0.123 A 
ATOM     20  F   UNL     1      73.829-125.257   1.553  0.00  0.00    -0.205 F 
ATOM     21  C   UNL     1      73.289-123.294   2.766  0.00  0.00    +0.039 A 
ENDBRANCH   3   2
BRANCH  10  11
ATOM     11  C   UNL     1      71.278-119.173   4.002  0.00  0.00    +0.004 A 
ATOM     12  C   UNL     1      71.746-118.284   4.978  0.00  0.00    +0.029 A 
ATOM     13  C   UNL     1      71.491-118.541   6.338  0.00  0.00    +0.111 A 
ATOM     14  N   UNL     1      70.802-119.616   6.791  0.00  0.00    -0.263 NA
ATOM     15  C   UNL     1      70.344-120.474   5.839  0.00  0.00    +0.111 A 
ATOM     16  C   UNL     1      70.550-120.289   4.457  0.00  0.00    +0.029 A 
ENDBRANCH  10  11
TORSDOF 2
