REMARK  Name = 4ZXT
REMARK  2 active torsions:
REMARK  status: ('A' for Active; 'I' for Inactive)
REMARK    1  A    between atoms: C_3  and  O_4
REMARK    2  A    between atoms: C_5  and  O_6
REMARK                            x       y       z     vdW  Elec       q    Type
REMARK                         _______ _______ _______ _____ _____    ______ ____
ROOT
ATOM      1  C   UNL     1     -14.062  12.716  40.450  0.00  0.00    +0.004 A 
ATOM      2  C   UNL     1     -14.967  13.496  41.161  0.00  0.00    +0.004 A 
ATOM      3  C   UNL     1     -16.244  13.012  41.420  0.00  0.00    +0.049 A 
ATOM      4  C   UNL     1     -16.594  11.748  40.969  0.00  0.00    +0.158 A 
ATOM      7  C   UNL     1     -15.700  10.980  40.262  0.00  0.00    +0.158 A 
ATOM     10  C   UNL     1     -14.424  11.459  39.993  0.00  0.00    +0.049 A 
ENDROOT
BRANCH   4   5
ATOM      5  O   UNL     1     -17.829  11.192  41.177  0.00  0.00    -0.503 OA
ATOM      6  H   UNL     1     -18.455  11.746  40.888  0.00  0.00    +0.292 HD
ENDBRANCH   4   5
BRANCH   7   8
ATOM      8  O   UNL     1     -16.133   9.739  39.854  0.00  0.00    -0.503 OA
ATOM      9  H   UNL     1     -15.463   9.302  39.476  0.00  0.00    +0.292 HD
ENDBRANCH   7   8
TORSDOF 2
