REMARK  Name = 13J
REMARK  6 active torsions:
REMARK  status: ('A' for Active; 'I' for Inactive)
REMARK    1  A    between atoms: C13_5  and  C29_29
REMARK    2  A    between atoms: C18_9  and  C12_19
REMARK    3  A    between atoms: C19_11  and  C28_28
REMARK    4  A    between atoms: C11_18  and  C15_21
REMARK    5  A    between atoms: C14_20  and  N36_36
REMARK    6  A    between atoms: C24_25  and  N33_33
REMARK                            x       y       z     vdW  Elec       q    Type
REMARK                         _______ _______ _______ _____ _____    ______ ____
ROOT
ATOM     10  C   UNL     1       3.765   6.039  20.949  0.00  0.00    +0.107 A 
ATOM     11  C   UNL     1       3.657   5.110  22.028  0.00  0.00    +0.090 A 
ATOM     12  C   UNL     1       2.687   4.313  22.624  0.00  0.00    +0.176 A 
ATOM     13  N   UNL     1       3.038   3.523  23.660  0.00  0.00    -0.205 NA
ATOM     14  C   UNL     1       4.316   3.520  24.075  0.00  0.00    +0.202 A 
ATOM     15  N   UNL     1       5.335   4.221  23.571  0.00  0.00    -0.205 NA
ATOM     16  N   UNL     1       1.351   4.340  22.232  0.00  0.00    -0.107 NA
ATOM     17  C   UNL     1       4.930   5.008  22.559  0.00  0.00    +0.165 A 
ATOM     18  N   UNL     1       5.722   5.854  21.837  0.00  0.00    -0.234 N 
ATOM     29  N   UNL     1       5.028   6.463  20.863  0.00  0.00    -0.168 NA
ENDROOT
BRANCH  18  19
ATOM     19  C   UNL     1       7.156   6.080  21.911  0.00  0.00    +0.127 C 
ATOM     20  C   UNL     1       7.662   6.390  23.319  0.00  0.00    +0.028 C 
ATOM     21  C   UNL     1       9.176   6.519  23.353  0.00  0.00    +0.024 C 
ATOM     22  C   UNL     1       9.827   5.288  22.758  0.00  0.00    +0.094 C 
ATOM     23  N   UNL     1       9.377   5.141  21.398  0.00  0.00    -0.278 N 
ATOM     24  C   UNL     1      10.279   5.498  20.408  0.00  0.00    +0.226 C 
ATOM     25  O   UNL     1      11.421   5.911  20.614  0.00  0.00    -0.275 OA
ATOM     28  C   UNL     1       7.934   4.938  21.244  0.00  0.00    +0.118 C 
BRANCH  24  26
ATOM     26  C   UNL     1       9.817   5.288  19.005  0.00  0.00    +0.085 C 
ATOM     27  C   UNL     1      10.806   4.269  18.442  0.00  0.00    +0.010 C 
ENDBRANCH  24  26
ENDBRANCH  18  19
BRANCH  10   9
ATOM      7  C   UNL     1       2.012   8.268  18.496  0.00  0.00    +0.055 A 
ATOM      8  C   UNL     1       2.867   7.835  19.502  0.00  0.00    +0.006 A 
ATOM      9  C   UNL     1       2.822   6.517  19.951  0.00  0.00    +0.020 A 
ATOM     30  C   UNL     1       1.897   5.666  19.366  0.00  0.00    +0.002 A 
ATOM     31  C   UNL     1       1.025   6.100  18.383  0.00  0.00    +0.000 A 
ATOM     32  C   UNL     1       1.095   7.401  17.917  0.00  0.00    +0.005 A 
BRANCH   7   5
ATOM      4  N   UNL     1       1.786   9.841  16.692  0.00  0.00    -0.175 NA
ATOM      5  C   UNL     1       2.131   9.647  18.006  0.00  0.00    +0.269 C 
ATOM      6  O   UNL     1       2.537  10.529  18.750  0.00  0.00    -0.268 OA
BRANCH   4   3
ATOM      1  C   UNL     1       1.413  13.396  15.887  0.00  0.00    -0.003 A 
ATOM      2  C   UNL     1       1.294  12.196  16.549  0.00  0.00    +0.016 A 
ATOM      3  C   UNL     1       1.920  11.078  16.025  0.00  0.00    +0.074 A 
ATOM     33  C   UNL     1       2.633  11.152  14.842  0.00  0.00    +0.016 A 
ATOM     34  C   UNL     1       2.733  12.361  14.170  0.00  0.00    -0.003 A 
ATOM     35  C   UNL     1       2.122  13.484  14.709  0.00  0.00    -0.022 A 
BRANCH  35  36
ATOM     36  C   UNL     1       2.102  14.833  14.062  0.00  0.00    +0.022 C 
ATOM     37  C   UNL     1       3.351  15.655  14.186  0.00  0.00    +0.005 C 
ATOM     38  C   UNL     1       1.485  14.831  12.679  0.00  0.00    +0.005 C 
ENDBRANCH  35  36
ENDBRANCH   4   3
ENDBRANCH   7   5
ENDBRANCH  10   9
TORSDOF 6
