REMARK  Name = 446
REMARK  9 active torsions:
REMARK  status: ('A' for Active; 'I' for Inactive)
REMARK    1  A    between atoms: C10_4  and  C15_7
REMARK    2  A    between atoms: N12_5  and  C16_15
REMARK    3  A    between atoms: C17_8  and  C11_13
REMARK    4  A    between atoms: C17_8  and  O18_16
REMARK    5  A    between atoms: C16_15  and  C25_20
REMARK    6  A    between atoms: C40_27  and  N47_30
REMARK    7  A    between atoms: C48_31  and  C49_32
REMARK    8  A    between atoms: C49_32  and  C50_33
REMARK    9  A    between atoms: C50_33  and  C53_34
REMARK                            x       y       z     vdW  Elec       q    Type
REMARK                         _______ _______ _______ _____ _____    ______ ____
ROOT
ATOM      1  B   UNL     1      23.910   2.000   6.000  0.00  0.00    +0.000 B 
ENDROOT
TORSDOF 0
