REMARK  Name = 4WNM
REMARK  4 active torsions:
REMARK  status: ('A' for Active; 'I' for Inactive)
REMARK    1  A    between atoms: C_1  and  C_3
REMARK    2  A    between atoms: C_1  and  C_25
REMARK    3  A    between atoms: C_12  and  N_26
REMARK    4  A    between atoms: C_19  and  N_29
REMARK                            x       y       z     vdW  Elec       q    Type
REMARK                         _______ _______ _______ _____ _____    ______ ____
ROOT
ATOM      8  C   UNL     1      -4.097  -1.240  14.080  0.00  0.00    +0.045 A 
ATOM      9  N   UNL     1      -3.618  -0.288  15.020  0.00  0.00    -0.215 N 
ATOM     10  N   UNL     1      -2.505   0.260  15.164  0.00  0.00    -0.129 NA
ATOM     11  C   UNL     1      -2.560   1.105  16.199  0.00  0.00    +0.239 A 
ATOM     12  N   UNL     1      -1.526   1.868  16.701  0.00  0.00    -0.282 N 
ATOM     13  H   UNL     1      -1.719   2.530  17.520  0.00  0.00    +0.155 HD
ATOM     32  N   UNL     1      -3.796   1.056  16.695  0.00  0.00    -0.194 NA
ATOM     33  C   UNL     1      -4.466   0.201  15.980  0.00  0.00    +0.158 A 
ATOM     34  C   UNL     1      -5.797  -0.247  16.042  0.00  0.00    +0.048 A 
ATOM     35  C   UNL     1      -6.269  -1.169  15.117  0.00  0.00    +0.005 A 
ATOM     36  C   UNL     1      -5.412  -1.669  14.136  0.00  0.00    +0.023 A 
ENDROOT
BRANCH  12  14
ATOM     14  C   UNL     1      -0.277   1.804  16.189  0.00  0.00    +0.036 A 
ATOM     15  C   UNL     1       0.116   0.757  15.349  0.00  0.00    +0.051 A 
ATOM     16  C   UNL     1       1.426   0.739  14.822  0.00  0.00    +0.069 A 
ATOM     17  N   UNL     1       2.075  -0.126  13.990  0.00  0.00    -0.275 N 
ATOM     18  H   UNL     1       1.646  -1.008  13.562  0.00  0.00    +0.189 HD
ATOM     19  N   UNL     1       3.264   0.273  13.800  0.00  0.00    -0.158 NA
ATOM     20  C   UNL     1       3.465   1.426  14.478  0.00  0.00    +0.148 A 
ATOM     21  N   UNL     1       4.594   2.158  14.495  0.00  0.00    -0.324 N 
ATOM     22  H   UNL     1       4.554   3.180  14.809  0.00  0.00    +0.148 HD
ATOM     29  C   UNL     1       2.301   1.723  15.134  0.00  0.00    +0.041 A 
ATOM     30  C   UNL     1       1.930   2.763  15.969  0.00  0.00    +0.015 A 
ATOM     31  C   UNL     1       0.643   2.800  16.512  0.00  0.00    +0.024 A 
BRANCH  21  23
ATOM     23  C   UNL     1       5.885   1.573  14.088  0.00  0.00    +0.076 C 
ATOM     24  C   UNL     1       6.227   0.382  15.020  0.00  0.00    +0.050 C 
ATOM     25  C   UNL     1       7.656  -0.130  14.718  0.00  0.00    +0.161 C 
ATOM     26  O   UNL     1       8.596   0.928  14.958  0.00  0.00    -0.380 OA
ATOM     27  C   UNL     1       8.380   2.011  13.982  0.00  0.00    +0.161 C 
ATOM     28  C   UNL     1       6.992   2.655  14.190  0.00  0.00    +0.050 C 
ENDBRANCH  21  23
ENDBRANCH  12  14
BRANCH   8   1
ATOM      1  C   UNL     1      -3.169  -1.801  13.034  0.00  0.00    +0.059 C 
BRANCH   1   2
ATOM      2  C   UNL     1      -2.326  -2.942  13.640  0.00  0.00    -0.001 C 
ATOM      3  C   UNL     1      -1.164  -3.294  12.721  0.00  0.00    +0.032 C 
ATOM      4  C   UNL     1      -0.349  -4.401  13.375  0.00  0.00    +0.160 C 
ATOM      5  O   UNL     1      -1.171  -5.544  13.544  0.00  0.00    -0.380 OA
ATOM      6  C   UNL     1      -2.317  -5.264  14.423  0.00  0.00    +0.160 C 
ATOM      7  C   UNL     1      -3.180  -4.163  13.833  0.00  0.00    +0.032 C 
ENDBRANCH   1   2
ENDBRANCH   8   1
TORSDOF 4
