REMARK  Name = 3BM
REMARK  7 active torsions:
REMARK  status: ('A' for Active; 'I' for Inactive)
REMARK    1  A    between atoms: C01_1  and  N07_7
REMARK    2  A    between atoms: N07_7  and  C08_8
REMARK    3  A    between atoms: C09_9  and  C14_14
REMARK    4  A    between atoms: N15_15  and  O17_17
REMARK    5  A    between atoms: O17_17  and  C18_18
REMARK    6  A    between atoms: C18_18  and  C19_19
REMARK    7  A    between atoms: C19_19  and  C20_20
REMARK                            x       y       z     vdW  Elec       q    Type
REMARK                         _______ _______ _______ _____ _____    ______ ____
ROOT
ATOM      1  C   UNL     1      -0.870   3.000   2.000  0.00  0.00    +0.000 C 
ENDROOT
TORSDOF 0
