REMARK  Name = 4YZC
REMARK  6 active torsions:
REMARK  status: ('A' for Active; 'I' for Inactive)
REMARK    1  A    between atoms: C_4  and  N_34
REMARK    2  A    between atoms: C_5  and  O_32
REMARK    3  A    between atoms: C_6  and  C_7
REMARK    4  A    between atoms: C_23  and  O_24
REMARK    5  A    between atoms: O_32  and  C_33
REMARK    6  A    between atoms: N_34  and  C_35
REMARK                            x       y       z     vdW  Elec       q    Type
REMARK                         _______ _______ _______ _____ _____    ______ ____
ROOT
ATOM      1  O   UNL     1     -20.084  35.708 -53.719  0.00  0.00    -0.330 OA
ATOM      2  C   UNL     1     -18.877  35.748 -53.024  0.00  0.00    +0.169 C 
ATOM      3  N   UNL     1     -17.844  35.041 -53.767  0.00  0.00    -0.281 N 
ATOM      4  C   UNL     1     -16.430  35.278 -53.924  0.00  0.00    +0.041 A 
ATOM      5  C   UNL     1     -15.597  36.263 -53.412  0.00  0.00    +0.024 A 
ATOM      6  C   UNL     1     -14.228  36.268 -53.727  0.00  0.00    +0.002 A 
ATOM      7  C   UNL     1     -13.697  35.271 -54.567  0.00  0.00    +0.001 A 
ATOM      8  C   UNL     1     -14.550  34.280 -55.083  0.00  0.00    +0.010 A 
ATOM      9  C   UNL     1     -15.908  34.283 -54.762  0.00  0.00    +0.002 A 
ATOM     10  C   UNL     1     -16.977  33.416 -55.137  0.00  0.00    -0.001 C 
ATOM     11  C   UNL     1     -17.040  32.268 -55.947  0.00  0.00    -0.012 C 
ATOM     12  C   UNL     1     -15.872  31.589 -56.710  0.00  0.00    +0.141 C 
ATOM     13  N   UNL     1     -16.559  30.417 -57.300  0.00  0.00    -0.311 N 
ATOM     14  H   UNL     1     -16.181  29.795 -57.851  0.00  0.00    +0.149 HD
ATOM     15  C   UNL     1     -17.954  30.530 -56.989  0.00  0.00    +0.186 C 
ATOM     18  C   UNL     1     -18.209  31.606 -56.151  0.00  0.00    +0.046 C 
ATOM     19  C   UNL     1     -19.397  32.067 -55.544  0.00  0.00    +0.018 A 
ATOM     20  C   UNL     1     -20.761  31.628 -55.541  0.00  0.00    +0.008 A 
ATOM     21  C   UNL     1     -21.444  30.557 -56.154  0.00  0.00    +0.010 A 
ATOM     22  C   UNL     1     -22.835  30.386 -55.954  0.00  0.00    +0.001 A 
ATOM     23  C   UNL     1     -23.544  31.283 -55.141  0.00  0.00    +0.002 A 
ATOM     24  C   UNL     1     -22.861  32.337 -54.541  0.00  0.00    +0.026 A 
ATOM     25  C   UNL     1     -21.506  32.488 -54.753  0.00  0.00    +0.052 A 
ATOM     26  N   UNL     1     -20.663  33.528 -54.182  0.00  0.00    -0.314 N 
ATOM     27  C   UNL     1     -19.303  33.234 -54.731  0.00  0.00    +0.061 A 
ATOM     28  C   UNL     1     -18.137  33.888 -54.531  0.00  0.00    +0.135 C 
ATOM     29  C   UNL     1     -18.540  37.187 -52.896  0.00  0.00    +0.067 C 
ATOM     30  C   UNL     1     -19.048  35.128 -51.670  0.00  0.00    +0.216 C 
ATOM     33  C   UNL     1     -20.460  35.269 -51.239  0.00  0.00    +0.100 C 
ATOM     38  C   UNL     1     -21.357  34.392 -52.068  0.00  0.00    +0.111 C 
ATOM     39  C   UNL     1     -21.111  34.656 -53.571  0.00  0.00    +0.227 C 
ENDROOT
BRANCH  33  34
ATOM     34  N   UNL     1     -20.563  34.887 -49.839  0.00  0.00    +0.229 N 
ATOM     35  H   UNL     1     -19.891  34.078 -49.643  0.00  0.00    +0.201 HD
ATOM     36  H   UNL     1     -21.566  34.577 -49.630  0.00  0.00    +0.201 HD
ATOM     37  C   UNL     1     -20.222  36.008 -48.988  0.00  0.00    +0.189 C 
ENDBRANCH  33  34
BRANCH  15  16
ATOM     16  O   UNL     1     -18.878  29.618 -57.526  0.00  0.00    -0.495 OA
ATOM     17  H   UNL     1     -19.373  29.119 -56.745  0.00  0.00    +0.293 HD
ENDBRANCH  15  16
BRANCH  30  31
ATOM     31  O   UNL     1     -18.703  33.737 -51.704  0.00  0.00    -0.370 OA
ATOM     32  C   UNL     1     -17.381  33.422 -51.237  0.00  0.00    +0.195 C 
ENDBRANCH  30  31
TORSDOF 3
