REMARK  Name = 4WT6
REMARK  2 active torsions:
REMARK  status: ('A' for Active; 'I' for Inactive)
REMARK    1  A    between atoms: C_5  and  N_6
REMARK    2  A    between atoms: C_21  and  C_22
REMARK                            x       y       z     vdW  Elec       q    Type
REMARK                         _______ _______ _______ _____ _____    ______ ____
ROOT
ATOM      3  N   UNL     1     -42.693  -2.179   4.847  0.00  0.00    -0.231 N 
ATOM      4  H   UNL     1     -42.826  -2.308   5.901  0.00  0.00    +0.292 HD
ATOM      5  C   UNL     1     -43.763  -1.909   4.103  0.00  0.00    +0.312 C 
ATOM      6  C   UNL     1     -44.979  -1.642   4.717  0.00  0.00    +0.095 C 
ATOM      7  C   UNL     1     -46.078  -1.338   3.916  0.00  0.00    -0.011 C 
ATOM      8  C   UNL     1     -45.932  -1.319   2.533  0.00  0.00    +0.112 C 
ATOM      9  C   UNL     1     -44.683  -1.586   1.963  0.00  0.00    +0.166 C 
ATOM     10  C   UNL     1     -44.518  -1.596   0.570  0.00  0.00    +0.049 C 
ATOM     11  C   UNL     1     -45.447  -1.390  -0.367  0.00  0.00    +0.124 C 
ATOM     12  N   UNL     1     -44.891  -1.524  -1.578  0.00  0.00    -0.254 NA
ATOM     13  C   UNL     1     -43.608  -1.822  -1.441  0.00  0.00    +0.072 A 
ATOM     14  C   UNL     1     -42.627  -2.057  -2.380  0.00  0.00    +0.029 A 
ATOM     15  C   UNL     1     -41.337  -2.356  -1.957  0.00  0.00    +0.012 A 
ATOM     16  C   UNL     1     -41.027  -2.415  -0.593  0.00  0.00    +0.010 A 
ATOM     25  C   UNL     1     -42.031  -2.191   0.351  0.00  0.00    +0.021 A 
ATOM     26  C   UNL     1     -43.323  -1.890  -0.082  0.00  0.00    +0.013 A 
ATOM     27  N   UNL     1     -43.645  -1.876   2.767  0.00  0.00    -0.046 NA
ENDROOT
BRANCH  16  17
ATOM     17  C   UNL     1     -39.732  -2.750  -0.231  0.00  0.00    +0.134 A 
ATOM     18  N   UNL     1     -38.696  -2.998  -1.063  0.00  0.00    -0.140 NA
ATOM     19  N   UNL     1     -37.624  -3.313  -0.506  0.00  0.00    -0.126 NA
ATOM     20  C   UNL     1     -37.682  -3.382   0.835  0.00  0.00    +0.179 A 
ATOM     21  N   UNL     1     -36.699  -3.714   1.642  0.00  0.00    -0.336 N 
ATOM     22  H   UNL     1     -35.732  -3.937   1.243  0.00  0.00    +0.144 HD
ATOM     23  H   UNL     1     -36.866  -3.761   2.698  0.00  0.00    +0.144 HD
ATOM     24  S   UNL     1     -39.190  -3.027   1.376  0.00  0.00    -0.031 S 
ENDBRANCH  16  17
BRANCH   3   2
ATOM      1  C   UNL     1     -40.381  -2.863   5.365  0.00  0.00    +0.047 C 
ATOM      2  C   UNL     1     -41.320  -2.310   4.285  0.00  0.00    +0.165 C 
ATOM     28  C   UNL     1     -40.743  -0.938   3.905  0.00  0.00    +0.047 C 
ATOM     29  C   UNL     1     -39.523  -0.740   4.809  0.00  0.00    +0.004 C 
ATOM     30  C   UNL     1     -39.065  -2.162   5.107  0.00  0.00    +0.004 C 
ENDBRANCH   3   2
TORSDOF 2
