REMARK  Name = 4l52_ligand
REMARK  4 active torsions:
REMARK  status: ('A' for Active; 'I' for Inactive)
REMARK    1  A    between atoms: C1_2  and  C23_3
REMARK    2  A    between atoms: C4_7  and  N2_10
REMARK    3  A    between atoms: C6_12  and  C8_15
REMARK    4  A    between atoms: C11_23  and  C15_25
REMARK                            x       y       z     vdW  Elec       q    Type
REMARK                         _______ _______ _______ _____ _____    ______ ____
ROOT
ATOM     11  C   UNL     1     -15.773 -48.547 -16.695  0.00  0.00    -0.033 A 
ATOM     12  C   UNL     1     -14.517 -49.151 -16.792  0.00  0.00    -0.002 A 
ATOM     13  C   UNL     1     -13.888 -50.225 -17.514  0.00  0.00    +0.002 A 
ATOM     14  C   UNL     1     -12.536 -50.301 -17.135  0.00  0.00    +0.127 A 
ATOM     24  O   UNL     1     -12.324 -49.386 -16.287  0.00  0.00    -0.249 OA
ATOM     25  C   UNL     1     -13.497 -48.650 -16.036  0.00  0.00    +0.166 A 
ATOM     26  C   UNL     1     -13.629 -47.595 -15.170  0.00  0.00    +0.136 A 
ATOM     27  N   UNL     1     -12.582 -47.141 -14.443  0.00  0.00    -0.326 N 
ATOM     28  H   UNL     1     -12.706 -46.343 -13.803  0.00  0.00    +0.174 HD
ATOM     29  H   UNL     1     -11.661 -47.593 -14.529  0.00  0.00    +0.174 HD
ATOM     30  N   UNL     1     -14.837 -47.028 -15.079  0.00  0.00    -0.311 NA
ATOM     31  C   UNL     1     -15.884 -47.480 -15.799  0.00  0.00    +0.036 A 
ENDROOT
BRANCH  14  15
ATOM     15  C   UNL     1     -11.583 -51.180 -17.619  0.00  0.00    +0.042 A 
ATOM     16  C   UNL     1     -11.819 -51.990 -18.735  0.00  0.00    +0.014 A 
ATOM     17  C   UNL     1     -10.825 -52.849 -19.197  0.00  0.00    -0.002 A 
ATOM     18  C   UNL     1      -9.579 -52.887 -18.563  0.00  0.00    +0.031 A 
ATOM     19  C   UNL     1      -9.329 -52.064 -17.468  0.00  0.00    +0.102 A 
ATOM     20  N   UNL     1      -8.215 -51.921 -16.688  0.00  0.00    -0.163 NA
ATOM     21  N   UNL     1      -8.264 -50.970 -15.622  0.00  0.00    -0.119 NA
ATOM     22  S   UNL     1      -9.885 -50.228 -15.631  0.00  0.00    +0.064 S 
ATOM     23  C   UNL     1     -10.340 -51.220 -17.024  0.00  0.00    +0.089 A 
ENDBRANCH  14  15
BRANCH  11  10
ATOM      7  N   UNL     1     -18.979 -49.034 -18.090  0.00  0.00    -0.202 N 
ATOM      8  N   UNL     1     -18.302 -50.023 -18.810  0.00  0.00    -0.214 NA
ATOM      9  C   UNL     1     -17.019 -49.952 -18.381  0.00  0.00    +0.071 A 
ATOM     10  C   UNL     1     -16.906 -48.954 -17.409  0.00  0.00    -0.006 A 
ATOM     32  C   UNL     1     -18.171 -48.402 -17.255  0.00  0.00    +0.162 A 
BRANCH   7   6
ATOM      1  O   UNL     1     -23.486 -49.985 -21.718  0.00  0.00    -0.397 OA
ATOM      2  C   UNL     1     -23.171 -48.901 -21.241  0.00  0.00    +0.175 C 
ATOM      3  N   UNL     1     -22.717 -48.790 -19.975  0.00  0.00    -0.273 N 
ATOM      4  C   UNL     1     -22.560 -49.957 -19.098  0.00  0.00    +0.141 C 
ATOM      5  C   UNL     1     -21.053 -50.155 -18.932  0.00  0.00    +0.064 C 
ATOM      6  C   UNL     1     -20.443 -48.885 -18.324  0.00  0.00    +0.154 C 
ATOM     33  C   UNL     1     -20.777 -47.678 -19.201  0.00  0.00    +0.064 C 
ATOM     34  C   UNL     1     -22.297 -47.540 -19.331  0.00  0.00    +0.141 C 
ATOM     35  C   UNL     1     -23.297 -47.657 -22.079  0.00  0.00    +0.166 C 
ENDBRANCH   7   6
ENDBRANCH  11  10
TORSDOF 3
