REMARK  Name = 3jpv_ligand
REMARK  1 active torsions:
REMARK  status: ('A' for Active; 'I' for Inactive)
REMARK    1  A    between atoms: CAN_14  and  CAQ_17
REMARK                            x       y       z     vdW  Elec       q    Type
REMARK                         _______ _______ _______ _____ _____    ______ ____
ROOT
ATOM      1  C   UNL     1      25.958  47.713  -0.683  0.00  0.00    +0.063 A 
ATOM      2  N   UNL     1      26.330  48.873  -1.247  0.00  0.00    -0.277 N 
ATOM      3  H   UNL     1      26.407  49.052  -2.258  0.00  0.00    +0.215 HD
ATOM      4  C   UNL     1      26.588  49.773  -0.259  0.00  0.00    +0.090 A 
ATOM      5  C   UNL     1      27.007  51.086  -0.308  0.00  0.00    +0.096 A 
ATOM      6  N   UNL     1      27.305  51.899  -1.335  0.00  0.00    -0.272 N 
ATOM      7  H   UNL     1      27.272  51.629  -2.329  0.00  0.00    +0.231 HD
ATOM      8  C   UNL     1      27.654  53.122  -0.877  0.00  0.00    +0.151 A 
ATOM      9  C   UNL     1      27.560  53.066   0.456  0.00  0.00    +0.026 A 
ATOM     12  C   UNL     1      27.157  51.802   0.872  0.00  0.00    -0.019 A 
ATOM     13  C   UNL     1      26.907  51.219   2.117  0.00  0.00    -0.042 A 
ATOM     14  C   UNL     1      26.482  49.885   2.168  0.00  0.00    -0.036 A 
ATOM     15  C   UNL     1      26.345  49.182   0.984  0.00  0.00    -0.016 A 
ATOM     16  C   UNL     1      25.948  47.880   0.716  0.00  0.00    -0.010 A 
ATOM     17  C   UNL     1      25.553  46.867   1.572  0.00  0.00    -0.013 A 
ATOM     18  C   UNL     1      25.193  45.656   0.993  0.00  0.00    -0.025 A 
ATOM     19  C   UNL     1      25.209  45.466  -0.402  0.00  0.00    -0.018 A 
ATOM     20  C   UNL     1      25.594  46.499  -1.253  0.00  0.00    +0.012 A 
ENDROOT
BRANCH   9  10
ATOM     10  C   UNL     1      27.876  54.207   1.417  0.00  0.00    +0.225 C 
ATOM     11  O   UNL     1      27.681  54.041   2.621  0.00  0.00    -0.383 OA
ENDBRANCH   9  10
TORSDOF 1
