REMARK  Name = 5AUX
REMARK  5 active torsions:
REMARK  status: ('A' for Active; 'I' for Inactive)
REMARK    1  A    between atoms: C_2  and  O_21
REMARK    2  A    between atoms: C_6  and  O_20
REMARK    3  A    between atoms: C_8  and  O_19
REMARK    4  A    between atoms: C_9  and  C_10
REMARK    5  A    between atoms: C_13  and  O_18
REMARK                            x       y       z     vdW  Elec       q    Type
REMARK                         _______ _______ _______ _____ _____    ______ ____
ROOT
ATOM      1  C   UNL     1     -20.137  -1.161 -12.130  0.00  0.00    +0.073 A 
ATOM      2  C   UNL     1     -19.867  -0.418 -10.985  0.00  0.00    +0.140 A 
ATOM      5  C   UNL     1     -20.683   0.658 -10.653  0.00  0.00    +0.074 A 
ATOM      6  C   UNL     1     -21.761   1.004 -11.462  0.00  0.00    +0.155 A 
ATOM      7  O   UNL     1     -22.559   2.057 -11.105  0.00  0.00    -0.450 OA
ATOM      8  C   UNL     1     -23.661   2.413 -11.828  0.00  0.00    +0.182 C 
ATOM     17  C   UNL     1     -23.948   1.663 -12.973  0.00  0.00    +0.208 C 
ATOM     20  C   UNL     1     -23.139   0.616 -13.403  0.00  0.00    +0.238 C 
ATOM     21  O   UNL     1     -23.417  -0.012 -14.429  0.00  0.00    -0.283 OA
ATOM     22  C   UNL     1     -22.042   0.278 -12.617  0.00  0.00    +0.110 A 
ATOM     23  C   UNL     1     -21.224  -0.812 -12.927  0.00  0.00    +0.143 A 
ENDROOT
BRANCH   8   9
ATOM      9  C   UNL     1     -24.419   3.429 -11.234  0.00  0.00    +0.038 A 
ATOM     10  C   UNL     1     -24.031   3.854  -9.964  0.00  0.00    +0.006 A 
ATOM     11  C   UNL     1     -24.754   4.827  -9.277  0.00  0.00    +0.037 A 
ATOM     12  C   UNL     1     -25.883   5.378  -9.881  0.00  0.00    +0.134 A 
ATOM     15  C   UNL     1     -26.285   4.951 -11.140  0.00  0.00    +0.037 A 
ATOM     16  C   UNL     1     -25.560   3.972 -11.812  0.00  0.00    +0.006 A 
BRANCH  12  13
ATOM     13  O   UNL     1     -26.614   6.330  -9.249  0.00  0.00    -0.505 OA
ATOM     14  H   UNL     1     -26.631   7.203  -9.832  0.00  0.00    +0.292 HD
ENDBRANCH  12  13
ENDBRANCH   8   9
BRANCH   2   3
ATOM      3  O   UNL     1     -18.813  -0.741 -10.183  0.00  0.00    -0.505 OA
ATOM      4  H   UNL     1     -18.935  -1.719  -9.821  0.00  0.00    +0.292 HD
ENDBRANCH   2   3
BRANCH  17  18
ATOM     18  O   UNL     1     -25.040   1.957 -13.734  0.00  0.00    -0.501 OA
ATOM     19  H   UNL     1     -24.732   2.220 -14.703  0.00  0.00    +0.292 HD
ENDBRANCH  17  18
BRANCH  23  24
ATOM     24  O   UNL     1     -21.520  -1.509 -14.059  0.00  0.00    -0.505 OA
ATOM     25  H   UNL     1     -20.708  -1.461 -14.723  0.00  0.00    +0.292 HD
ENDBRANCH  23  24
TORSDOF 5
