REMARK  Name = 3LS8
REMARK  3 active torsions:
REMARK  status: ('A' for Active; 'I' for Inactive)
REMARK    1  A    between atoms: C_2  and  C_21
REMARK    2  A    between atoms: C_6  and  N_22
REMARK    3  A    between atoms: O_7  and  C_20
REMARK                            x       y       z     vdW  Elec       q    Type
REMARK                         _______ _______ _______ _____ _____    ______ ____
ROOT
ATOM      1  N   UNL     1     -25.992  40.665 -36.395  0.00  0.00    -0.211 NA
ATOM      2  C   UNL     1     -26.235  40.676 -37.711  0.00  0.00    +0.140 A 
ATOM      9  C   UNL     1     -26.231  41.872 -38.401  0.00  0.00    +0.077 A 
ATOM     10  S   UNL     1     -26.502  42.284 -40.005  0.00  0.00    -0.092 S 
ATOM     11  C   UNL     1     -26.278  43.950 -39.813  0.00  0.00    +0.048 A 
ATOM     12  C   UNL     1     -26.016  44.157 -38.508  0.00  0.00    +0.036 A 
ATOM     13  C   UNL     1     -25.980  43.065 -37.710  0.00  0.00    +0.084 A 
ATOM     14  N   UNL     1     -25.735  42.988 -36.389  0.00  0.00    -0.227 NA
ATOM     15  C   UNL     1     -25.732  41.808 -35.734  0.00  0.00    +0.163 A 
ENDROOT
BRANCH   2   3
ATOM      3  N   UNL     1     -26.469  39.463 -38.338  0.00  0.00    -0.310 N 
ATOM      4  C   UNL     1     -26.211  38.241 -37.560  0.00  0.00    +0.134 C 
ATOM      5  C   UNL     1     -27.124  37.129 -38.020  0.00  0.00    +0.178 C 
ATOM      6  O   UNL     1     -26.942  37.055 -39.442  0.00  0.00    -0.377 OA
ATOM      7  C   UNL     1     -27.662  38.108 -40.024  0.00  0.00    +0.178 C 
ATOM      8  C   UNL     1     -26.941  39.403 -39.743  0.00  0.00    +0.134 C 
ENDBRANCH   2   3
BRANCH  15  16
ATOM     16  C   UNL     1     -25.505  41.746 -34.358  0.00  0.00    +0.023 A 
ATOM     17  C   UNL     1     -25.885  40.604 -33.670  0.00  0.00    +0.057 A 
ATOM     18  C   UNL     1     -25.699  40.499 -32.299  0.00  0.00    +0.117 A 
ATOM     19  C   UNL     1     -25.130  41.561 -31.583  0.00  0.00    +0.045 A 
ATOM     20  C   UNL     1     -24.755  42.725 -32.261  0.00  0.00    +0.004 A 
ATOM     23  C   UNL     1     -24.954  42.815 -33.653  0.00  0.00    +0.012 A 
BRANCH  18  21
ATOM     21  O   UNL     1     -26.091  39.348 -31.671  0.00  0.00    -0.507 OA
ATOM     22  H   UNL     1     -25.263  38.906 -31.201  0.00  0.00    +0.292 HD
ENDBRANCH  18  21
ENDBRANCH  15  16
TORSDOF 3
