REMARK  Name = A6W
REMARK  3 active torsions:
REMARK  status: ('A' for Active; 'I' for Inactive)
REMARK    1  A    between atoms: C7_4  and  C6_7
REMARK    2  A    between atoms: C3_8  and  C2_9
REMARK    3  A    between atoms: C2_9  and  O1_11
REMARK                            x       y       z     vdW  Elec       q    Type
REMARK                         _______ _______ _______ _____ _____    ______ ____
ROOT
ATOM      5  C   UNL     1     -10.762  13.076 -16.373  0.00  0.00    +0.037 A 
ATOM      6  S   UNL     1     -11.480  12.584 -14.882  0.00  0.00    -0.079 S 
ATOM      7  C   UNL     1     -10.728  11.038 -14.849  0.00  0.00    +0.122 A 
ATOM     12  C   UNL     1      -9.929  10.918 -15.990  0.00  0.00    +0.102 A 
ATOM     13  N   UNL     1      -9.171   9.797 -16.295  0.00  0.00    -0.127 NA
ATOM     14  C   UNL     1      -9.954  12.046 -16.825  0.00  0.00    +0.026 A 
ENDROOT
BRANCH   5   4
ATOM      1  C   UNL     1     -11.035  16.350 -18.470  0.00  0.00    +0.035 A 
ATOM      2  C   UNL     1     -11.834  16.488 -17.344  0.00  0.00    +0.007 A 
ATOM      3  C   UNL     1     -11.815  15.360 -16.507  0.00  0.00    +0.007 A 
ATOM      4  C   UNL     1     -11.012  14.318 -16.945  0.00  0.00    +0.035 A 
ATOM     15  S   UNL     1     -10.294  14.816 -18.433  0.00  0.00    -0.086 S 
ENDBRANCH   5   4
BRANCH   7   8
ATOM      8  C   UNL     1     -10.970  10.106 -13.750  0.00  0.00    +0.349 C 
ATOM      9  O   UNL     1     -11.697  10.344 -12.815  0.00  0.00    -0.244 OA
BRANCH   8  10
ATOM     10  O   UNL     1     -10.293   8.968 -13.902  0.00  0.00    -0.441 OA
ATOM     11  C   UNL     1     -10.467   7.986 -12.856  0.00  0.00    +0.256 C 
ENDBRANCH   8  10
ENDBRANCH   7   8
TORSDOF 3
