REMARK  Name = 4fyo_ligand
REMARK  9 active torsions:
REMARK  status: ('A' for Active; 'I' for Inactive)
REMARK    1  A    between atoms: C4_4  and  N11_11
REMARK    2  A    between atoms: C10_10  and  C18_18
REMARK    3  A    between atoms: N11_11  and  C19_19
REMARK    4  A    between atoms: N13_13  and  C22_22
REMARK    5  A    between atoms: C14_14  and  C20_20
REMARK    6  A    between atoms: C16_16  and  O34_34
REMARK    7  A    between atoms: C23_23  and  O35_35
REMARK    8  A    between atoms: O34_34  and  C36_36
REMARK    9  A    between atoms: O35_35  and  C37_37
REMARK                            x       y       z     vdW  Elec       q    Type
REMARK                         _______ _______ _______ _____ _____    ______ ____
ROOT
ATOM      1  C   UNL     1       2.514   1.278  13.269  0.00  0.00    +0.165 A 
ATOM      2  N   UNL     1       2.005   2.097  12.286  0.00  0.00    -0.279 N 
ATOM      3  C   UNL     1       2.675   3.370  11.974  0.00  0.00    +0.140 C 
ATOM      4  C   UNL     1       1.825   3.881  10.785  0.00  0.00    +0.054 C 
ATOM      5  C   UNL     1       0.404   3.290  11.039  0.00  0.00    +0.122 C 
ATOM     19  C   UNL     1       0.559   2.254  12.173  0.00  0.00    +0.165 C 
ATOM     20  N   UNL     1       3.780   1.447  13.616  0.00  0.00    -0.264 NA
ATOM     21  C   UNL     1       4.308   0.684  14.533  0.00  0.00    +0.115 A 
ATOM     22  S   UNL     1       5.911   0.603  15.268  0.00  0.00    +0.016 S 
ATOM     23  C   UNL     1       5.518  -0.757  16.365  0.00  0.00    +0.199 A 
ATOM     24  N   UNL     1       4.265  -1.031  16.105  0.00  0.00    -0.294 NA
ATOM     25  C   UNL     1       3.568  -0.341  15.180  0.00  0.00    +0.098 A 
ATOM     26  C   UNL     1       2.207  -0.483  14.761  0.00  0.00    +0.144 A 
ATOM     39  N   UNL     1       1.752   0.332  13.820  0.00  0.00    -0.246 NA
ENDROOT
BRANCH   5   6
ATOM      6  N   UNL     1      -0.512   4.360  11.434  0.00  0.00    -0.281 N 
ATOM      7  H   UNL     1      -0.134   5.228  11.757  0.00  0.00    +0.185 HD
ATOM      8  C   UNL     1      -1.851   4.211  11.375  0.00  0.00    +0.207 C 
ATOM      9  O   UNL     1      -2.354   3.172  10.988  0.00  0.00    -0.384 OA
BRANCH   8  10
ATOM     10  C   UNL     1      -2.711   5.345  11.772  0.00  0.00    +0.052 A 
ATOM     11  C   UNL     1      -2.496   6.598  11.179  0.00  0.00    +0.029 A 
ATOM     12  C   UNL     1      -3.289   7.672  11.526  0.00  0.00    +0.024 A 
ATOM     13  C   UNL     1      -4.311   7.508  12.469  0.00  0.00    +0.014 A 
ATOM     14  C   UNL     1      -4.525   6.255  13.060  0.00  0.00    +0.024 A 
ATOM     18  C   UNL     1      -3.732   5.177  12.715  0.00  0.00    +0.029 A 
BRANCH  13  15
ATOM     15  C   UNL     1      -5.164   8.661  12.840  0.00  0.00    +0.065 C 
ATOM     16  O   UNL     1      -6.155   8.501  13.734  0.00  0.00    -0.560 OA
ATOM     17  O   UNL     1      -4.978   9.751  12.336  0.00  0.00    -0.560 OA
ENDBRANCH  13  15
ENDBRANCH   8  10
ENDBRANCH   5   6
BRANCH  26  27
ATOM     27  N   UNL     1       1.415  -1.471  15.343  0.00  0.00    -0.263 N 
ATOM     28  H   UNL     1       1.915  -2.141  15.944  0.00  0.00    +0.215 HD
BRANCH  27  29
ATOM     29  C   UNL     1       0.025  -1.683  15.225  0.00  0.00    +0.045 A 
ATOM     30  C   UNL     1      -0.497  -2.781  15.906  0.00  0.00    -0.015 A 
ATOM     31  C   UNL     1      -1.850  -3.077  15.858  0.00  0.00    -0.002 A 
ATOM     32  C   UNL     1      -2.716  -2.270  15.127  0.00  0.00    +0.108 A 
ATOM     35  C   UNL     1      -2.211  -1.171  14.424  0.00  0.00    +0.111 A 
ATOM     38  C   UNL     1      -0.842  -0.876  14.479  0.00  0.00    +0.026 A 
BRANCH  32  33
ATOM     33  O   UNL     1      -4.057  -2.545  15.052  0.00  0.00    -0.332 OA
ATOM     34  C   UNL     1      -4.598  -2.821  16.349  0.00  0.00    +0.225 C 
ENDBRANCH  32  33
BRANCH  35  36
ATOM     36  O   UNL     1      -3.107  -0.414  13.719  0.00  0.00    -0.328 OA
ATOM     37  C   UNL     1      -2.474   0.292  12.650  0.00  0.00    +0.229 C 
ENDBRANCH  35  36
ENDBRANCH  27  29
ENDBRANCH  26  27
TORSDOF 7
