REMARK  Name = 2vtm_ligand
REMARK  1 active torsions:
REMARK  status: ('A' for Active; 'I' for Inactive)
REMARK    1  A    between atoms: C2_2  and  C3_3
REMARK                            x       y       z     vdW  Elec       q    Type
REMARK                         _______ _______ _______ _____ _____    ______ ____
ROOT
ATOM      3  C   UNL     1      26.416   4.381  64.297  0.00  0.00    +0.120 A 
ATOM      4  C   UNL     1      27.195   5.502  64.592  0.00  0.00    +0.207 A 
ATOM      5  N   UNL     1      27.124   6.801  64.240  0.00  0.00    -0.253 NA
ATOM      6  C   UNL     1      28.076   7.610  64.719  0.00  0.00    +0.125 A 
ATOM      7  C   UNL     1      29.098   7.153  65.525  0.00  0.00    +0.079 A 
ATOM      8  C   UNL     1      29.143   5.821  65.859  0.00  0.00    +0.263 A 
ATOM      9  N   UNL     1      28.191   5.003  65.401  0.00  0.00    -0.117 N 
ATOM     10  N   UNL     1      28.074   3.669  65.615  0.00  0.00    -0.192 NA
ATOM     11  C   UNL     1      26.987   3.314  64.937  0.00  0.00    +0.097 A 
ENDROOT
BRANCH   3   2
ATOM      1  N   UNL     1      24.304   4.329  62.849  0.00  0.00    -0.377 NA
ATOM      2  C   UNL     1      25.245   4.353  63.493  0.00  0.00    +0.049 C 
ENDBRANCH   3   2
TORSDOF 1
