REMARK  Name = 1y6b_ligand
REMARK  9 active torsions:
REMARK  status: ('A' for Active; 'I' for Inactive)
REMARK    1  A    between atoms: S27_2  and  N30_4
REMARK    2  A    between atoms: S27_2  and  C6_9
REMARK    3  A    between atoms: N30_4  and  C31_5
REMARK    4  A    between atoms: C31_5  and  C32_6
REMARK    5  A    between atoms: C8_13  and  N9_17
REMARK    6  A    between atoms: C3_14  and  O2_15
REMARK    7  A    between atoms: O2_15  and  C1_16
REMARK    8  A    between atoms: C13_20  and  C15_23
REMARK    9  A    between atoms: C19_25  and  C21_29
REMARK                            x       y       z     vdW  Elec       q    Type
REMARK                         _______ _______ _______ _____ _____    ______ ____
ROOT
ATOM      6  N   UNL     1       2.939  28.100  18.157  0.00  0.00    -0.223 N 
ATOM      7  H   UNL     1       3.744  27.461  18.092  0.00  0.00    +0.218 HD
ATOM      8  C   UNL     1       2.859  29.108  17.251  0.00  0.00    +0.292 A 
ATOM      9  N   UNL     1       3.811  29.380  16.306  0.00  0.00    -0.299 NA
ATOM     10  C   UNL     1       3.350  30.513  15.703  0.00  0.00    +0.041 A 
ATOM     11  C   UNL     1       2.164  30.901  16.325  0.00  0.00    +0.131 A 
ATOM     24  O   UNL     1       1.835  29.981  17.265  0.00  0.00    -0.205 OA
ENDROOT
BRANCH   6   5
ATOM      3  C   UNL     1       0.257  28.617  20.772  0.00  0.00    +0.087 A 
ATOM      4  C   UNL     1       1.270  28.887  19.820  0.00  0.00    +0.032 A 
ATOM      5  C   UNL     1       2.006  27.868  19.172  0.00  0.00    +0.100 A 
ATOM     25  C   UNL     1       1.727  26.553  19.510  0.00  0.00    +0.115 A 
ATOM     28  C   UNL     1       0.740  26.264  20.472  0.00  0.00    +0.010 A 
ATOM     29  C   UNL     1       0.005  27.285  21.076  0.00  0.00    -0.005 A 
BRANCH   3   2
ATOM      1  O   UNL     1      -0.037  31.044  21.305  0.00  0.00    -0.152 OA
ATOM      2  S   UNL     1      -0.605  29.778  21.561  0.00  0.00    +0.061 S 
ATOM     36  O   UNL     1      -0.477  29.435  22.941  0.00  0.00    -0.152 OA
BRANCH   2  30
ATOM     30  N   UNL     1      -2.100  29.857  21.021  0.00  0.00    -0.249 NA
ATOM     31  H   UNL     1      -2.882  29.730  21.631  0.00  0.00    +0.167 HD
BRANCH  30  32
ATOM     32  C   UNL     1      -2.281  30.124  19.594  0.00  0.00    +0.125 C 
BRANCH  32  33
ATOM     33  C   UNL     1      -3.697  30.582  19.247  0.00  0.00    +0.007 C 
ATOM     34  C   UNL     1      -3.906  32.070  19.018  0.00  0.00    +0.005 C 
ATOM     35  C   UNL     1      -3.861  31.122  17.827  0.00  0.00    +0.005 C 
ENDBRANCH  32  33
ENDBRANCH  30  32
ENDBRANCH   2  30
ENDBRANCH   3   2
BRANCH  25  26
ATOM     26  O   UNL     1       2.444  25.573  18.876  0.00  0.00    -0.325 OA
ATOM     27  C   UNL     1       2.272  24.164  19.097  0.00  0.00    +0.229 C 
ENDBRANCH  25  26
ENDBRANCH   6   5
BRANCH  11  12
ATOM     12  C   UNL     1       1.204  31.967  16.050  0.00  0.00    +0.005 A 
ATOM     13  C   UNL     1       0.219  32.250  17.003  0.00  0.00    +0.002 A 
ATOM     14  C   UNL     1      -0.746  33.199  16.734  0.00  0.00    -0.004 A 
ATOM     15  C   UNL     1      -0.769  33.879  15.520  0.00  0.00    +0.002 A 
ATOM     16  C   UNL     1       0.191  33.555  14.539  0.00  0.00    -0.015 A 
ATOM     23  C   UNL     1       1.152  32.577  14.797  0.00  0.00    +0.011 A 
BRANCH  16  17
ATOM     17  C   UNL     1       0.189  34.233  13.205  0.00  0.00    +0.009 A 
ATOM     18  C   UNL     1       0.391  33.492  12.044  0.00  0.00    +0.039 A 
ATOM     19  C   UNL     1       0.428  34.170  10.822  0.00  0.00    +0.037 A 
ATOM     20  C   UNL     1       0.225  35.552  10.772  0.00  0.00    +0.093 A 
ATOM     21  N   UNL     1       0.031  36.250  11.897  0.00  0.00    -0.296 NA
ATOM     22  C   UNL     1       0.002  35.621  13.093  0.00  0.00    +0.102 A 
ENDBRANCH  16  17
ENDBRANCH  11  12
TORSDOF 8
