REMARK  Name = 2VN9
REMARK  5 active torsions:
REMARK  status: ('A' for Active; 'I' for Inactive)
REMARK    1  A    between atoms: C_3  and  C_4
REMARK    2  A    between atoms: N_9  and  C_10
REMARK    3  A    between atoms: N_20  and  C_21
REMARK    4  A    between atoms: C_24  and  C_28
REMARK    5  A    between atoms: C_28  and  C_29
REMARK                            x       y       z     vdW  Elec       q    Type
REMARK                         _______ _______ _______ _____ _____    ______ ____
ROOT
ATOM      8  C   UNL     1      14.455  31.226  46.712  0.00  0.00    +0.280 A 
ATOM      9  C   UNL     1      15.704  31.775  46.277  0.00  0.00    +0.069 A 
ATOM     10  C   UNL     1      15.748  32.427  45.041  0.00  0.00    +0.055 A 
ATOM     11  N   UNL     1      14.606  32.512  44.314  0.00  0.00    -0.323 N 
ATOM     12  H   UNL     1      14.629  33.014  43.369  0.00  0.00    +0.169 HD
ATOM     13  C   UNL     1      13.446  31.986  44.743  0.00  0.00    +0.233 A 
ATOM     14  N   UNL     1      12.373  32.133  43.968  0.00  0.00    -0.213 NA
ATOM     24  C   UNL     1      16.942  32.999  44.571  0.00  0.00    +0.026 A 
ATOM     25  C   UNL     1      18.112  32.914  45.333  0.00  0.00    +0.002 A 
ATOM     26  C   UNL     1      18.085  32.251  46.569  0.00  0.00    +0.001 A 
ATOM     27  C   UNL     1      16.891  31.695  47.037  0.00  0.00    +0.016 A 
ATOM     28  N   UNL     1      13.386  31.357  45.930  0.00  0.00    -0.169 NA
ENDROOT
BRANCH   8   7
ATOM      3  C   UNL     1      11.450  29.422  49.312  0.00  0.00    +0.100 C 
ATOM      4  N   UNL     1      12.434  29.080  50.148  0.00  0.00    -0.039 NA
ATOM      5  N   UNL     1      13.478  29.479  49.650  0.00  0.00    +0.086 NA
ATOM      6  C   UNL     1      13.290  30.062  48.498  0.00  0.00    +0.396 C 
ATOM      7  N   UNL     1      14.364  30.563  47.874  0.00  0.00    -0.012 NA
ATOM     29  C   UNL     1      11.969  30.055  48.245  0.00  0.00    +0.135 C 
BRANCH   3   2
ATOM      1  C   UNL     1       9.365  28.180  48.506  0.00  0.00    +0.010 C 
ATOM      2  C   UNL     1       9.956  29.078  49.586  0.00  0.00    +0.042 C 
ATOM     30  C   UNL     1       8.927  29.642  48.605  0.00  0.00    +0.010 C 
ENDBRANCH   3   2
ENDBRANCH   8   7
BRANCH  14  15
ATOM     15  C   UNL     1      11.137  31.649  44.184  0.00  0.00    +0.068 A 
ATOM     16  C   UNL     1      10.061  32.534  44.058  0.00  0.00    +0.028 A 
ATOM     17  C   UNL     1       8.754  32.075  44.232  0.00  0.00    +0.007 A 
ATOM     18  C   UNL     1       8.485  30.740  44.538  0.00  0.00    -0.034 A 
ATOM     22  C   UNL     1       9.560  29.856  44.637  0.00  0.00    +0.007 A 
ATOM     23  C   UNL     1      10.875  30.298  44.450  0.00  0.00    +0.028 A 
BRANCH  18  19
ATOM     19  C   UNL     1       7.001  30.274  44.693  0.00  0.00    +0.153 C 
BRANCH  19  20
ATOM     20  C   UNL     1       6.558  29.833  46.028  0.00  0.00    +0.067 C 
ATOM     21  N   UNL     1       6.125  29.407  47.006  0.00  0.00    -0.196 NA
ENDBRANCH  19  20
ENDBRANCH  18  19
ENDBRANCH  14  15
TORSDOF 5
