REMARK  Name = 3R1S
REMARK  5 active torsions:
REMARK  status: ('A' for Active; 'I' for Inactive)
REMARK    1  A    between atoms: N_1  and  C_7
REMARK    2  A    between atoms: N_1  and  C_12
REMARK    3  A    between atoms: N_4  and  C_10
REMARK    4  A    between atoms: C_6  and  C_11
REMARK    5  A    between atoms: C_12  and  C_13
REMARK                            x       y       z     vdW  Elec       q    Type
REMARK                         _______ _______ _______ _____ _____    ______ ____
ROOT
ATOM     11  C   UNL     1      65.288  81.348 -11.999  0.00  0.00    +0.040 A 
ATOM     12  C   UNL     1      65.571  80.785 -10.700  0.00  0.00    +0.026 A 
ATOM     13  C   UNL     1      66.869  80.279 -10.393  0.00  0.00    +0.034 A 
ATOM     14  C   UNL     1      67.914  80.321 -11.372  0.00  0.00    +0.127 A 
ATOM     15  C   UNL     1      67.637  80.878 -12.657  0.00  0.00    +0.047 A 
ATOM     19  C   UNL     1      66.338  81.391 -12.983  0.00  0.00    +0.059 A 
ENDROOT
BRANCH  19  20
ATOM     20  C   UNL     1      66.121  81.917 -14.245  0.00  0.00    +0.243 C 
ATOM     21  O   UNL     1      65.299  82.796 -14.420  0.00  0.00    -0.270 OA
ATOM     22  N   UNL     1      66.825  81.437 -15.322  0.00  0.00    -0.325 N 
ATOM     23  H   UNL     1      66.656  81.845 -16.297  0.00  0.00    +0.145 HD
ATOM     24  H   UNL     1      67.543  80.655 -15.187  0.00  0.00    +0.145 HD
ENDBRANCH  19  20
BRANCH  14  16
ATOM     16  N   UNL     1      69.086  79.864 -11.102  0.00  0.00    +0.056 N 
ATOM     17  O   UNL     1      70.119  80.126 -11.891  0.00  0.00    -0.126 OA
ATOM     18  O   UNL     1      69.284  79.112 -10.040  0.00  0.00    -0.126 OA
ENDBRANCH  14  16
BRANCH  11   1
ATOM      1  N   UNL     1      64.108  81.818 -12.306  0.00  0.00    -0.339 N 
ATOM      2  H   UNL     1      64.042  82.487 -13.138  0.00  0.00    +0.146 HD
BRANCH   1   3
ATOM      3  C   UNL     1      62.856  81.493 -11.587  0.00  0.00    +0.138 C 
BRANCH   3   4
ATOM      4  C   UNL     1      62.567  82.553 -10.554  0.00  0.00    -0.012 A 
ATOM      5  C   UNL     1      62.223  82.186  -9.234  0.00  0.00    +0.009 A 
ATOM      6  C   UNL     1      61.954  83.177  -8.259  0.00  0.00    +0.040 A 
ATOM      7  C   UNL     1      62.045  84.521  -8.655  0.00  0.00    +0.129 A 
ATOM      8 CL   UNL     1      61.719  85.727  -7.479  0.00  0.00    -0.062 Cl
ATOM      9  N   UNL     1      62.379  84.919  -9.933  0.00  0.00    -0.243 NA
ATOM     10  C   UNL     1      62.633  83.930 -10.860  0.00  0.00    +0.117 A 
ENDBRANCH   3   4
ENDBRANCH   1   3
ENDBRANCH  11   1
TORSDOF 5
