REMARK  Name = 4TYI
REMARK  4 active torsions:
REMARK  status: ('A' for Active; 'I' for Inactive)
REMARK    1  A    between atoms: C_1  and  N_17
REMARK    2  A    between atoms: C_6  and  N_18
REMARK    3  A    between atoms: C_7  and  C_11
REMARK    4  A    between atoms: C_12  and  N_23
REMARK                            x       y       z     vdW  Elec       q    Type
REMARK                         _______ _______ _______ _____ _____    ______ ____
ROOT
ATOM      6  C   UNL     1       0.057  -9.672   6.398  0.00  0.00    +0.032 A 
ATOM      7  C   UNL     1      -0.619 -10.894   6.264  0.00  0.00    +0.050 A 
ATOM      8  C   UNL     1      -0.098 -12.067   6.794  0.00  0.00    +0.068 A 
ATOM      9  C   UNL     1       1.115 -12.076   7.491  0.00  0.00    +0.090 A 
ATOM     10  C   UNL     1       1.796 -10.860   7.640  0.00  0.00    +0.032 A 
ATOM     11  N   UNL     1       1.346 -13.360   7.875  0.00  0.00    -0.228 NA
ATOM     12  C   UNL     1       0.358 -14.149   7.461  0.00  0.00    +0.146 A 
ATOM     29  N   UNL     1      -0.552 -13.362   6.792  0.00  0.00    -0.338 N 
ATOM     30  H   UNL     1      -1.462 -13.703   6.345  0.00  0.00    +0.167 HD
ATOM     31  C   UNL     1       1.285  -9.699   7.103  0.00  0.00    +0.025 A 
ENDROOT
BRANCH  12  13
ATOM     13  C   UNL     1       0.271 -15.629   7.679  0.00  0.00    +0.103 C 
ATOM     14  C   UNL     1       1.051 -16.222   8.720  0.00  0.00    +0.262 C 
ATOM     15  N   UNL     1       1.058 -17.543   8.980  0.00  0.00    -0.321 N 
ATOM     16  H   UNL     1       1.675 -17.912   9.773  0.00  0.00    +0.169 HD
ATOM     17  C   UNL     1       0.295 -18.436   8.256  0.00  0.00    +0.054 A 
ATOM     18  C   UNL     1       0.328 -19.800   8.567  0.00  0.00    +0.026 A 
ATOM     19  C   UNL     1      -0.444 -20.696   7.846  0.00  0.00    +0.005 A 
ATOM     20  C   UNL     1      -1.258 -20.248   6.810  0.00  0.00    +0.039 A 
ATOM     21  C   UNL     1      -1.306 -18.901   6.485  0.00  0.00    +0.134 A 
ATOM     22  F   UNL     1      -2.106 -18.504   5.471  0.00  0.00    -0.205 F 
ATOM     23  C   UNL     1      -0.528 -17.960   7.204  0.00  0.00    +0.055 A 
ATOM     24  O   UNL     1       1.757 -15.527   9.418  0.00  0.00    -0.267 OA
ATOM     25  C   UNL     1      -0.538 -16.505   6.893  0.00  0.00    +0.053 C 
BRANCH  25  26
ATOM     26  N   UNL     1      -1.326 -16.080   5.839  0.00  0.00    -0.357 N 
ATOM     27  H   UNL     1      -1.910 -16.788   5.288  0.00  0.00    +0.142 HD
ATOM     28  H   UNL     1      -1.352 -15.044   5.574  0.00  0.00    +0.142 HD
ENDBRANCH  25  26
ENDBRANCH  12  13
BRANCH   6   5
ATOM      1  C   UNL     1      -3.399  -5.392   5.855  0.00  0.00    +0.105 C 
ATOM      2  N   UNL     1      -2.271  -6.279   5.538  0.00  0.00    -0.302 NA
ATOM      3  C   UNL     1      -1.268  -6.257   6.615  0.00  0.00    +0.103 C 
ATOM      4  C   UNL     1      -0.045  -7.104   6.231  0.00  0.00    +0.120 C 
ATOM      5  N   UNL     1      -0.475  -8.470   5.832  0.00  0.00    -0.327 N 
ATOM     32  C   UNL     1      -1.488  -8.437   4.743  0.00  0.00    +0.120 C 
ATOM     33  C   UNL     1      -2.708  -7.655   5.251  0.00  0.00    +0.103 C 
ENDBRANCH   6   5
TORSDOF 3
