REMARK  Name = 3gcs_ligand
REMARK  7 active torsions:
REMARK  status: ('A' for Active; 'I' for Inactive)
REMARK    1  A    between atoms: C2_2  and  N12_26
REMARK    2  A    between atoms: C16_6  and  N14_27
REMARK    3  A    between atoms: C19_9  and  O22_12
REMARK    4  A    between atoms: O22_12  and  C23_29
REMARK    5  A    between atoms: C27_15  and  C29_31
REMARK    6  A    between atoms: N30_17  and  C31_18
REMARK    7  A    between atoms: C6_20  and  C7_21
REMARK                            x       y       z     vdW  Elec       q    Type
REMARK                         _______ _______ _______ _____ _____    ______ ____
ROOT
ATOM     18  C   UNL     1     -20.550  -4.130  18.672  0.00  0.00    +0.058 A 
ATOM     19  C   UNL     1     -21.930  -4.215  18.915  0.00  0.00    +0.000 A 
ATOM     20  C   UNL     1     -22.554  -3.297  19.749  0.00  0.00    +0.012 A 
ATOM     21  C   UNL     1     -21.819  -2.287  20.347  0.00  0.00    +0.105 A 
ATOM     34  C   UNL     1     -20.435  -2.195  20.141  0.00  0.00    +0.012 A 
ATOM     35  C   UNL     1     -19.822  -3.108  19.276  0.00  0.00    +0.000 A 
ENDROOT
BRANCH  18  16
ATOM     12  N   UNL     1     -18.375  -6.401  16.987  0.00  0.00    -0.209 N 
ATOM     13  H   UNL     1     -19.078  -6.652  16.322  0.00  0.00    +0.227 HD
ATOM     14  C   UNL     1     -18.708  -5.495  17.931  0.00  0.00    +0.315 C 
ATOM     15  O   UNL     1     -17.923  -5.131  18.824  0.00  0.00    -0.381 OA
ATOM     16  N   UNL     1     -19.970  -5.025  17.855  0.00  0.00    -0.220 N 
ATOM     17  H   UNL     1     -20.535  -5.381  17.110  0.00  0.00    +0.223 HD
BRANCH  12  11
ATOM      1  C   UNL     1     -16.369  -7.323  17.990  0.00  0.00    +0.058 A 
ATOM      2  C   UNL     1     -15.112  -7.933  17.845  0.00  0.00    +0.046 A 
ATOM      7  C   UNL     1     -14.674  -8.242  16.563  0.00  0.00    +0.059 A 
ATOM      8 CL   UNL     1     -13.151  -9.000  16.378  0.00  0.00    -0.054 Cl
ATOM      9  C   UNL     1     -15.460  -7.959  15.423  0.00  0.00    +0.038 A 
ATOM     10  C   UNL     1     -16.690  -7.337  15.595  0.00  0.00    +0.065 A 
ATOM     11  C   UNL     1     -17.154  -7.003  16.868  0.00  0.00    +0.096 A 
BRANCH   2   3
ATOM      3  C   UNL     1     -14.258  -8.275  19.099  0.00  0.00    +0.372 C 
ATOM      4  F   UNL     1     -13.109  -7.634  19.185  0.00  0.00    -0.222 F 
ATOM      5  F   UNL     1     -14.026  -9.583  19.209  0.00  0.00    -0.222 F 
ATOM      6  F   UNL     1     -14.929  -7.886  20.138  0.00  0.00    -0.222 F 
ENDBRANCH   2   3
ENDBRANCH  12  11
ENDBRANCH  18  16
BRANCH  21  22
ATOM     22  O   UNL     1     -22.491  -1.447  21.208  0.00  0.00    -0.256 OA
BRANCH  22  23
ATOM     23  C   UNL     1     -22.347  -0.123  21.172  0.00  0.00    +0.138 A 
ATOM     24  C   UNL     1     -22.425   0.555  22.379  0.00  0.00    +0.088 A 
ATOM     25  C   UNL     1     -22.295   1.943  22.374  0.00  0.00    +0.112 A 
ATOM     31  N   UNL     1     -22.119   2.580  21.200  0.00  0.00    -0.292 NA
ATOM     32  C   UNL     1     -22.069   1.953  20.028  0.00  0.00    +0.086 A 
ATOM     33  C   UNL     1     -22.185   0.561  19.976  0.00  0.00    +0.070 A 
BRANCH  25  26
ATOM     26  C   UNL     1     -22.351   2.740  23.690  0.00  0.00    +0.221 C 
ATOM     27  O   UNL     1     -22.379   2.159  24.771  0.00  0.00    -0.379 OA
ATOM     28  N   UNL     1     -22.371   4.068  23.553  0.00  0.00    -0.287 N 
ATOM     29  H   UNL     1     -22.353   4.492  22.647  0.00  0.00    +0.184 HD
ATOM     30  C   UNL     1     -22.420   4.891  24.772  0.00  0.00    +0.164 C 
ENDBRANCH  25  26
ENDBRANCH  22  23
ENDBRANCH  21  22
TORSDOF 6
