REMARK  Name = 3gcq_ligand
REMARK  10 active torsions:
REMARK  status: ('A' for Active; 'I' for Inactive)
REMARK    1  A    between atoms: CAA_6  and  CBA_7
REMARK    2  A    between atoms: CBE_12  and  NBK_13
REMARK    3  A    between atoms: CBF_15  and  CBL_16
REMARK    4  A    between atoms: CBL_16  and  CAC_17
REMARK    5  A    between atoms: CBL_16  and  CAD_18
REMARK    6  A    between atoms: CBL_16  and  CAB_19
REMARK    7  A    between atoms: CBG_21  and  NAX_22
REMARK    8  A    between atoms: NAW_25  and  CBC_26
REMARK    9  A    between atoms: CBD_31  and  NAY_32
REMARK   10  A    between atoms: CBB_34  and  NAE_35
REMARK                            x       y       z     vdW  Elec       q    Type
REMARK                         _______ _______ _______ _____ _____    ______ ____
ROOT
ATOM     20  N   UNL     1      -2.216  -3.655 -16.125  0.00  0.00    -0.219 N 
ATOM     21  H   UNL     1      -2.856  -4.204 -15.587  0.00  0.00    +0.223 HD
ATOM     22  C   UNL     1      -0.993  -3.540 -15.600  0.00  0.00    +0.321 C 
ATOM     23  O   UNL     1      -0.168  -2.752 -16.089  0.00  0.00    -0.380 OA
ATOM     24  N   UNL     1      -0.762  -4.258 -14.460  0.00  0.00    -0.180 N 
ATOM     25  H   UNL     1      -1.511  -4.829 -14.125  0.00  0.00    +0.234 HD
ENDROOT
BRANCH  20  18
ATOM     15  C   UNL     1      -3.755  -2.280 -19.795  0.00  0.00    +0.054 A 
ATOM     16  C   UNL     1      -4.591  -2.475 -18.696  0.00  0.00    +0.002 A 
ATOM     17  C   UNL     1      -4.094  -2.916 -17.441  0.00  0.00    -0.001 A 
ATOM     18  C   UNL     1      -2.722  -3.148 -17.264  0.00  0.00    +0.058 A 
ATOM     19  C   UNL     1      -1.895  -2.990 -18.374  0.00  0.00    -0.001 A 
ATOM     42  C   UNL     1      -2.393  -2.560 -19.612  0.00  0.00    +0.002 A 
BRANCH  15  13
ATOM      1  C   UNL     1      -4.318   0.649 -23.654  0.00  0.00    +0.036 A 
ATOM      2  C   UNL     1      -4.448   0.790 -25.045  0.00  0.00    +0.017 A 
ATOM      3  C   UNL     1      -4.604  -0.346 -25.845  0.00  0.00    +0.029 A 
ATOM      4  C   UNL     1      -4.637  -1.620 -25.278  0.00  0.00    +0.043 A 
ATOM      8  C   UNL     1      -4.507  -1.767 -23.881  0.00  0.00    +0.027 A 
ATOM      9  N   UNL     1      -4.168   1.750 -22.878  0.00  0.00    -0.300 NA
ATOM     10  C   UNL     1      -4.039   1.624 -21.565  0.00  0.00    +0.158 A 
ATOM     11  N   UNL     1      -4.079   0.436 -20.957  0.00  0.00    -0.258 NA
ATOM     12  C   UNL     1      -4.213  -0.705 -21.657  0.00  0.00    +0.153 A 
ATOM     13  N   UNL     1      -4.244  -1.902 -21.037  0.00  0.00    -0.255 N 
ATOM     14  H   UNL     1      -4.703  -2.655 -21.570  0.00  0.00    +0.218 HD
ATOM     43  C   UNL     1      -4.351  -0.620 -23.069  0.00  0.00    +0.044 A 
BRANCH   4   5
ATOM      5  N   UNL     1      -4.784  -2.693 -26.080  0.00  0.00    -0.336 N 
ATOM      6  H   UNL     1      -4.803  -3.640 -25.675  0.00  0.00    +0.172 HD
ATOM      7  H   UNL     1      -4.878  -2.566 -27.098  0.00  0.00    +0.172 HD
ENDBRANCH   4   5
ENDBRANCH  15  13
ENDBRANCH  20  18
BRANCH  24  26
ATOM     26  C   UNL     1       0.385  -4.269 -13.742  0.00  0.00    +0.220 A 
ATOM     27  C   UNL     1       1.256  -3.241 -13.517  0.00  0.00    +0.003 A 
ATOM     28  C   UNL     1       2.237  -3.765 -12.748  0.00  0.00    -0.002 A 
ATOM     33  N   UNL     1       1.949  -5.046 -12.535  0.00  0.00    -0.165 NA
ATOM     34  N   UNL     1       0.878  -5.345 -13.105  0.00  0.00    -0.105 N 
BRANCH  34  35
ATOM     35  C   UNL     1       0.338  -6.558 -13.044  0.00  0.00    +0.122 A 
ATOM     36  C   UNL     1       0.285  -7.198 -11.806  0.00  0.00    +0.028 A 
ATOM     37  C   UNL     1      -0.261  -8.487 -11.684  0.00  0.00    -0.011 A 
ATOM     38  C   UNL     1      -0.796  -9.121 -12.808  0.00  0.00    -0.013 A 
ATOM     39  C   UNL     1      -0.752  -8.474 -14.043  0.00  0.00    -0.048 A 
ATOM     40  C   UNL     1      -1.325  -9.145 -15.280  0.00  0.00    +0.085 C 
ATOM     41  C   UNL     1      -0.186  -7.198 -14.168  0.00  0.00    +0.034 A 
ENDBRANCH  34  35
BRANCH  28  29
ATOM     29  C   UNL     1       3.490  -3.033 -12.150  0.00  0.00    -0.045 C 
ATOM     30  C   UNL     1       2.934  -2.176 -11.010  0.00  0.00    -0.045 C 
ATOM     31  C   UNL     1       4.512  -3.977 -11.499  0.00  0.00    -0.045 C 
ATOM     32  C   UNL     1       4.182  -2.163 -13.229  0.00  0.00    -0.045 C 
ENDBRANCH  28  29
ENDBRANCH  24  26
TORSDOF 6
