REMARK  Name = BYH
REMARK  4 active torsions:
REMARK  status: ('A' for Active; 'I' for Inactive)
REMARK    1  A    between atoms: CAK_11  and  CAL_12
REMARK    2  A    between atoms: CAK_11  and  SAO_15
REMARK    3  A    between atoms: CAL_12  and  NAW_23
REMARK    4  A    between atoms: SAO_15  and  CAP_16
REMARK                            x       y       z     vdW  Elec       q    Type
REMARK                         _______ _______ _______ _____ _____    ______ ____
ROOT
ATOM     10  C   UNL     1       9.383  -8.112  31.233  0.00  0.00    +0.120 C 
ENDROOT
BRANCH  10   9
ATOM      1  C   UNL     1      11.249  -8.498  36.014  0.00  0.00    +0.132 C 
ATOM      2  N   UNL     1      10.920  -8.789  34.566  0.00  0.00    -0.305 N 
ATOM      3  C   UNL     1      11.303  -9.867  33.899  0.00  0.00    +0.077 A 
ATOM      4  C   UNL     1      12.089 -11.035  34.263  0.00  0.00    +0.019 A 
ATOM      5  C   UNL     1      12.316 -12.027  33.281  0.00  0.00    +0.002 A 
ATOM      6  C   UNL     1      11.789 -11.886  31.964  0.00  0.00    +0.002 A 
ATOM      7  C   UNL     1      11.019 -10.745  31.606  0.00  0.00    +0.019 A 
ATOM      8  C   UNL     1      10.768  -9.725  32.565  0.00  0.00    +0.077 A 
ATOM      9  N   UNL     1      10.087  -8.566  32.510  0.00  0.00    -0.306 N 
ATOM     22  C   UNL     1      10.186  -7.987  33.754  0.00  0.00    +0.163 A 
ATOM     23  S   UNL     1       9.509  -6.470  34.311  0.00  0.00    -0.013 S 
ENDBRANCH  10   9
BRANCH  10  11
ATOM     11  C   UNL     1       9.177  -6.605  30.902  0.00  0.00    +0.090 C 
BRANCH  11  12
ATOM     12  S   UNL     1      10.485  -6.048  29.738  0.00  0.00    -0.074 S 
BRANCH  12  13
ATOM     13  C   UNL     1      11.782  -5.524  30.786  0.00  0.00    +0.190 A 
ATOM     14  N   UNL     1      11.739  -5.530  32.118  0.00  0.00    -0.220 NA
ATOM     15  C   UNL     1      12.896  -5.082  32.553  0.00  0.00    +0.101 A 
ATOM     16  C   UNL     1      13.398  -4.876  33.868  0.00  0.00    +0.021 A 
ATOM     17  C   UNL     1      14.715  -4.379  34.027  0.00  0.00    +0.002 A 
ATOM     18  C   UNL     1      15.525  -4.093  32.881  0.00  0.00    +0.002 A 
ATOM     19  C   UNL     1      15.027  -4.289  31.552  0.00  0.00    +0.021 A 
ATOM     20  C   UNL     1      13.699  -4.785  31.404  0.00  0.00    +0.101 A 
ATOM     21  N   UNL     1      12.956  -5.073  30.329  0.00  0.00    -0.220 NA
ENDBRANCH  12  13
ENDBRANCH  11  12
ENDBRANCH  10  11
TORSDOF 4
