REMARK  Name = 5HEZ
REMARK  11 active torsions:
REMARK  status: ('A' for Active; 'I' for Inactive)
REMARK    1  A    between atoms: S_2  and  N_4
REMARK    2  A    between atoms: S_2  and  C_9
REMARK    3  A    between atoms: N_4  and  C_5
REMARK    4  A    between atoms: C_5  and  C_6
REMARK    5  A    between atoms: C_5  and  C_7
REMARK    6  A    between atoms: C_5  and  C_8
REMARK    7  A    between atoms: C_14  and  N_15
REMARK    8  A    between atoms: C_21  and  C_22
REMARK    9  A    between atoms: N_23  and  C_24
REMARK   10  A    between atoms: C_27  and  N_30
REMARK   11  A    between atoms: N_33  and  C_34
REMARK                            x       y       z     vdW  Elec       q    Type
REMARK                         _______ _______ _______ _____ _____    ______ ____
ROOT
ATOM      6  N   UNL     1     -28.231 -55.550  34.852  0.00  0.00    -0.299 N 
ATOM      7  H   UNL     1     -27.919 -56.572  34.898  0.00  0.00    +0.154 HD
ATOM      8  C   UNL     1     -28.886 -55.039  35.978  0.00  0.00    +0.131 A 
ATOM      9  C   UNL     1     -28.971 -55.785  37.179  0.00  0.00    +0.008 A 
ATOM     10  C   UNL     1     -28.364 -57.163  37.325  0.00  0.00    +0.049 C 
ATOM     11  C   UNL     1     -29.635 -55.218  38.261  0.00  0.00    +0.121 A 
ATOM     12  N   UNL     1     -30.171 -54.005  38.146  0.00  0.00    -0.222 NA
ATOM     13  C   UNL     1     -30.050 -53.300  37.022  0.00  0.00    +0.221 A 
ATOM     14  N   UNL     1     -30.594 -52.020  36.994  0.00  0.00    -0.284 N 
ATOM     15  H   UNL     1     -30.994 -51.655  37.917  0.00  0.00    +0.155 HD
ATOM     29  N   UNL     1     -29.422 -53.815  35.964  0.00  0.00    -0.199 NA
ENDROOT
BRANCH   6   5
ATOM      3  C   UNL     1     -26.396 -54.297  31.888  0.00  0.00    +0.107 A 
ATOM      4  C   UNL     1     -26.671 -54.962  33.085  0.00  0.00    +0.052 A 
ATOM      5  C   UNL     1     -27.943 -54.852  33.666  0.00  0.00    +0.034 A 
ATOM     30  C   UNL     1     -28.937 -54.125  33.005  0.00  0.00    +0.023 A 
ATOM     31  C   UNL     1     -28.661 -53.446  31.830  0.00  0.00    +0.004 A 
ATOM     32  C   UNL     1     -27.391 -53.528  31.283  0.00  0.00    +0.029 A 
BRANCH   3   2
ATOM      1  O   UNL     1     -24.535 -53.272  30.370  0.00  0.00    -0.153 OA
ATOM      2  S   UNL     1     -24.813 -54.448  31.112  0.00  0.00    +0.059 S 
ATOM     39  O   UNL     1     -23.946 -54.867  32.145  0.00  0.00    -0.153 OA
BRANCH   2  33
ATOM     33  N   UNL     1     -24.803 -55.740  30.029  0.00  0.00    -0.185 NA
ATOM     34  H   UNL     1     -23.966 -56.398  30.133  0.00  0.00    +0.149 HD
BRANCH  33  35
ATOM     35  C   UNL     1     -25.762 -56.126  28.947  0.00  0.00    +0.032 C 
ATOM     36  C   UNL     1     -26.851 -57.057  29.478  0.00  0.00    +0.029 C 
ATOM     37  C   UNL     1     -26.463 -54.961  28.238  0.00  0.00    +0.029 C 
ATOM     38  C   UNL     1     -25.005 -56.902  27.865  0.00  0.00    +0.029 C 
ENDBRANCH  33  35
ENDBRANCH   2  33
ENDBRANCH   3   2
ENDBRANCH   6   5
BRANCH  14  16
ATOM     16  C   UNL     1     -30.679 -51.145  35.885  0.00  0.00    +0.034 A 
ATOM     17  C   UNL     1     -31.645 -50.130  35.940  0.00  0.00    +0.025 A 
ATOM     18  C   UNL     1     -31.759 -49.210  34.904  0.00  0.00    +0.025 A 
ATOM     19  C   UNL     1     -30.922 -49.269  33.772  0.00  0.00    +0.030 A 
ATOM     27  C   UNL     1     -29.946 -50.283  33.727  0.00  0.00    +0.025 A 
ATOM     28  C   UNL     1     -29.810 -51.192  34.778  0.00  0.00    +0.025 A 
BRANCH  19  20
ATOM     20  N   UNL     1     -31.038 -48.326  32.708  0.00  0.00    -0.328 N 
ATOM     21  C   UNL     1     -31.320 -48.930  31.391  0.00  0.00    +0.120 C 
ATOM     22  C   UNL     1     -31.010 -47.919  30.274  0.00  0.00    +0.103 C 
ATOM     23  N   UNL     1     -31.607 -46.581  30.507  0.00  0.00    -0.302 NA
ATOM     24  C   UNL     1     -32.806 -46.355  29.686  0.00  0.00    +0.105 C 
ATOM     25  C   UNL     1     -31.756 -46.079  31.896  0.00  0.00    +0.103 C 
ATOM     26  C   UNL     1     -31.978 -47.195  32.936  0.00  0.00    +0.120 C 
ENDBRANCH  19  20
ENDBRANCH  14  16
TORSDOF 6
