REMARK  Name = S26
REMARK  1 active torsions:
REMARK  status: ('A' for Active; 'I' for Inactive)
REMARK    1  A    between atoms: C15_11  and  C16_12
REMARK                            x       y       z     vdW  Elec       q    Type
REMARK                         _______ _______ _______ _____ _____    ______ ____
ROOT
ATOM      1  C   UNL     1     -14.807  39.474 -13.094  0.00  0.00    +0.058 A 
ATOM      2  C   UNL     1     -14.857  39.003 -11.783  0.00  0.00    +0.020 A 
ATOM      3  C   UNL     1     -13.705  39.088 -11.007  0.00  0.00    +0.051 A 
ATOM      4  S   UNL     1     -13.540  38.583  -9.412  0.00  0.00    -0.051 S 
ATOM      5  C   UNL     1     -11.861  39.071  -9.443  0.00  0.00    +0.170 A 
ATOM      6  N   UNL     1     -10.958  39.051  -8.448  0.00  0.00    -0.226 N 
ATOM      7  C   UNL     1     -11.437  38.936  -7.188  0.00  0.00    +0.293 C 
ATOM      8  C   UNL     1     -10.291  39.001  -6.259  0.00  0.00    +0.243 C 
ATOM      9  O   UNL     1     -10.307  38.908  -4.781  0.00  0.00    -0.282 OA
ATOM     10  C   UNL     1      -9.134  39.171  -7.154  0.00  0.00    +0.022 C 
ATOM     11  C   UNL     1      -7.704  39.288  -6.743  0.00  0.00    +0.032 C 
ATOM     12  O   UNL     1     -12.648  38.789  -6.809  0.00  0.00    -0.266 OA
ATOM     13  C   UNL     1      -9.474  39.212  -8.593  0.00  0.00    +0.132 C 
ATOM     19  N   UNL     1     -11.457  39.636 -10.614  0.00  0.00    -0.224 NA
ATOM     20  C   UNL     1     -12.451  39.664 -11.564  0.00  0.00    +0.089 A 
ATOM     21  C   UNL     1     -12.479  40.115 -12.877  0.00  0.00    +0.021 A 
ATOM     22  C   UNL     1     -13.646  40.025 -13.627  0.00  0.00    +0.013 A 
ATOM     23 CL   UNL     1     -16.261  39.390 -14.140  0.00  0.00    -0.082 Cl
ENDROOT
BRANCH  13  14
ATOM     14  C   UNL     1      -8.928  38.031  -9.309  0.00  0.00    +0.030 A 
ATOM     15  S   UNL     1      -9.648  36.452  -9.290  0.00  0.00    -0.089 S 
ATOM     16  C   UNL     1      -8.429  35.773 -10.340  0.00  0.00    +0.035 A 
ATOM     17  C   UNL     1      -7.522  36.796 -10.656  0.00  0.00    +0.007 A 
ATOM     18  C   UNL     1      -7.790  38.064 -10.111  0.00  0.00    +0.005 A 
ENDBRANCH  13  14
TORSDOF 1
