REMARK  Name = 5OPU
REMARK  4 active torsions:
REMARK  status: ('A' for Active; 'I' for Inactive)
REMARK    1  A    between atoms: C_1  and  C_2
REMARK    2  A    between atoms: C_7  and  C_8
REMARK    3  A    between atoms: C_11  and  N_12
REMARK    4  A    between atoms: C_17  and  C_18
REMARK                            x       y       z     vdW  Elec       q    Type
REMARK                         _______ _______ _______ _____ _____    ______ ____
ROOT
ATOM      7  C   UNL     1       4.608  -4.094  18.413  0.00  0.00    -0.003 A 
ATOM      8  C   UNL     1       3.379  -3.908  18.983  0.00  0.00    +0.052 A 
ATOM      9  C   UNL     1       3.271  -2.695  19.800  0.00  0.00    +0.119 A 
ATOM     10  N   UNL     1       4.195  -1.772  19.954  0.00  0.00    -0.213 NA
ATOM     11  C   UNL     1       5.420  -1.977  19.414  0.00  0.00    +0.164 A 
ATOM     12  N   UNL     1       6.482  -1.217  19.325  0.00  0.00    -0.234 NA
ATOM     13  C   UNL     1       7.465  -1.786  18.630  0.00  0.00    +0.132 A 
ATOM     14  C   UNL     1       6.969  -2.976  18.175  0.00  0.00    +0.081 A 
ATOM     20  C   UNL     1       5.639  -3.115  18.589  0.00  0.00    +0.046 A 
ENDROOT
BRANCH   7   6
ATOM      1  C   UNL     1       5.705  -5.872  13.822  0.00  0.00    +0.044 C 
ATOM      2  C   UNL     1       5.218  -6.099  15.286  0.00  0.00    -0.050 A 
ATOM      3  C   UNL     1       4.854  -7.354  15.661  0.00  0.00    +0.003 A 
ATOM      4  C   UNL     1       4.405  -7.615  16.994  0.00  0.00    +0.001 A 
ATOM      5  C   UNL     1       4.308  -6.560  17.844  0.00  0.00    +0.008 A 
ATOM      6  C   UNL     1       4.707  -5.278  17.535  0.00  0.00    -0.017 A 
ATOM     21  C   UNL     1       5.153  -5.001  16.175  0.00  0.00    +0.012 A 
ENDBRANCH   7   6
BRANCH   9  17
ATOM     17  N   UNL     1       2.078  -2.504  20.358  0.00  0.00    -0.343 N 
ATOM     18  H   UNL     1       1.906  -1.645  20.972  0.00  0.00    +0.144 HD
ATOM     19  H   UNL     1       1.291  -3.210  20.193  0.00  0.00    +0.144 HD
ENDBRANCH   9  17
BRANCH  14  15
ATOM     15  C   UNL     1       7.806  -3.800  17.299  0.00  0.00    +0.101 C 
ATOM     16  N   UNL     1       8.470  -4.491  16.652  0.00  0.00    -0.191 NA
ENDBRANCH  14  15
TORSDOF 3
