REMARK  Name = 5H8B
REMARK  7 active torsions:
REMARK  status: ('A' for Active; 'I' for Inactive)
REMARK    1  A    between atoms: C_1  and  C_25
REMARK    2  A    between atoms: N_4  and  C_9
REMARK    3  A    between atoms: N_4  and  C_14
REMARK    4  A    between atoms: C_5  and  C_6
REMARK    5  A    between atoms: C_11  and  C_13
REMARK    6  A    between atoms: N_21  and  C_22
REMARK    7  A    between atoms: C_24  and  N_26
REMARK                            x       y       z     vdW  Elec       q    Type
REMARK                         _______ _______ _______ _____ _____    ______ ____
ROOT
ATOM     11  N   UNL     1      17.673 -67.181  -1.509  0.00  0.00    -0.200 N 
ATOM     12  H   UNL     1      17.555 -67.400  -0.468  0.00  0.00    +0.298 HD
ATOM     13  C   UNL     1      18.783 -67.787  -2.084  0.00  0.00    +0.324 C 
ATOM     14  N   UNL     1      19.014 -67.708  -3.403  0.00  0.00    -0.015 NA
ATOM     15  C   UNL     1      20.102 -68.343  -3.868  0.00  0.00    +0.430 C 
ATOM     16  N   UNL     1      20.920 -69.148  -3.077  0.00  0.00    -0.068 N 
ATOM     17  N   UNL     1      21.987 -69.649  -3.811  0.00  0.00    -0.195 N 
ATOM     18  H   UNL     1      22.822 -70.216  -3.457  0.00  0.00    +0.194 HD
ATOM     19  C   UNL     1      21.724 -69.251  -5.087  0.00  0.00    +0.134 C 
ATOM     20  C   UNL     1      20.709 -69.212  -1.670  0.00  0.00    +0.291 C 
ATOM     26  C   UNL     1      20.578 -68.448  -5.186  0.00  0.00    +0.151 C 
ATOM     29  C   UNL     1      19.593 -68.518  -1.215  0.00  0.00    +0.193 C 
ENDROOT
BRANCH  11  10
ATOM      1  C   UNL     1      14.597 -64.718  -3.008  0.00  0.00    -0.029 A 
ATOM      2  C   UNL     1      13.477 -63.843  -3.514  0.00  0.00    +0.045 C 
ATOM      3  C   UNL     1      15.662 -65.112  -3.841  0.00  0.00    +0.040 A 
ATOM      9  C   UNL     1      16.666 -65.954  -3.361  0.00  0.00    +0.072 A 
ATOM     10  C   UNL     1      16.676 -66.339  -2.024  0.00  0.00    +0.120 A 
ATOM     30  C   UNL     1      15.687 -65.871  -1.169  0.00  0.00    +0.049 A 
ATOM     31  C   UNL     1      14.672 -65.067  -1.657  0.00  0.00    +0.009 A 
BRANCH   3   4
ATOM      4  N   UNL     1      15.515 -64.874  -5.224  0.00  0.00    -0.285 N 
ATOM      5  H   UNL     1      14.897 -64.033  -5.459  0.00  0.00    +0.155 HD
ATOM      6  C   UNL     1      16.012 -65.514  -6.309  0.00  0.00    +0.214 C 
ATOM      7  O   UNL     1      16.321 -64.924  -7.331  0.00  0.00    -0.276 OA
ATOM      8  C   UNL     1      16.012 -67.014  -6.230  0.00  0.00    +0.109 C 
ENDBRANCH   3   4
ENDBRANCH  11  10
BRANCH  20  21
ATOM     21  N   UNL     1      21.579 -69.891  -0.838  0.00  0.00    -0.234 N 
ATOM     22  H   UNL     1      22.405 -70.410  -1.278  0.00  0.00    +0.291 HD
BRANCH  21  23
ATOM     23  C   UNL     1      21.422 -69.933   0.619  0.00  0.00    +0.165 C 
ATOM     24  C   UNL     1      22.220 -70.907   1.390  0.00  0.00    +0.051 C 
ATOM     25  C   UNL     1      20.758 -71.102   1.227  0.00  0.00    +0.051 C 
ENDBRANCH  21  23
ENDBRANCH  20  21
BRANCH  26  27
ATOM     27  C   UNL     1      20.018 -67.854  -6.361  0.00  0.00    +0.106 C 
ATOM     28  N   UNL     1      19.591 -67.376  -7.310  0.00  0.00    -0.191 NA
ENDBRANCH  26  27
TORSDOF 5
