REMARK  Name = 3c7q_ligand
REMARK  11 active torsions:
REMARK  status: ('A' for Active; 'I' for Inactive)
REMARK    1  A    between atoms: C3_3  and  C7_7
REMARK    2  A    between atoms: C3_3  and  N8_34
REMARK    3  A    between atoms: C15_10  and  N8_34
REMARK    4  A    between atoms: C16_11  and  C21_15
REMARK    5  A    between atoms: C21_15  and  O25_18
REMARK    6  A    between atoms: O25_18  and  C28_38
REMARK    7  A    between atoms: C27_20  and  N29_32
REMARK    8  A    between atoms: C30_21  and  C32_23
REMARK    9  A    between atoms: C31_22  and  N29_32
REMARK   10  A    between atoms: C32_23  and  N34_30
REMARK   11  A    between atoms: C40_28  and  N39_31
REMARK                            x       y       z     vdW  Elec       q    Type
REMARK                         _______ _______ _______ _____ _____    ______ ____
ROOT
ATOM      1  C   UNL     1      21.331  64.474  30.745  0.00  0.00    +0.066 C 
ATOM      2  C   UNL     1      22.580  64.802  31.479  0.00  0.00    +0.202 C 
ATOM      3  O   UNL     1      23.197  65.769  31.404  0.00  0.00    -0.397 OA
ATOM      4  N   UNL     1      22.873  63.730  32.223  0.00  0.00    -0.243 N 
ATOM      5  H   UNL     1      23.681  63.660  32.808  0.00  0.00    +0.223 HD
ATOM      6  C   UNL     1      21.951  62.753  32.092  0.00  0.00    +0.068 A 
ATOM      7  C   UNL     1      21.946  61.536  32.728  0.00  0.00    +0.024 A 
ATOM      8  C   UNL     1      20.897  60.657  32.446  0.00  0.00    +0.040 A 
ATOM     13  C   UNL     1      19.925  61.047  31.541  0.00  0.00    -0.012 A 
ATOM     14  C   UNL     1      19.951  62.280  30.927  0.00  0.00    -0.022 A 
ATOM     15  C   UNL     1      20.803  65.358  29.883  0.00  0.00    +0.094 C 
ATOM     44  C   UNL     1      20.976  63.132  31.193  0.00  0.00    -0.007 A 
ENDROOT
BRANCH  15  38
ATOM     38  C   UNL     1      19.567  65.043  29.184  0.00  0.00    +0.023 A 
ATOM     39  C   UNL     1      18.416  64.918  29.922  0.00  0.00    +0.022 A 
ATOM     40  C   UNL     1      17.227  64.633  29.323  0.00  0.00    +0.006 A 
ATOM     41  C   UNL     1      17.177  64.478  27.965  0.00  0.00    +0.008 A 
ATOM     42  C   UNL     1      18.321  64.641  27.225  0.00  0.00    +0.006 A 
ATOM     43  C   UNL     1      19.514  64.925  27.820  0.00  0.00    +0.022 A 
ENDBRANCH  15  38
BRANCH   8   9
ATOM      9  C   UNL     1      20.849  59.301  33.055  0.00  0.00    +0.253 C 
ATOM     10  O   UNL     1      19.991  58.537  32.849  0.00  0.00    -0.361 OA
BRANCH   9  11
ATOM     11  O   UNL     1      21.908  58.977  33.775  0.00  0.00    -0.282 OA
ATOM     12  C   UNL     1      21.824  57.666  34.235  0.00  0.00    +0.237 C 
ENDBRANCH   9  11
ENDBRANCH   8   9
BRANCH  15  16
ATOM     16  N   UNL     1      21.355  66.572  29.629  0.00  0.00    -0.267 N 
ATOM     17  H   UNL     1      22.213  66.712  30.181  0.00  0.00    +0.218 HD
BRANCH  16  18
ATOM     18  C   UNL     1      21.095  67.649  28.855  0.00  0.00    +0.053 A 
ATOM     19  C   UNL     1      19.994  68.021  28.117  0.00  0.00    +0.002 A 
ATOM     20  C   UNL     1      19.946  69.196  27.365  0.00  0.00    -0.000 A 
ATOM     21  C   UNL     1      21.045  70.031  27.333  0.00  0.00    +0.059 A 
ATOM     36  C   UNL     1      22.134  69.617  28.056  0.00  0.00    -0.000 A 
ATOM     37  C   UNL     1      22.155  68.459  28.788  0.00  0.00    +0.002 A 
BRANCH  21  22
ATOM     22  N   UNL     1      21.143  71.258  26.625  0.00  0.00    -0.224 N 
ATOM     23  C   UNL     1      21.866  71.330  25.376  0.00  0.00    +0.207 C 
ATOM     24  C   UNL     1      20.656  72.428  27.138  0.00  0.00    +0.249 C 
ATOM     25  O   UNL     1      20.659  73.441  26.505  0.00  0.00    -0.380 OA
BRANCH  24  26
ATOM     26  C   UNL     1      20.199  72.399  28.600  0.00  0.00    +0.277 C 
BRANCH  26  27
ATOM     27  N   UNL     1      20.653  73.570  29.327  0.00  0.00    +0.260 N 
ATOM     28  H   UNL     1      20.860  74.279  28.641  0.00  0.00    +0.206 HD
ATOM     29  C   UNL     1      21.829  73.387  30.125  0.00  0.00    +0.185 C 
ATOM     30  C   UNL     1      22.246  74.744  30.679  0.00  0.00    +0.183 C 
ATOM     31  N   UNL     1      21.212  75.392  31.470  0.00  0.00    +0.240 N 
ATOM     32  H   UNL     1      21.110  74.888  32.337  0.00  0.00    +0.203 HD
ATOM     33  C   UNL     1      21.602  76.750  31.751  0.00  0.00    +0.191 C 
ATOM     34  C   UNL     1      19.935  75.422  30.797  0.00  0.00    +0.183 C 
ATOM     35  C   UNL     1      19.604  74.066  30.200  0.00  0.00    +0.185 C 
ENDBRANCH  26  27
ENDBRANCH  24  26
ENDBRANCH  21  22
ENDBRANCH  16  18
ENDBRANCH  15  16
TORSDOF 8
