REMARK  Name = 4m3q_ligand
REMARK  7 active torsions:
REMARK  status: ('A' for Active; 'I' for Inactive)
REMARK    1  A    between atoms: C01_1  and  C02_2
REMARK    2  A    between atoms: C02_2  and  C03_3
REMARK    3  A    between atoms: C03_3  and  C04_4
REMARK    4  A    between atoms: C04_4  and  N05_5
REMARK    5  A    between atoms: C09_9  and  C20_20
REMARK    6  A    between atoms: N11_11  and  C12_12
REMARK    7  A    between atoms: C15_15  and  O16_16
REMARK                            x       y       z     vdW  Elec       q    Type
REMARK                         _______ _______ _______ _____ _____    ______ ____
ROOT
ATOM      5  N   UNL     1     -15.017  43.891 -17.433  0.00  0.00    -0.291 N 
ATOM      6  H   UNL     1     -15.509  44.654 -17.919  0.00  0.00    +0.187 HD
ATOM      7  C   UNL     1     -15.672  43.166 -16.352  0.00  0.00    +0.177 A 
ATOM      8  N   UNL     1     -15.220  41.928 -16.085  0.00  0.00    -0.238 NA
ATOM      9  C   UNL     1     -15.729  41.153 -15.118  0.00  0.00    +0.128 A 
ATOM     10  N   UNL     1     -15.140  39.838 -14.941  0.00  0.00    -0.297 N 
ATOM     11  H   UNL     1     -15.566  39.171 -14.281  0.00  0.00    +0.187 HD
ATOM     20  C   UNL     1     -16.790  41.655 -14.341  0.00  0.00    +0.056 A 
ATOM     27  C   UNL     1     -17.259  42.944 -14.641  0.00  0.00    +0.100 A 
ATOM     28  N   UNL     1     -16.691  43.684 -15.640  0.00  0.00    -0.269 NA
ENDROOT
BRANCH  10  12
ATOM     12  C   UNL     1     -13.958  39.458 -15.686  0.00  0.00    +0.098 C 
ATOM     13  C   UNL     1     -13.029  38.703 -14.767  0.00  0.00    +0.031 C 
ATOM     14  C   UNL     1     -11.890  38.051 -15.531  0.00  0.00    +0.034 C 
ATOM     15  C   UNL     1     -12.394  37.191 -16.671  0.00  0.00    +0.115 C 
ATOM     18  C   UNL     1     -13.294  37.968 -17.606  0.00  0.00    +0.034 C 
ATOM     19  C   UNL     1     -14.433  38.638 -16.869  0.00  0.00    +0.031 C 
BRANCH  15  16
ATOM     16  O   UNL     1     -11.288  36.704 -17.417  0.00  0.00    -0.392 OA
ATOM     17  H   UNL     1     -10.712  36.213 -16.843  0.00  0.00    +0.210 HD
ENDBRANCH  15  16
ENDBRANCH  10  12
BRANCH  20  21
ATOM     21  C   UNL     1     -17.390  40.881 -13.316  0.00  0.00    +0.051 A 
ATOM     22  N   UNL     1     -16.653  40.040 -12.562  0.00  0.00    -0.297 NA
ATOM     23  C   UNL     1     -17.189  39.277 -11.589  0.00  0.00    +0.088 A 
ATOM     24  C   UNL     1     -18.556  39.351 -11.343  0.00  0.00    +0.031 A 
ATOM     25  C   UNL     1     -19.349  40.201 -12.100  0.00  0.00    +0.028 A 
ATOM     26  C   UNL     1     -18.760  40.977 -13.102  0.00  0.00    +0.038 A 
ENDBRANCH  20  21
BRANCH   5   4
ATOM      4  C   UNL     1     -13.657  43.526 -17.821  0.00  0.00    +0.136 C 
BRANCH   4   3
ATOM      3  C   UNL     1     -13.608  42.960 -19.256  0.00  0.00    +0.025 C 
BRANCH   3   2
ATOM      1  C   UNL     1     -13.565  40.833 -20.653  0.00  0.00    +0.004 C 
ATOM      2  C   UNL     1     -13.385  41.441 -19.266  0.00  0.00    -0.001 C 
ENDBRANCH   3   2
ENDBRANCH   4   3
ENDBRANCH   5   4
TORSDOF 6
