REMARK  Name = 5USY
REMARK  4 active torsions:
REMARK  status: ('A' for Active; 'I' for Inactive)
REMARK    1  A    between atoms: S_1  and  N_14
REMARK    2  A    between atoms: S_1  and  C_17
REMARK    3  A    between atoms: C_10  and  N_11
REMARK    4  A    between atoms: C_21  and  C_22
REMARK                            x       y       z     vdW  Elec       q    Type
REMARK                         _______ _______ _______ _____ _____    ______ ____
ROOT
ATOM      7  N   UNL     1     -15.442  23.471  99.516  0.00  0.00    -0.282 N 
ATOM      8  H   UNL     1     -15.449  24.178 100.319  0.00  0.00    +0.155 HD
ATOM      9  C   UNL     1     -16.239  23.739  98.379  0.00  0.00    +0.241 A 
ATOM     10  N   UNL     1     -16.651  22.864  97.491  0.00  0.00    -0.125 NA
ATOM     11  N   UNL     1     -17.422  23.540  96.627  0.00  0.00    -0.161 N 
ATOM     12  C   UNL     1     -18.019  22.911  95.466  0.00  0.00    +0.287 C 
ATOM     21  O   UNL     1     -18.725  23.533  94.743  0.00  0.00    -0.265 OA
ATOM     22  C   UNL     1     -17.506  24.799  97.003  0.00  0.00    +0.220 A 
ATOM     23  N   UNL     1     -18.238  25.884  96.374  0.00  0.00    -0.327 N 
ATOM     24  H   UNL     1     -18.816  25.699  95.493  0.00  0.00    +0.145 HD
ATOM     25  H   UNL     1     -18.200  26.868  96.792  0.00  0.00    +0.145 HD
ATOM     26  N   UNL     1     -16.757  24.937  98.108  0.00  0.00    -0.180 NA
ENDROOT
BRANCH  12  13
ATOM     13  C   UNL     1     -17.755  21.431  95.230  0.00  0.00    +0.112 A 
ATOM     14  C   UNL     1     -16.465  20.967  95.117  0.00  0.00    +0.139 A 
ATOM     15  C   UNL     1     -16.209  19.626  94.877  0.00  0.00    +0.039 A 
ATOM     16  C   UNL     1     -17.273  18.749  94.722  0.00  0.00    +0.006 A 
ATOM     17  C   UNL     1     -18.565  19.217  94.827  0.00  0.00    +0.039 A 
ATOM     18  F   UNL     1     -15.419  21.822  95.266  0.00  0.00    -0.205 F 
ATOM     19  C   UNL     1     -18.786  20.558  95.052  0.00  0.00    +0.139 A 
ATOM     20  F   UNL     1     -20.035  21.043  95.148  0.00  0.00    -0.205 F 
ENDBRANCH  12  13
BRANCH   7   5
ATOM      2  C   UNL     1     -13.041  20.149  99.991  0.00  0.00    +0.105 A 
ATOM      3  C   UNL     1     -13.032  21.139 100.940  0.00  0.00    +0.030 A 
ATOM      4  C   UNL     1     -13.831  22.250 100.761  0.00  0.00    +0.025 A 
ATOM      5  C   UNL     1     -14.625  22.299  99.646  0.00  0.00    +0.034 A 
ATOM      6  C   UNL     1     -14.638  21.296  98.689  0.00  0.00    +0.025 A 
ATOM     27  C   UNL     1     -13.824  20.201  98.864  0.00  0.00    +0.030 A 
BRANCH   2   1
ATOM      1  S   UNL     1     -11.962  18.723 100.249  0.00  0.00    +0.056 S 
ATOM     31  O   UNL     1     -12.750  17.656 100.805  0.00  0.00    -0.153 OA
ATOM     32  O   UNL     1     -11.042  19.080 101.339  0.00  0.00    -0.153 OA
BRANCH   1  28
ATOM     28  N   UNL     1     -11.133  18.420  98.799  0.00  0.00    -0.203 NA
ATOM     29  H   UNL     1     -10.591  19.296  98.508  0.00  0.00    +0.144 HD
ATOM     30  H   UNL     1     -10.450  17.609  98.941  0.00  0.00    +0.144 HD
ENDBRANCH   1  28
ENDBRANCH   2   1
ENDBRANCH   7   5
TORSDOF 4
