REMARK  Name = 4R3C
REMARK  4 active torsions:
REMARK  status: ('A' for Active; 'I' for Inactive)
REMARK    1  A    between atoms: C_1  and  N_2
REMARK    2  A    between atoms: N_5  and  C_8
REMARK    3  A    between atoms: C_10  and  C_11
REMARK    4  A    between atoms: C_17  and  C_20
REMARK                            x       y       z     vdW  Elec       q    Type
REMARK                         _______ _______ _______ _____ _____    ______ ____
ROOT
ATOM      6  C   UNL     1      65.127  77.396  22.425  0.00  0.00    +0.144 A 
ATOM      7  N   UNL     1      64.685  78.047  21.346  0.00  0.00    -0.134 NA
ATOM      8  N   UNL     1      63.732  77.518  20.486  0.00  0.00    -0.147 NA
ATOM      9  C   UNL     1      63.219  76.305  20.699  0.00  0.00    +0.101 A 
ATOM     20  C   UNL     1      63.656  75.568  21.806  0.00  0.00    +0.013 A 
ATOM     27  C   UNL     1      64.621  76.111  22.658  0.00  0.00    +0.056 A 
ENDROOT
BRANCH   9  10
ATOM     10  C   UNL     1      62.224  75.817  19.714  0.00  0.00    +0.003 A 
ATOM     11  C   UNL     1      60.942  75.426  20.106  0.00  0.00    +0.010 A 
ATOM     12  C   UNL     1      60.004  74.967  19.176  0.00  0.00    +0.009 A 
ATOM     13  C   UNL     1      60.351  74.900  17.845  0.00  0.00    -0.018 A 
ATOM     14  C   UNL     1      59.463  74.440  16.881  0.00  0.00    +0.008 A 
ATOM     15  C   UNL     1      59.858  74.382  15.548  0.00  0.00    +0.001 A 
ATOM     16  C   UNL     1      61.134  74.790  15.152  0.00  0.00    +0.001 A 
ATOM     17  C   UNL     1      62.052  75.263  16.083  0.00  0.00    +0.008 A 
ATOM     18  C   UNL     1      61.704  75.334  17.429  0.00  0.00    -0.017 A 
ATOM     19  C   UNL     1      62.601  75.775  18.382  0.00  0.00    +0.018 A 
ENDBRANCH   9  10
BRANCH   6   5
ATOM      1  C   UNL     1      68.433  80.188  25.988  0.00  0.00    +0.105 C 
ATOM      2  N   UNL     1      67.991  79.312  24.890  0.00  0.00    -0.302 NA
ATOM      3  C   UNL     1      67.162  80.082  23.962  0.00  0.00    +0.103 C 
ATOM      4  C   UNL     1      66.772  79.227  22.769  0.00  0.00    +0.122 C 
ATOM      5  N   UNL     1      66.109  78.009  23.249  0.00  0.00    -0.311 N 
ATOM     28  C   UNL     1      66.474  77.343  24.514  0.00  0.00    +0.122 C 
ATOM     29  C   UNL     1      67.176  78.260  25.512  0.00  0.00    +0.103 C 
ENDBRANCH   6   5
BRANCH  20  21
ATOM     21  C   UNL     1      63.217  74.180  22.123  0.00  0.00    -0.013 A 
ATOM     22  C   UNL     1      62.879  73.811  23.425  0.00  0.00    +0.028 A 
ATOM     23  C   UNL     1      62.514  72.497  23.687  0.00  0.00    +0.111 A 
ATOM     24  N   UNL     1      62.552  71.571  22.716  0.00  0.00    -0.263 NA
ATOM     25  C   UNL     1      62.895  71.896  21.457  0.00  0.00    +0.111 A 
ATOM     26  C   UNL     1      63.251  73.200  21.138  0.00  0.00    +0.028 A 
ENDBRANCH  20  21
TORSDOF 3
