REMARK  Name = 3bea_ligand
REMARK  6 active torsions:
REMARK  status: ('A' for Active; 'I' for Inactive)
REMARK    1  A    between atoms: C1_1  and  C2_2
REMARK    2  A    between atoms: C5_5  and  C6_6
REMARK    3  A    between atoms: C7_7  and  N1_30
REMARK    4  A    between atoms: C10_10  and  N5_34
REMARK    5  A    between atoms: C17_17  and  C29_29
REMARK    6  A    between atoms: C19_19  and  N3_32
REMARK                            x       y       z     vdW  Elec       q    Type
REMARK                         _______ _______ _______ _____ _____    ______ ____
ROOT
ATOM     14  N   UNL     1       6.086  28.603   9.181  0.00  0.00    -0.249 N 
ATOM     15  H   UNL     1       6.422  28.714  10.148  0.00  0.00    +0.216 HD
ATOM     16  C   UNL     1       6.629  27.498   8.558  0.00  0.00    +0.201 A 
ATOM     17  N   UNL     1       6.309  27.351   7.253  0.00  0.00    -0.222 NA
ATOM     18  C   UNL     1       6.771  26.282   6.543  0.00  0.00    +0.185 A 
ATOM     19  N   UNL     1       6.428  26.128   5.134  0.00  0.00    -0.178 N 
ATOM     29  C   UNL     1       6.925  25.002   4.445  0.00  0.00    +0.231 A 
ATOM     30  C   UNL     1       7.715  24.020   4.953  0.00  0.00    +0.110 A 
ATOM     36  C   UNL     1       8.099  24.145   6.406  0.00  0.00    +0.132 A 
ATOM     37  O   UNL     1       8.812  23.317   6.972  0.00  0.00    -0.414 OA
ATOM     38  C   UNL     1       7.586  25.315   7.160  0.00  0.00    +0.092 A 
ATOM     39  C   UNL     1       7.876  25.536   8.508  0.00  0.00    +0.116 A 
ATOM     40  N   UNL     1       7.410  26.609   9.213  0.00  0.00    -0.258 NA
ENDROOT
BRANCH  19  20
ATOM     20  C   UNL     1       5.620  27.093   4.441  0.00  0.00    +0.088 A 
ATOM     21  C   UNL     1       6.234  27.948   3.450  0.00  0.00    +0.015 A 
ATOM     22  C   UNL     1       5.450  28.904   2.767  0.00  0.00    -0.046 A 
ATOM     23  C   UNL     1       5.887  29.878   1.715  0.00  0.00    +0.060 C 
ATOM     24  C   UNL     1       4.536  30.289   1.098  0.00  0.00    +0.024 C 
ATOM     25  C   UNL     1       3.466  30.121   2.192  0.00  0.00    +0.056 C 
ATOM     26  C   UNL     1       4.069  29.040   3.039  0.00  0.00    -0.049 A 
ATOM     27  C   UNL     1       3.435  28.224   3.997  0.00  0.00    -0.020 A 
ATOM     28  C   UNL     1       4.213  27.246   4.698  0.00  0.00    +0.007 A 
ENDBRANCH  19  20
BRANCH  14  13
ATOM     10  C   UNL     1       3.260  31.742   8.236  0.00  0.00    +0.030 A 
ATOM     11  C   UNL     1       3.723  31.465   9.561  0.00  0.00    -0.004 A 
ATOM     12  C   UNL     1       4.657  30.429   9.837  0.00  0.00    +0.002 A 
ATOM     13  C   UNL     1       5.183  29.612   8.807  0.00  0.00    +0.054 A 
ATOM     41  C   UNL     1       4.732  29.866   7.477  0.00  0.00    +0.002 A 
ATOM     42  C   UNL     1       3.795  30.908   7.195  0.00  0.00    -0.004 A 
BRANCH  10   9
ATOM      1  C   UNL     1      -0.569  33.661   5.679  0.00  0.00    +0.066 C 
ATOM      2  C   UNL     1       0.343  33.746   6.897  0.00  0.00    +0.081 C 
ATOM      3  N   UNL     1       0.940  35.125   6.974  0.00  0.00    +0.234 N 
ATOM      4  H   UNL     1       1.472  35.308   6.138  0.00  0.00    +0.202 HD
ATOM      5  H   UNL     1       0.203  35.807   7.059  0.00  0.00    +0.202 HD
ATOM      6  C   UNL     1       1.842  35.210   8.172  0.00  0.00    +0.081 C 
ATOM      7  C   UNL     1       2.449  36.610   8.246  0.00  0.00    +0.066 C 
ATOM      8  C   UNL     1       2.960  34.130   8.116  0.00  0.00    +0.180 C 
ATOM      9  N   UNL     1       2.328  32.786   8.030  0.00  0.00    -0.304 N 
ATOM     43  C   UNL     1       1.455  32.654   6.831  0.00  0.00    +0.180 C 
ENDBRANCH  10   9
ENDBRANCH  14  13
BRANCH  30  31
ATOM     31  C   UNL     1       8.140  22.919   4.041  0.00  0.00    +0.184 C 
ATOM     32  O   UNL     1       7.800  22.860   2.860  0.00  0.00    -0.405 OA
ATOM     33  N   UNL     1       8.949  21.960   4.581  0.00  0.00    -0.306 N 
ATOM     34  H   UNL     1       9.225  22.020   5.540  0.00  0.00    +0.179 HD
ATOM     35  H   UNL     1       9.266  21.197   4.017  0.00  0.00    +0.179 HD
ENDBRANCH  30  31
TORSDOF 4
