REMARK  Name = 1H0V
REMARK  3 active torsions:
REMARK  status: ('A' for Active; 'I' for Inactive)
REMARK    1  A    between atoms: C_4  and  C_13
REMARK    2  A    between atoms: C_11  and  O_12
REMARK    3  A    between atoms: O_12  and  C_13
REMARK                            x       y       z     vdW  Elec       q    Type
REMARK                         _______ _______ _______ _____ _____    ______ ____
ROOT
ATOM      1  C   UNL     1       2.418  29.287   6.729  0.00  0.00    +0.218 A 
ATOM      2  N   UNL     1       1.893  28.276   7.478  0.00  0.00    -0.178 NA
ATOM      3  C   UNL     1       0.823  28.474   8.242  0.00  0.00    +0.246 A 
ATOM     13  C   UNL     1       0.286  29.804   8.310  0.00  0.00    +0.147 A 
ATOM     14  N   UNL     1      -0.742  30.267   9.011  0.00  0.00    -0.339 N 
ATOM     15  H   UNL     1      -1.357  29.744   9.713  0.00  0.00    +0.167 HD
ATOM     16  C   UNL     1      -0.822  31.518   8.635  0.00  0.00    +0.199 A 
ATOM     17  N   UNL     1       0.136  31.859   7.752  0.00  0.00    -0.216 NA
ATOM     18  C   UNL     1       0.858  30.795   7.484  0.00  0.00    +0.186 A 
ATOM     19  N   UNL     1       3.485  29.115   5.936  0.00  0.00    -0.327 N 
ATOM     20  H   UNL     1       3.961  28.158   5.880  0.00  0.00    +0.145 HD
ATOM     21  H   UNL     1       3.861  29.934   5.359  0.00  0.00    +0.145 HD
ATOM     22  N   UNL     1       1.899  30.502   6.732  0.00  0.00    -0.193 NA
ENDROOT
BRANCH   3   4
ATOM      4  O   UNL     1       0.302  27.520   9.020  0.00  0.00    -0.473 OA
BRANCH   4   5
ATOM      5  C   UNL     1       1.440  26.719   9.415  0.00  0.00    +0.253 C 
BRANCH   5   6
ATOM      6  C   UNL     1       1.077  25.833  10.590  0.00  0.00    +0.111 C 
ATOM      7  N   UNL     1       2.041  24.730  10.639  0.00  0.00    -0.309 N 
ATOM      8  H   UNL     1       3.105  24.842  10.656  0.00  0.00    +0.149 HD
ATOM      9  C   UNL     1       1.372  23.530  10.660  0.00  0.00    +0.213 C 
ATOM     10  O   UNL     1       1.838  22.399  10.691  0.00  0.00    -0.276 OA
ATOM     11  C   UNL     1      -0.125  23.728  10.647  0.00  0.00    +0.098 C 
ATOM     12  C   UNL     1      -0.311  25.196  10.361  0.00  0.00    +0.035 C 
ENDBRANCH   5   6
ENDBRANCH   4   5
ENDBRANCH   3   4
TORSDOF 3
