REMARK  Name = TVU
REMARK  5 active torsions:
REMARK  status: ('A' for Active; 'I' for Inactive)
REMARK    1  A    between atoms: C17_8  and  N1_9
REMARK    2  A    between atoms: C16_10  and  C14_12
REMARK    3  A    between atoms: C8_22  and  C4_23
REMARK    4  A    between atoms: C6_27  and  O1_28
REMARK    5  A    between atoms: C1_30  and  O_31
REMARK                            x       y       z     vdW  Elec       q    Type
REMARK                         _______ _______ _______ _____ _____    ______ ____
ROOT
ATOM      8  C   UNL     1      25.615  -5.224  16.776  0.00  0.00    +0.085 A 
ATOM      9  C   UNL     1      26.275  -4.266  17.471  0.00  0.00    +0.016 A 
ATOM     10  C   UNL     1      25.467  -3.627  18.449  0.00  0.00    +0.063 A 
ATOM     11  C   UNL     1      25.901  -2.537  19.266  0.00  0.00    +0.261 C 
ATOM     12  N   UNL     1      24.909  -2.023  20.104  0.00  0.00    -0.292 N 
ATOM     13  C   UNL     1      25.271  -0.903  20.968  0.00  0.00    +0.134 C 
ATOM     14  C   UNL     1      23.649  -2.526  20.139  0.00  0.00    +0.079 C 
ATOM     15  C   UNL     1      23.217  -3.558  19.372  0.00  0.00    +0.024 C 
ATOM     26  O   UNL     1      27.020  -2.036  19.233  0.00  0.00    -0.267 OA
ATOM     27  C   UNL     1      24.187  -4.132  18.488  0.00  0.00    +0.036 A 
ATOM     28  S   UNL     1      23.982  -5.393  17.328  0.00  0.00    -0.082 S 
ENDROOT
BRANCH  15  16
ATOM     16  C   UNL     1      21.809  -4.028  19.488  0.00  0.00    +0.005 A 
ATOM     17  C   UNL     1      21.172  -4.034  20.727  0.00  0.00    +0.003 A 
ATOM     18  C   UNL     1      19.885  -4.521  20.867  0.00  0.00    +0.040 A 
ATOM     19  C   UNL     1      19.207  -4.999  19.754  0.00  0.00    +0.172 A 
ATOM     22  C   UNL     1      19.836  -4.984  18.487  0.00  0.00    +0.172 A 
ATOM     25  C   UNL     1      21.126  -4.487  18.364  0.00  0.00    +0.040 A 
BRANCH  19  20
ATOM     20  O   UNL     1      17.934  -5.503  19.791  0.00  0.00    -0.468 OA
ATOM     21  C   UNL     1      17.190  -5.335  21.000  0.00  0.00    +0.253 C 
ENDBRANCH  19  20
BRANCH  22  23
ATOM     23  O   UNL     1      19.109  -5.505  17.449  0.00  0.00    -0.468 OA
ATOM     24  C   UNL     1      19.698  -5.506  16.156  0.00  0.00    +0.253 C 
ENDBRANCH  22  23
ENDBRANCH  15  16
BRANCH   8   7
ATOM      6  N   UNL     1      27.273  -5.943  15.186  0.00  0.00    -0.203 NA
ATOM      7  C   UNL     1      26.032  -6.110  15.670  0.00  0.00    +0.271 C 
ATOM     29  O   UNL     1      25.283  -7.008  15.282  0.00  0.00    -0.268 OA
BRANCH   6   5
ATOM      1  O   UNL     1      29.982  -6.238  11.112  0.00  0.00    -0.173 OA
ATOM      2  S   UNL     1      29.535  -5.241  12.039  0.00  0.00    -0.010 S 
ATOM      3  C   UNL     1      30.071  -5.675  13.664  0.00  0.00    +0.153 C 
ATOM      4  C   UNL     1      29.374  -6.879  14.260  0.00  0.00    +0.047 C 
ATOM      5  C   UNL     1      27.853  -6.899  14.238  0.00  0.00    +0.099 C 
ATOM     30  C   UNL     1      27.332  -6.660  12.838  0.00  0.00    +0.047 C 
ATOM     31  C   UNL     1      27.782  -5.343  12.227  0.00  0.00    +0.153 C 
ATOM     32  O   UNL     1      29.892  -3.873  11.781  0.00  0.00    -0.173 OA
ENDBRANCH   6   5
ENDBRANCH   8   7
TORSDOF 5
