REMARK  Name = 5UUU
REMARK  9 active torsions:
REMARK  status: ('A' for Active; 'I' for Inactive)
REMARK    1  A    between atoms: C_1  and  C_7
REMARK    2  A    between atoms: C_10  and  C_13
REMARK    3  A    between atoms: N_11  and  C_12
REMARK    4  A    between atoms: C_13  and  N_14
REMARK    5  A    between atoms: N_14  and  C_15
REMARK    6  A    between atoms: C_19  and  C_21
REMARK    7  A    between atoms: N_23  and  C_24
REMARK    8  A    between atoms: C_24  and  C_25
REMARK    9  A    between atoms: C_26  and  C_31
REMARK                            x       y       z     vdW  Elec       q    Type
REMARK                         _______ _______ _______ _____ _____    ______ ____
ROOT
ATOM      9  C   UNL     1     -58.948  33.189 -37.189  0.00  0.00    +0.028 A 
ATOM     10  C   UNL     1     -59.262  34.008 -36.100  0.00  0.00    +0.036 A 
ATOM     11  C   UNL     1     -60.020  35.174 -36.295  0.00  0.00    +0.038 A 
ATOM     27  C   UNL     1     -60.479  35.505 -37.586  0.00  0.00    +0.013 A 
ATOM     28  C   UNL     1     -60.173  34.689 -38.666  0.00  0.00    +0.003 A 
ATOM     29  C   UNL     1     -59.415  33.535 -38.473  0.00  0.00    +0.023 A 
ENDROOT
BRANCH  11  12
ATOM     12  C   UNL     1     -60.363  36.029 -35.139  0.00  0.00    +0.244 C 
ATOM     13  N   UNL     1     -59.595  35.979 -34.021  0.00  0.00    -0.307 N 
ATOM     14  H   UNL     1     -58.746  35.328 -33.998  0.00  0.00    +0.149 HD
ATOM     26  O   UNL     1     -61.345  36.758 -35.222  0.00  0.00    -0.270 OA
BRANCH  13  15
ATOM     15  C   UNL     1     -59.903  36.795 -32.848  0.00  0.00    +0.140 C 
BRANCH  15  16
ATOM     16  C   UNL     1     -59.181  36.209 -31.673  0.00  0.00    -0.019 A 
ATOM     17  C   UNL     1     -59.663  35.079 -31.033  0.00  0.00    +0.006 A 
ATOM     18  C   UNL     1     -58.970  34.556 -29.957  0.00  0.00    +0.000 A 
ATOM     19  C   UNL     1     -57.802  35.167 -29.530  0.00  0.00    +0.001 A 
ATOM     20  C   UNL     1     -57.326  36.295 -30.176  0.00  0.00    +0.013 A 
ATOM     21  C   UNL     1     -58.017  36.812 -31.256  0.00  0.00    +0.059 A 
BRANCH  21  22
ATOM     22  C   UNL     1     -57.527  38.041 -31.979  0.00  0.00    +0.418 C 
ATOM     23  F   UNL     1     -58.203  39.151 -31.464  0.00  0.00    -0.166 F 
ATOM     24  F   UNL     1     -57.797  37.946 -33.350  0.00  0.00    -0.166 F 
ATOM     25  F   UNL     1     -56.153  38.185 -31.784  0.00  0.00    -0.166 F 
ENDBRANCH  21  22
ENDBRANCH  15  16
ENDBRANCH  13  15
ENDBRANCH  11  12
BRANCH   9   7
ATOM      7  N   UNL     1     -58.169  32.047 -36.946  0.00  0.00    -0.337 N 
ATOM      8  H   UNL     1     -57.796  31.897 -35.955  0.00  0.00    +0.146 HD
BRANCH   7   6
ATOM      6  C   UNL     1     -57.836  31.051 -37.961  0.00  0.00    +0.178 C 
BRANCH   6   5
ATOM      2  C   UNL     1     -55.688  31.936 -40.790  0.00  0.00    +0.164 A 
ATOM      3  N   UNL     1     -56.619  31.095 -40.209  0.00  0.00    -0.313 N 
ATOM      4  C   UNL     1     -57.242  29.882 -40.762  0.00  0.00    +0.152 C 
ATOM      5  C   UNL     1     -56.868  31.612 -38.978  0.00  0.00    +0.151 A 
ATOM     30  N   UNL     1     -56.128  32.681 -38.841  0.00  0.00    -0.132 NA
ATOM     31  N   UNL     1     -55.428  32.864 -39.900  0.00  0.00    -0.129 NA
BRANCH   2   1
ATOM      1  C   UNL     1     -55.028  31.813 -42.111  0.00  0.00    +0.022 A 
ATOM     32  C   UNL     1     -53.720  32.296 -42.270  0.00  0.00    +0.031 A 
ATOM     33  C   UNL     1     -53.097  32.139 -43.500  0.00  0.00    +0.111 A 
ATOM     34  N   UNL     1     -53.701  31.533 -44.514  0.00  0.00    -0.263 NA
ATOM     35  C   UNL     1     -54.926  31.043 -44.407  0.00  0.00    +0.111 A 
ATOM     36  C   UNL     1     -55.626  31.165 -43.214  0.00  0.00    +0.031 A 
ENDBRANCH   2   1
ENDBRANCH   6   5
ENDBRANCH   7   6
ENDBRANCH   9   7
TORSDOF 8
