REMARK  Name = 6SN
REMARK  1 active torsions:
REMARK  status: ('A' for Active; 'I' for Inactive)
REMARK    1  A    between atoms: C5_9  and  C6_11
REMARK                            x       y       z     vdW  Elec       q    Type
REMARK                         _______ _______ _______ _____ _____    ______ ____
ROOT
ATOM      1  C   UNL     1      41.776  -1.355  -1.486  0.00  0.00    +0.012 A 
ATOM      2  C   UNL     1      40.780  -1.820  -0.645  0.00  0.00    +0.003 A 
ATOM      3  C   UNL     1      41.025  -1.982   0.719  0.00  0.00    +0.020 A 
ATOM     10  C   UNL     1      42.289  -1.686   1.224  0.00  0.00    +0.014 A 
ATOM     11  C   UNL     1      43.283  -1.228   0.386  0.00  0.00    +0.068 A 
ATOM     12 CL   UNL     1      44.839  -0.878   1.064  0.00  0.00    -0.081 Cl
ATOM     13  C   UNL     1      43.033  -1.064  -0.975  0.00  0.00    +0.068 A 
ATOM     14 CL   UNL     1      44.267  -0.492  -2.050  0.00  0.00    -0.081 Cl
ENDROOT
BRANCH   3   4
ATOM      4  C   UNL     1      39.987  -2.471   1.636  0.00  0.00    +0.106 A 
ATOM      5  C   UNL     1      40.141  -3.165   2.822  0.00  0.00    +0.060 A 
ATOM      6  C   UNL     1      38.853  -3.376   3.278  0.00  0.00    +0.193 A 
ATOM      7  N   UNL     1      38.566  -4.017   4.404  0.00  0.00    -0.105 NA
ATOM      8  N   UNL     1      37.933  -2.867   2.464  0.00  0.00    -0.130 NA
ATOM      9  N   UNL     1      38.661  -2.307   1.452  0.00  0.00    -0.147 NA
ENDBRANCH   3   4
TORSDOF 1
