REMARK  Name = 5J71
REMARK  6 active torsions:
REMARK  status: ('A' for Active; 'I' for Inactive)
REMARK    1  A    between atoms: C_5  and  N_20
REMARK    2  A    between atoms: C_6  and  N_20
REMARK    3  A    between atoms: O_11  and  C_12
REMARK    4  A    between atoms: C_14  and  O_15
REMARK    5  A    between atoms: C_16  and  S_17
REMARK    6  A    between atoms: S_17  and  N_18
REMARK                            x       y       z     vdW  Elec       q    Type
REMARK                         _______ _______ _______ _____ _____    ______ ____
ROOT
ATOM     14  N   UNL     1      14.157   1.228 -37.549  0.00  0.00    -0.168 NA
ATOM     15  C   UNL     1      15.048   2.354 -37.280  0.00  0.00    +0.145 C 
ATOM     16  C   UNL     1      16.370   1.936 -37.761  0.00  0.00    -0.027 A 
ATOM     17  C   UNL     1      16.333   0.576 -38.142  0.00  0.00    -0.025 A 
ATOM     18  C   UNL     1      17.435  -0.081 -38.628  0.00  0.00    +0.028 A 
ATOM     19  C   UNL     1      18.640   0.592 -38.740  0.00  0.00    +0.028 A 
ATOM     29  C   UNL     1      18.688   1.930 -38.371  0.00  0.00    +0.023 A 
ATOM     30  C   UNL     1      17.591   2.612 -37.884  0.00  0.00    +0.007 A 
ATOM     31  C   UNL     1      14.938   0.082 -37.943  0.00  0.00    +0.145 C 
ENDROOT
BRANCH  14  11
ATOM     11  S   UNL     1      12.829   1.029 -36.622  0.00  0.00    +0.065 S 
ATOM     12  O   UNL     1      12.084  -0.014 -37.288  0.00  0.00    -0.153 OA
ATOM     13  O   UNL     1      13.227   0.709 -35.250  0.00  0.00    -0.153 OA
BRANCH  11  10
ATOM      1  C   UNL     1      11.798   3.218 -35.427  0.00  0.00    +0.036 A 
ATOM      2  C   UNL     1      11.149   4.405 -35.370  0.00  0.00    +0.047 A 
ATOM      3  C   UNL     1      10.610   4.982 -36.528  0.00  0.00    +0.120 A 
ATOM      4  C   UNL     1      10.776   4.307 -37.729  0.00  0.00    +0.092 A 
ATOM      5  C   UNL     1      11.473   3.096 -37.774  0.00  0.00    +0.147 A 
ATOM     10  C   UNL     1      12.032   2.497 -36.591  0.00  0.00    +0.147 A 
BRANCH   5   6
ATOM      6  O   UNL     1      11.641   2.419 -38.948  0.00  0.00    -0.505 OA
ATOM      7  H   UNL     1      11.080   2.650 -39.543  0.00  0.00    +0.292 HD
ENDBRANCH   5   6
BRANCH   3   8
ATOM      8  O   UNL     1       9.954   6.176 -36.483  0.00  0.00    -0.507 OA
ATOM      9  H   UNL     1       9.112   6.057 -36.458  0.00  0.00    +0.292 HD
ENDBRANCH   3   8
ENDBRANCH  11  10
ENDBRANCH  14  11
BRANCH  19  20
ATOM     20  N   UNL     1      19.787  -0.083 -39.221  0.00  0.00    -0.341 N 
ATOM     21  H   UNL     1      20.508   0.352 -39.395  0.00  0.00    +0.146 HD
BRANCH  20  22
ATOM     22  C   UNL     1      19.865  -1.502 -39.458  0.00  0.00    +0.073 C 
ATOM     23  C   UNL     1      19.298  -1.857 -40.807  0.00  0.00    +0.037 C 
ATOM     24  C   UNL     1      19.426  -3.340 -41.140  0.00  0.00    +0.083 C 
ATOM     25  N   UNL     1      20.835  -3.841 -40.973  0.00  0.00    -0.316 NA
ATOM     26  H   UNL     1      20.865  -4.724 -41.085  0.00  0.00    +0.122 HD
ATOM     27  C   UNL     1      21.434  -3.465 -39.663  0.00  0.00    +0.083 C 
ATOM     28  C   UNL     1      21.305  -1.990 -39.327  0.00  0.00    +0.037 C 
ENDBRANCH  20  22
ENDBRANCH  19  20
TORSDOF 6
