REMARK  Name = 2QRN
REMARK  5 active torsions:
REMARK  status: ('A' for Active; 'I' for Inactive)
REMARK    1  A    between atoms: N_1  and  C_9
REMARK    2  A    between atoms: C_11  and  O_14
REMARK    3  A    between atoms: C_12  and  C_15
REMARK    4  A    between atoms: C_15  and  O_16
REMARK    5  A    between atoms: O_16  and  P_17
REMARK                            x       y       z     vdW  Elec       q    Type
REMARK                         _______ _______ _______ _____ _____    ______ ____
ROOT
ATOM      2  C   UNL     1      66.612  84.444  16.724  0.00  0.00    +0.226 C 
ATOM      3  O   UNL     1      67.685  84.014  15.817  0.00  0.00    -0.348 OA
ATOM      4  C   UNL     1      68.936  84.747  16.194  0.00  0.00    +0.175 C 
ATOM     11  C   UNL     1      68.459  85.952  17.015  0.00  0.00    +0.150 C 
ATOM     14  C   UNL     1      67.160  85.460  17.667  0.00  0.00    +0.088 C 
ENDROOT
BRANCH   2   1
ATOM      1  N   UNL     1      66.039  83.271  17.479  0.00  0.00    -0.273 N 
ATOM     15  C   UNL     1      66.599  82.046  17.354  0.00  0.00    +0.096 C 
ATOM     16  C   UNL     1      66.035  80.986  18.008  0.00  0.00    +0.061 C 
ATOM     17  C   UNL     1      64.858  81.204  18.808  0.00  0.00    +0.123 C 
ATOM     18  N   UNL     1      64.268  80.161  19.458  0.00  0.00    -0.343 N 
ATOM     19  H   UNL     1      64.681  79.177  19.377  0.00  0.00    +0.144 HD
ATOM     20  H   UNL     1      63.392  80.326  20.049  0.00  0.00    +0.144 HD
ATOM     21  N   UNL     1      64.350  82.423  18.906  0.00  0.00    -0.178 NA
ATOM     22  C   UNL     1      64.906  83.445  18.270  0.00  0.00    +0.352 C 
ATOM     23  O   UNL     1      64.409  84.550  18.370  0.00  0.00    -0.244 OA
ENDBRANCH   2   1
BRANCH  11  12
ATOM     12  O   UNL     1      68.215  87.077  16.171  0.00  0.00    -0.389 OA
ATOM     13  H   UNL     1      67.540  86.807  15.413  0.00  0.00    +0.210 HD
ENDBRANCH  11  12
BRANCH   4   5
ATOM      5  C   UNL     1      69.862  83.878  17.000  0.00  0.00    +0.197 C 
BRANCH   5   6
ATOM      6  O   UNL     1      70.394  82.870  16.173  0.00  0.00    -0.365 OA
BRANCH   6   7
ATOM      7  P   UNL     1      71.471  82.060  17.060  0.00  0.00    -0.015 P 
ATOM      8  O   UNL     1      72.172  80.918  16.105  0.00  0.00    -0.577 OA
ATOM      9  O   UNL     1      70.776  81.445  18.188  0.00  0.00    -0.638 OA
ATOM     10  O   UNL     1      72.559  83.056  17.548  0.00  0.00    -0.577 OA
ENDBRANCH   6   7
ENDBRANCH   5   6
ENDBRANCH   4   5
TORSDOF 5
