REMARK  Name = 2ym5_ligand
REMARK  5 active torsions:
REMARK  status: ('A' for Active; 'I' for Inactive)
REMARK    1  A    between atoms: N01_1  and  C02_2
REMARK    2  A    between atoms: C02_2  and  C03_3
REMARK    3  A    between atoms: C13_13  and  C14_14
REMARK    4  A    between atoms: C18_18  and  C19_19
REMARK    5  A    between atoms: C19_19  and  O20_20
REMARK                            x       y       z     vdW  Elec       q    Type
REMARK                         _______ _______ _______ _____ _____    ______ ____
ROOT
ATOM      6  C   UNL     1      18.425  -3.473  12.011  0.00  0.00    +0.186 C 
ATOM      7  O   UNL     1      17.470  -4.497  11.791  0.00  0.00    -0.367 OA
ATOM      8  C   UNL     1      16.148  -4.018  11.701  0.00  0.00    +0.185 C 
ATOM      9  C   UNL     1      16.037  -2.857  10.762  0.00  0.00    +0.167 C 
ATOM     10  N   UNL     1      16.951  -1.851  11.147  0.00  0.00    -0.283 N 
ATOM     11  C   UNL     1      16.799  -0.678  10.321  0.00  0.00    +0.123 A 
ATOM     12  C   UNL     1      15.589   0.048  10.200  0.00  0.00    +0.056 A 
ATOM     13  C   UNL     1      14.234  -0.018  10.705  0.00  0.00    -0.005 A 
ATOM     23  C   UNL     1      13.525   1.017  10.190  0.00  0.00    +0.141 A 
ATOM     24  N   UNL     1      14.385   1.745   9.346  0.00  0.00    -0.260 N 
ATOM     25  H   UNL     1      14.125   2.575   8.812  0.00  0.00    +0.235 HD
ATOM     26  C   UNL     1      15.590   1.181   9.354  0.00  0.00    +0.140 A 
ATOM     27  N   UNL     1      16.749   1.559   8.673  0.00  0.00    -0.276 NA
ATOM     28  C   UNL     1      17.875   0.865   8.806  0.00  0.00    +0.149 A 
ATOM     29  N   UNL     1      17.895  -0.244   9.629  0.00  0.00    -0.272 NA
ATOM     30  C   UNL     1      18.264  -2.348  11.040  0.00  0.00    +0.175 C 
ENDROOT
BRANCH  13  14
ATOM     14  C   UNL     1      13.723  -0.952  11.620  0.00  0.00    -0.045 A 
ATOM     15  C   UNL     1      14.459  -1.306  12.801  0.00  0.00    -0.010 A 
ATOM     16  C   UNL     1      13.941  -2.181  13.697  0.00  0.00    -0.024 A 
ATOM     20  C   UNL     1      12.644  -2.731  13.490  0.00  0.00    -0.012 A 
ATOM     21  C   UNL     1      11.900  -2.357  12.331  0.00  0.00    -0.015 A 
ATOM     22  C   UNL     1      12.419  -1.487  11.430  0.00  0.00    -0.019 A 
BRANCH  16  17
ATOM     17  C   UNL     1      14.768  -2.585  14.963  0.00  0.00    +0.221 C 
BRANCH  17  18
ATOM     18  O   UNL     1      14.913  -1.629  15.993  0.00  0.00    -0.383 OA
ATOM     19  H   UNL     1      15.438  -2.003  16.704  0.00  0.00    +0.213 HD
ENDBRANCH  17  18
ENDBRANCH  16  17
ENDBRANCH  13  14
BRANCH   6   5
ATOM      5  C   UNL     1      19.902  -4.053  11.966  0.00  0.00    +0.161 C 
BRANCH   5   1
ATOM      1  N   UNL     1      20.247  -5.023  12.946  0.00  0.00    +0.220 N 
ATOM      2  H   UNL     1      19.632  -5.832  12.853  0.00  0.00    +0.200 HD
ATOM      3  H   UNL     1      20.140  -4.618  13.876  0.00  0.00    +0.200 HD
ATOM      4  H   UNL     1      21.215  -5.313  12.809  0.00  0.00    +0.200 HD
ENDBRANCH   5   1
ENDBRANCH   6   5
TORSDOF 5
