REMARK  Name = 2QT1
REMARK  6 active torsions:
REMARK  status: ('A' for Active; 'I' for Inactive)
REMARK    1  A    between atoms: O2*_1  and  C2*_2
REMARK    2  A    between atoms: C3*_3  and  O3*_4
REMARK    3  A    between atoms: C4*_5  and  C5*_6
REMARK    4  A    between atoms: C5*_6  and  O5*_7
REMARK    5  A    between atoms: C1*_9  and  N_10
REMARK    6  A    between atoms: C_15  and  C_16
REMARK                            x       y       z     vdW  Elec       q    Type
REMARK                         _______ _______ _______ _____ _____    ______ ____
ROOT
ATOM      3  C2* UNL     1       9.634 -14.378   1.356  0.00  0.00    +0.193 C 
ATOM      4  C1* UNL     1       8.486 -14.596   0.403  0.00  0.00    +0.241 C 
ATOM     16  O4* UNL     1       8.476 -15.974   0.144  0.00  0.00    -0.348 OA
ATOM     17  C4* UNL     1       9.877 -16.351  -0.022  0.00  0.00    +0.177 C 
ATOM     21  C3* UNL     1      10.680 -15.439   0.939  0.00  0.00    +0.178 C 
ENDROOT
BRANCH   4   5
ATOM      5  N   UNL     1       7.228 -14.272   1.086  0.00  0.00    -0.285 N 
ATOM      6  C   UNL     1       7.044 -12.930   1.482  0.00  0.00    +0.073 C 
ATOM      7  C   UNL     1       5.869 -12.550   2.135  0.00  0.00    -0.007 C 
ATOM      8  C   UNL     1       4.887 -13.512   2.382  0.00  0.00    +0.070 C 
ATOM      9  C   UNL     1       5.064 -14.851   1.978  0.00  0.00    +0.032 C 
ATOM     15  C   UNL     1       6.239 -15.237   1.321  0.00  0.00    +0.086 C 
BRANCH   9  10
ATOM     10  C   UNL     1       3.942 -15.874   2.252  0.00  0.00    +0.239 C 
ATOM     11  N   UNL     1       4.052 -17.056   1.615  0.00  0.00    -0.326 N 
ATOM     12  H   UNL     1       3.309 -17.812   1.759  0.00  0.00    +0.145 HD
ATOM     13  H   UNL     1       4.882 -17.238   0.965  0.00  0.00    +0.145 HD
ATOM     14  O   UNL     1       3.007 -15.588   3.008  0.00  0.00    -0.271 OA
ENDBRANCH   9  10
ENDBRANCH   4   5
BRANCH   3   1
ATOM      1  O2* UNL     1      10.122 -13.046   1.118  0.00  0.00    -0.385 OA
ATOM      2  H2* UNL     1      10.998 -12.889   1.675  0.00  0.00    +0.210 HD
ENDBRANCH   3   1
BRANCH  21  22
ATOM     22  O3* UNL     1      11.826 -14.872   0.220  0.00  0.00    -0.386 OA
ATOM     23  H3* UNL     1      11.491 -14.398  -0.655  0.00  0.00    +0.210 HD
ENDBRANCH  21  22
BRANCH  17  18
ATOM     18  C5* UNL     1       9.971 -17.865   0.197  0.00  0.00    +0.190 C 
BRANCH  18  19
ATOM     19  O5* UNL     1       9.482 -18.495  -1.004  0.00  0.00    -0.392 OA
ATOM     20  H5* UNL     1       8.487 -18.205  -1.171  0.00  0.00    +0.209 HD
ENDBRANCH  18  19
ENDBRANCH  17  18
TORSDOF 6
