REMARK  Name = 2j4z_ligand
REMARK  5 active torsions:
REMARK  status: ('A' for Active; 'I' for Inactive)
REMARK    1  A    between atoms: C1_1  and  C32_32
REMARK    2  A    between atoms: C8_8  and  C9_9
REMARK    3  A    between atoms: N19_19  and  C26_26
REMARK    4  A    between atoms: N22_22  and  C25_25
REMARK    5  A    between atoms: C31_31  and  C32_32
REMARK                            x       y       z     vdW  Elec       q    Type
REMARK                         _______ _______ _______ _____ _____    ______ ____
ROOT
ATOM      1  C   UNL     1      43.288  49.692  17.890  0.00  0.00    +0.195 C 
ATOM      8  N   UNL     1      42.182  50.299  17.336  0.00  0.00    -0.255 N 
ATOM      9  C   UNL     1      42.055  50.559  15.864  0.00  0.00    +0.231 C 
ATOM     10  C   UNL     1      40.685  51.164  15.840  0.00  0.00    +0.079 A 
ATOM     11  C   UNL     1      40.051  51.291  17.103  0.00  0.00    +0.015 A 
ATOM     12  C   UNL     1      38.892  51.850  16.773  0.00  0.00    +0.103 A 
ATOM     13  N   UNL     1      37.827  52.231  17.696  0.00  0.00    -0.239 N 
ATOM     14  H   UNL     1      37.020  52.615  17.248  0.00  0.00    +0.219 HD
ATOM     15  C   UNL     1      37.726  52.161  19.056  0.00  0.00    +0.218 C 
ATOM     16  O   UNL     1      38.656  51.724  19.728  0.00  0.00    -0.382 OA
ATOM     31  N   UNL     1      38.774  52.038  15.508  0.00  0.00    -0.240 NA
ATOM     32  N   UNL     1      39.883  51.626  14.813  0.00  0.00    -0.243 N 
ATOM     33  H   UNL     1      40.068  51.654  13.800  0.00  0.00    +0.239 HD
ATOM     34  C   UNL     1      40.987  50.745  18.122  0.00  0.00    +0.166 C 
ATOM     35  O   UNL     1      44.244  49.348  17.188  0.00  0.00    -0.393 OA
ENDROOT
BRANCH  15  17
ATOM     17  C   UNL     1      36.463  52.622  19.743  0.00  0.00    +0.041 A 
ATOM     18  C   UNL     1      36.425  52.506  21.167  0.00  0.00    +0.011 A 
ATOM     19  C   UNL     1      35.291  52.894  21.888  0.00  0.00    +0.015 A 
ATOM     20  C   UNL     1      34.136  53.421  21.230  0.00  0.00    +0.046 A 
ATOM     29  C   UNL     1      34.178  53.543  19.802  0.00  0.00    +0.015 A 
ATOM     30  C   UNL     1      35.317  53.151  19.075  0.00  0.00    +0.011 A 
BRANCH  20  21
ATOM     21  N   UNL     1      32.921  53.824  22.018  0.00  0.00    -0.296 N 
ATOM     22  C   UNL     1      31.876  54.784  21.455  0.00  0.00    +0.182 C 
ATOM     23  C   UNL     1      30.403  54.505  21.892  0.00  0.00    +0.155 C 
ATOM     24  N   UNL     1      30.223  53.310  22.791  0.00  0.00    +0.236 N 
ATOM     25  H   UNL     1      30.366  52.501  22.206  0.00  0.00    +0.203 HD
ATOM     26  C   UNL     1      28.832  53.222  23.317  0.00  0.00    +0.190 C 
ATOM     27  C   UNL     1      31.216  53.195  23.910  0.00  0.00    +0.155 C 
ATOM     28  C   UNL     1      32.694  53.284  23.429  0.00  0.00    +0.182 C 
ENDBRANCH  20  21
ENDBRANCH  15  17
BRANCH   1   2
ATOM      2  C   UNL     1      43.325  49.376  19.409  0.00  0.00    +0.219 C 
BRANCH   2   3
ATOM      3  C   UNL     1      42.454  48.120  19.656  0.00  0.00    +0.031 A 
ATOM      4  C   UNL     1      41.444  47.961  20.558  0.00  0.00    -0.051 A 
ATOM      5  C   UNL     1      40.876  46.688  20.468  0.00  0.00    -0.055 A 
ATOM      6  C   UNL     1      41.453  45.897  19.505  0.00  0.00    +0.041 A 
ATOM      7  S   UNL     1      42.716  46.723  18.686  0.00  0.00    -0.042 S 
ENDBRANCH   2   3
ENDBRANCH   1   2
TORSDOF 4
