REMARK  Name = A6H
REMARK  2 active torsions:
REMARK  status: ('A' for Active; 'I' for Inactive)
REMARK    1  A    between atoms: C4_5  and  O_13
REMARK    2  A    between atoms: C3_8  and  O_13
REMARK                            x       y       z     vdW  Elec       q    Type
REMARK                         _______ _______ _______ _____ _____    ______ ____
ROOT
ATOM      4  O   UNL     1     -11.485  15.429 -17.365  0.00  0.00    -0.434 OA
ENDROOT
BRANCH   4   5
ATOM      5  C   UNL     1     -11.366  14.040 -17.058  0.00  0.00    +0.168 A 
ATOM      6  C   UNL     1     -12.345  13.412 -16.312  0.00  0.00    +0.093 A 
ATOM      7 CL   UNL     1     -13.717  14.325 -15.798  0.00  0.00    -0.079 Cl
ATOM      8  C   UNL     1     -12.253  12.074 -15.982  0.00  0.00    +0.015 A 
ATOM      9  C   UNL     1     -11.155  11.352 -16.397  0.00  0.00    +0.002 A 
ATOM     10  C   UNL     1     -10.160  11.953 -17.135  0.00  0.00    +0.015 A 
ATOM     11  C   UNL     1     -10.274  13.292 -17.459  0.00  0.00    +0.093 A 
ATOM     12 CL   UNL     1      -9.026  14.048 -18.387  0.00  0.00    -0.079 Cl
ENDBRANCH   4   5
BRANCH   4   3
ATOM      1  C   UNL     1     -12.691  15.490 -20.680  0.00  0.00    +0.120 A 
ATOM      2  N   UNL     1     -12.254  15.014 -19.511  0.00  0.00    -0.208 NA
ATOM      3  C   UNL     1     -11.925  15.884 -18.576  0.00  0.00    +0.230 A 
ATOM     13  C   UNL     1     -12.011  17.260 -18.741  0.00  0.00    +0.059 A 
ATOM     14  C   UNL     1     -12.464  17.744 -19.934  0.00  0.00    +0.024 A 
ATOM     15  C   UNL     1     -12.813  16.842 -20.927  0.00  0.00    +0.108 A 
ATOM     16  N   UNL     1     -13.269  17.258 -22.122  0.00  0.00    -0.126 NA
ENDBRANCH   4   3
TORSDOF 2
