REMARK  Name = 3uoj_ligand
REMARK  5 active torsions:
REMARK  status: ('A' for Active; 'I' for Inactive)
REMARK    1  A    between atoms: C02_2  and  C03_3
REMARK    2  A    between atoms: C08_8  and  N09_9
REMARK    3  A    between atoms: C12_12  and  N13_13
REMARK    4  A    between atoms: N13_13  and  C14_14
REMARK    5  A    between atoms: C19_19  and  C20_20
REMARK                            x       y       z     vdW  Elec       q    Type
REMARK                         _______ _______ _______ _____ _____    ______ ____
ROOT
ATOM      8  N   UNL     1      -8.412  30.363  12.463  0.00  0.00    -0.243 N 
ATOM      9  H   UNL     1      -8.680  30.074  13.404  0.00  0.00    +0.219 HD
ATOM     10  C   UNL     1      -7.870  29.367  11.582  0.00  0.00    +0.197 A 
ATOM     11  N   UNL     1      -8.230  28.094  11.787  0.00  0.00    -0.268 NA
ATOM     12  C   UNL     1      -7.743  27.120  10.995  0.00  0.00    +0.087 A 
ATOM     13  C   UNL     1      -6.869  27.471   9.972  0.00  0.00    +0.058 A 
ATOM     14  C   UNL     1      -6.496  28.812   9.776  0.00  0.00    +0.138 A 
ATOM     25  N   UNL     1      -7.024  29.728  10.611  0.00  0.00    -0.233 NA
ENDROOT
BRANCH   8   7
ATOM      4  C   UNL     1      -9.055  34.437  11.548  0.00  0.00    -0.002 A 
ATOM      5  C   UNL     1      -8.161  33.688  10.771  0.00  0.00    +0.005 A 
ATOM      6  C   UNL     1      -7.926  32.344  11.046  0.00  0.00    +0.020 A 
ATOM      7  C   UNL     1      -8.600  31.742  12.102  0.00  0.00    +0.068 A 
ATOM     26  C   UNL     1      -9.486  32.497  12.865  0.00  0.00    +0.020 A 
ATOM     27  C   UNL     1      -9.728  33.840  12.594  0.00  0.00    +0.005 A 
BRANCH   4   2
ATOM      1  O   UNL     1      -8.878  36.468  10.283  0.00  0.00    -0.564 OA
ATOM      2  C   UNL     1      -9.342  35.866  11.281  0.00  0.00    +0.055 C 
ATOM      3  O   UNL     1     -10.132  36.484  12.112  0.00  0.00    -0.564 OA
ENDBRANCH   4   2
ENDBRANCH   8   7
BRANCH  14  15
ATOM     15  N   UNL     1      -5.535  29.203   8.664  0.00  0.00    -0.248 N 
ATOM     16  H   UNL     1      -5.118  28.477   8.082  0.00  0.00    +0.220 HD
BRANCH  15  17
ATOM     17  C   UNL     1      -5.206  30.585   8.422  0.00  0.00    +0.101 A 
ATOM     18  C   UNL     1      -3.894  31.035   8.526  0.00  0.00    +0.118 A 
ATOM     21  C   UNL     1      -3.571  32.371   8.293  0.00  0.00    +0.032 A 
ATOM     22  C   UNL     1      -4.579  33.263   7.944  0.00  0.00    -0.007 A 
ATOM     23  C   UNL     1      -5.897  32.811   7.841  0.00  0.00    +0.003 A 
ATOM     24  C   UNL     1      -6.215  31.479   8.076  0.00  0.00    +0.030 A 
BRANCH  18  19
ATOM     19  C   UNL     1      -2.781  30.082   8.896  0.00  0.00    +0.090 C 
ATOM     20  N   UNL     1      -1.969  29.419   9.157  0.00  0.00    -0.340 NA
ENDBRANCH  18  19
ENDBRANCH  15  17
ENDBRANCH  14  15
TORSDOF 5
