REMARK  Name = HB4
REMARK  2 active torsions:
REMARK  status: ('A' for Active; 'I' for Inactive)
REMARK    1  A    between atoms: C7_2  and  C6_3
REMARK    2  A    between atoms: C16_8  and  N19_20
REMARK                            x       y       z     vdW  Elec       q    Type
REMARK                         _______ _______ _______ _____ _____    ______ ____
ROOT
ATOM      1  C   UNL     1      -1.613  18.409  -5.868  0.00  0.00    -0.006 A 
ATOM      2  C   UNL     1      -0.513  17.649  -5.460  0.00  0.00    -0.002 A 
ATOM      3  C   UNL     1      -0.704  16.476  -4.709  0.00  0.00    +0.014 A 
ATOM     13  C   UNL     1      -2.016  16.111  -4.386  0.00  0.00    +0.001 A 
ATOM     14  C   UNL     1      -3.103  16.870  -4.801  0.00  0.00    -0.004 A 
ATOM     15  C   UNL     1      -2.901  18.027  -5.539  0.00  0.00    -0.025 A 
ATOM     16  C   UNL     1      -3.893  19.032  -6.061  0.00  0.00    +0.028 C 
ATOM     17  C   UNL     1      -3.089  19.777  -7.140  0.00  0.00    +0.031 C 
ATOM     18  C   UNL     1      -1.638  19.725  -6.617  0.00  0.00    +0.116 C 
ENDROOT
BRANCH   3   4
ATOM      4  C   UNL     1       0.443  15.629  -4.268  0.00  0.00    +0.079 C 
ATOM      5  N   UNL     1       1.585  16.289  -3.998  0.00  0.00    -0.203 NA
ATOM      6  C   UNL     1       2.636  15.569  -3.596  0.00  0.00    +0.339 C 
ATOM      7  N   UNL     1       2.717  14.244  -3.412  0.00  0.00    -0.012 NA
ATOM      8  C   UNL     1       1.570  13.592  -3.696  0.00  0.00    +0.363 C 
ATOM      9  N   UNL     1       1.376  12.237  -3.681  0.00  0.00    -0.034 NA
ATOM     10  C   UNL     1       0.090  11.985  -4.110  0.00  0.00    +0.232 C 
ATOM     11  C   UNL     1      -0.550  13.150  -4.398  0.00  0.00    +0.042 C 
ATOM     12  C   UNL     1       0.382  14.206  -4.141  0.00  0.00    +0.178 C 
ENDBRANCH   3   4
BRANCH  18  19
ATOM     19  N   UNL     1      -0.625  19.839  -7.660  0.00  0.00    -0.214 NA
ATOM     20  C   UNL     1      -0.006  21.006  -7.965  0.00  0.00    +0.204 C 
ATOM     21  N   UNL     1      -0.183  22.188  -7.457  0.00  0.00    -0.127 NA
ENDBRANCH  18  19
TORSDOF 2
