REMARK  Name = 8MW
REMARK  2 active torsions:
REMARK  status: ('A' for Active; 'I' for Inactive)
REMARK    1  A    between atoms: C4_1  and  C8_6
REMARK    2  A    between atoms: C6_3  and  C7_5
REMARK                            x       y       z     vdW  Elec       q    Type
REMARK                         _______ _______ _______ _____ _____    ______ ____
ROOT
ATOM      1  C   UNL     1      92.058  86.113  -2.841  0.00  0.00    +0.139 A 
ATOM      2  N   UNL     1      91.071  85.945  -1.959  0.00  0.00    -0.235 NA
ATOM      3  C   UNL     1      89.822  86.242  -2.325  0.00  0.00    +0.062 A 
ATOM      4  C   UNL     1      88.775  85.989  -1.283  0.00  0.00    +0.052 C 
ATOM      5  C   UNL     1      89.523  86.745  -3.621  0.00  0.00    +0.034 A 
ATOM      6  C   UNL     1      88.326  87.193  -4.296  0.00  0.00    -0.006 A 
ATOM      7  C   UNL     1      86.974  87.300  -3.650  0.00  0.00    +0.032 C 
ATOM      8  C   UNL     1      88.576  87.585  -5.587  0.00  0.00    +0.107 A 
ATOM      9  S   UNL     1      90.258  87.445  -6.029  0.00  0.00    -0.062 S 
ATOM     13  C   UNL     1      90.654  86.843  -4.440  0.00  0.00    +0.113 A 
ATOM     17  N   UNL     1      91.910  86.549  -4.103  0.00  0.00    -0.224 NA
ENDROOT
BRANCH   8  10
ATOM     10  C   UNL     1      87.603  88.129  -6.620  0.00  0.00    +0.393 C 
ATOM     11  O   UNL     1      86.365  88.022  -6.414  0.00  0.00    -0.240 OA
ATOM     12  O   UNL     1      88.139  88.661  -7.610  0.00  0.00    -0.240 OA
ENDBRANCH   8  10
BRANCH   1  14
ATOM     14  C   UNL     1      93.441  85.772  -2.381  0.00  0.00    +0.059 C 
ATOM     15  C   UNL     1      94.580  86.684  -2.740  0.00  0.00    +0.008 C 
ATOM     16  C   UNL     1      94.471  85.366  -3.396  0.00  0.00    +0.008 C 
ENDBRANCH   1  14
TORSDOF 2
