REMARK  Name = 2r3p_ligand
REMARK  6 active torsions:
REMARK  status: ('A' for Active; 'I' for Inactive)
REMARK    1  A    between atoms: C01_1  and  S24_24
REMARK    2  A    between atoms: C07_7  and  C11_11
REMARK    3  A    between atoms: C09_9  and  N10_10
REMARK    4  A    between atoms: N10_10  and  C12_12
REMARK    5  A    between atoms: C12_12  and  C13_13
REMARK    6  A    between atoms: S24_24  and  C25_25
REMARK                            x       y       z     vdW  Elec       q    Type
REMARK                         _______ _______ _______ _____ _____    ______ ____
ROOT
ATOM      1  C   UNL     1      -0.581  31.127   8.039  0.00  0.00    +0.075 A 
ATOM      5  C   UNL     1       0.372  31.813   7.231  0.00  0.00    +0.059 A 
ATOM      6  N   UNL     1       1.492  31.093   7.048  0.00  0.00    -0.218 NA
ATOM      7  N   UNL     1       1.254  29.924   7.752  0.00  0.00    -0.118 N 
ATOM      8  C   UNL     1       2.118  28.834   7.912  0.00  0.00    +0.219 A 
ATOM     18  C   UNL     1       1.689  27.774   8.656  0.00  0.00    +0.059 A 
ATOM     19  C   UNL     1       0.326  27.881   9.243  0.00  0.00    +0.025 A 
ATOM     28  N   UNL     1      -0.457  28.883   9.112  0.00  0.00    -0.297 NA
ATOM     29  C   UNL     1      -0.002  29.929   8.368  0.00  0.00    +0.164 A 
ENDROOT
BRANCH  19  20
ATOM     20  C   UNL     1      -0.092  26.731  10.077  0.00  0.00    +0.013 A 
ATOM     21  C   UNL     1      -0.186  25.475   9.478  0.00  0.00    +0.018 A 
ATOM     22  C   UNL     1      -0.569  24.379  10.252  0.00  0.00    +0.006 A 
ATOM     23  C   UNL     1      -0.836  24.529  11.607  0.00  0.00    +0.021 A 
ATOM     24  C   UNL     1      -0.742  25.777  12.210  0.00  0.00    +0.059 A 
ATOM     25 CL   UNL     1      -1.086  25.857  13.901  0.00  0.00    -0.069 Cl
ATOM     26  C   UNL     1      -0.366  26.889  11.449  0.00  0.00    +0.068 A 
ATOM     27 CL   UNL     1      -0.249  28.422  12.169  0.00  0.00    -0.065 Cl
ENDBRANCH  19  20
BRANCH   8   9
ATOM      9  N   UNL     1       3.352  28.923   7.290  0.00  0.00    -0.258 N 
ATOM     10  H   UNL     1       3.450  29.651   6.569  0.00  0.00    +0.197 HD
BRANCH   9  11
ATOM     11  C   UNL     1       4.513  28.109   7.541  0.00  0.00    +0.221 C 
BRANCH  11  12
ATOM     12  C   UNL     1       4.534  26.987   6.551  0.00  0.00    +0.000 A 
ATOM     13  C   UNL     1       4.470  25.654   6.983  0.00  0.00    +0.035 A 
ATOM     14  C   UNL     1       4.489  24.638   6.030  0.00  0.00    +0.083 A 
ATOM     15  N   UNL     1       4.574  24.862   4.716  0.00  0.00    -0.307 NA
ATOM     16  C   UNL     1       4.635  26.167   4.325  0.00  0.00    +0.083 A 
ATOM     17  C   UNL     1       4.621  27.242   5.186  0.00  0.00    +0.035 A 
ENDBRANCH  11  12
ENDBRANCH   9  11
ENDBRANCH   8   9
BRANCH   1   2
ATOM      2  S   UNL     1      -2.160  31.724   8.502  0.00  0.00    +0.065 S 
BRANCH   2   3
ATOM      3  C   UNL     1      -2.843  30.317   9.215  0.00  0.00    +0.165 C 
ATOM      4  N   UNL     1      -3.278  29.317   9.717  0.00  0.00    -0.341 NA
ENDBRANCH   2   3
ENDBRANCH   1   2
TORSDOF 6
