REMARK  Name = 3ipx_ligand
REMARK  4 active torsions:
REMARK  status: ('A' for Active; 'I' for Inactive)
REMARK    1  A    between atoms: N4_4  and  C10_10
REMARK    2  A    between atoms: C12_12  and  C15_16
REMARK    3  A    between atoms: C13_13  and  O13_14
REMARK    4  A    between atoms: C15_16  and  O16_17
REMARK                            x       y       z     vdW  Elec       q    Type
REMARK                         _______ _______ _______ _____ _____    ______ ____
ROOT
ATOM      1  C   UNL     1      24.941  -6.782  18.074  0.00  0.00    +0.123 A 
ATOM      2  N   UNL     1      23.669  -6.808  17.630  0.00  0.00    -0.426 NA
ATOM      3  H   UNL     1      23.125  -5.960  17.610  0.00  0.00    +0.035 HD
ATOM      4  C   UNL     1      25.507  -5.496  18.507  0.00  0.00    +0.188 A 
ATOM      5  F   UNL     1      24.732  -4.408  18.425  0.00  0.00    -0.211 F 
ATOM      6  C   UNL     1      26.804  -5.433  18.967  0.00  0.00    +0.227 A 
ATOM      7  N   UNL     1      27.532  -6.549  19.010  0.00  0.00    -0.153 N 
ATOM     18  C   UNL     1      26.981  -7.789  18.586  0.00  0.00    +0.346 A 
ATOM     19  O   UNL     1      27.664  -8.822  18.621  0.00  0.00    -0.379 OA
ATOM     20  N   UNL     1      25.712  -7.887  18.121  0.00  0.00    -0.190 N 
ATOM     21  H   UNL     1      25.352  -8.769  17.816  0.00  0.00    +0.241 HD
ENDROOT
BRANCH   7   8
ATOM      8  C1* UNL     1      28.897  -6.497  19.548  0.00  0.00    +0.281 C 
ATOM      9  C2* UNL     1      29.929  -5.684  18.786  0.00  0.00    +0.102 C 
ATOM     10  C3* UNL     1      30.846  -5.206  19.892  0.00  0.00    +0.151 C 
ATOM     13  C4* UNL     1      29.981  -5.106  21.112  0.00  0.00    +0.176 C 
ATOM     17  O4* UNL     1      28.807  -5.866  20.832  0.00  0.00    -0.338 OA
BRANCH  10  11
ATOM     11  O3* UNL     1      31.834  -6.196  20.208  0.00  0.00    -0.389 OA
ATOM     12  H3* UNL     1      32.418  -6.306  19.467  0.00  0.00    +0.210 HD
ENDBRANCH  10  11
BRANCH  13  14
ATOM     14  C5* UNL     1      29.612  -3.663  21.368  0.00  0.00    +0.190 C 
BRANCH  14  15
ATOM     15  O5* UNL     1      28.901  -3.162  20.242  0.00  0.00    -0.392 OA
ATOM     16  H5* UNL     1      28.113  -3.677  20.111  0.00  0.00    +0.209 HD
ENDBRANCH  14  15
ENDBRANCH  13  14
ENDBRANCH   7   8
TORSDOF 4
