REMARK  Name = 4m0z_ligand
REMARK  5 active torsions:
REMARK  status: ('A' for Active; 'I' for Inactive)
REMARK    1  A    between atoms: N1_1  and  C6_13
REMARK    2  A    between atoms: C1_3  and  C5_10
REMARK    3  A    between atoms: C2_4  and  N3_6
REMARK    4  A    between atoms: C14_21  and  O3_23
REMARK    5  A    between atoms: O3_23  and  C16_24
REMARK                            x       y       z     vdW  Elec       q    Type
REMARK                         _______ _______ _______ _____ _____    ______ ____
ROOT
ATOM      1  N   UNL     1      -5.022   8.409  13.457  0.00  0.00    -0.172 N 
ATOM     14  C   UNL     1      -3.837   7.900  13.999  0.00  0.00    +0.158 A 
ATOM     15  C   UNL     1      -4.239   6.854  14.837  0.00  0.00    +0.097 A 
ATOM     23  C   UNL     1      -5.669   6.787  14.727  0.00  0.00    +0.135 A 
ATOM     29  N   UNL     1      -6.125   7.755  13.868  0.00  0.00    -0.185 NA
ENDROOT
BRANCH   1   2
ATOM      2  C   UNL     1      -5.059   9.490  12.514  0.00  0.00    +0.114 A 
ATOM      3  C   UNL     1      -5.741  10.698  12.832  0.00  0.00    +0.012 A 
ATOM      4  C   UNL     1      -6.396  10.909  14.071  0.00  0.00    +0.024 A 
ATOM      5  C   UNL     1      -7.027  12.107  14.281  0.00  0.00    +0.091 A 
ATOM      8  C   UNL     1      -7.037  13.143  13.303  0.00  0.00    +0.029 A 
ATOM      9  C   UNL     1      -6.403  12.937  12.119  0.00  0.00    +0.001 A 
ATOM     10  C   UNL     1      -5.740  11.708  11.855  0.00  0.00    -0.028 A 
ATOM     11  C   UNL     1      -5.086  11.509  10.615  0.00  0.00    -0.014 A 
ATOM     12  C   UNL     1      -4.406  10.348  10.365  0.00  0.00    -0.015 A 
ATOM     13  C   UNL     1      -4.394   9.315  11.324  0.00  0.00    +0.025 A 
BRANCH   5   6
ATOM      6  O   UNL     1      -7.678  12.476  15.418  0.00  0.00    -0.322 OA
ATOM      7  C   UNL     1      -7.995  11.461  16.335  0.00  0.00    +0.232 C 
ENDBRANCH   5   6
ENDBRANCH   1   2
BRANCH  15  16
ATOM     16  N   UNL     1      -3.471   6.015  15.635  0.00  0.00    -0.235 N 
ATOM     17  H   UNL     1      -3.919   5.293  16.162  0.00  0.00    +0.214 HD
ATOM     18  C   UNL     1      -2.075   6.164  15.715  0.00  0.00    +0.276 C 
ATOM     19  O   UNL     1      -1.439   6.988  15.048  0.00  0.00    -0.394 OA
ATOM     20  N   UNL     1      -1.423   5.319  16.604  0.00  0.00    -0.283 N 
ATOM     21  H   UNL     1      -1.947   4.656  17.139  0.00  0.00    +0.181 HD
ATOM     22  H   UNL     1      -0.430   5.373  16.709  0.00  0.00    +0.181 HD
ENDBRANCH  15  16
BRANCH  23  24
ATOM     24  C   UNL     1      -6.546   5.833  15.410  0.00  0.00    +0.205 C 
ATOM     25  O   UNL     1      -6.122   5.073  16.289  0.00  0.00    -0.390 OA
ATOM     26  N   UNL     1      -7.865   5.795  15.034  0.00  0.00    -0.301 N 
ATOM     27  H   UNL     1      -8.198   6.406  14.316  0.00  0.00    +0.180 HD
ATOM     28  H   UNL     1      -8.493   5.156  15.478  0.00  0.00    +0.180 HD
ENDBRANCH  23  24
TORSDOF 4
