REMARK  Name = 5HLW
REMARK  8 active torsions:
REMARK  status: ('A' for Active; 'I' for Inactive)
REMARK    1  A    between atoms: C_5  and  S_38
REMARK    2  A    between atoms: C_12  and  S_38
REMARK    3  A    between atoms: C_13  and  C_16
REMARK    4  A    between atoms: C_22  and  C_24
REMARK    5  A    between atoms: C_23  and  C_26
REMARK    6  A    between atoms: C_24  and  C_25
REMARK    7  A    between atoms: C_25  and  N_33
REMARK    8  A    between atoms: C_26  and  N_34
REMARK                            x       y       z     vdW  Elec       q    Type
REMARK                         _______ _______ _______ _____ _____    ______ ____
ROOT
ATOM      1  C   UNL     1      19.779 -11.804  57.794  0.00  0.00    +0.032 A 
ATOM      2  C   UNL     1      20.520 -10.817  57.122  0.00  0.00    +0.017 A 
ATOM     20  C   UNL     1      21.820 -10.411  57.575  0.00  0.00    +0.017 A 
ATOM     21  C   UNL     1      22.386 -10.982  58.742  0.00  0.00    +0.030 A 
ATOM     22  C   UNL     1      21.623 -11.951  59.421  0.00  0.00    +0.080 A 
ATOM     23  N   UNL     1      22.032 -12.561  60.624  0.00  0.00    -0.225 NA
ATOM     24  C   UNL     1      21.092 -13.376  61.050  0.00  0.00    +0.167 A 
ATOM     25  S   UNL     1      19.632 -13.496  60.020  0.00  0.00    -0.052 S 
ATOM     26  N   UNL     1      21.156 -14.114  62.226  0.00  0.00    -0.249 N 
ATOM     27  H   UNL     1      22.053 -13.985  62.795  0.00  0.00    +0.158 HD
ATOM     28  C   UNL     1      20.201 -15.024  62.794  0.00  0.00    +0.305 C 
ATOM     29  O   UNL     1      19.129 -15.295  62.276  0.00  0.00    -0.253 OA
ATOM     30  N   UNL     1      20.623 -15.567  64.031  0.00  0.00    -0.299 N 
ATOM     31  H   UNL     1      21.567 -15.269  64.437  0.00  0.00    +0.150 HD
ATOM     42  C   UNL     1      20.340 -12.355  58.950  0.00  0.00    +0.042 A 
ENDROOT
BRANCH   2   3
ATOM      3  S   UNL     1      19.794 -10.023  55.727  0.00  0.00    -0.048 S 
BRANCH   3   4
ATOM      4  C   UNL     1      19.003  -8.713  56.518  0.00  0.00    +0.213 C 
ATOM      5  N   UNL     1      17.835  -8.830  57.251  0.00  0.00    -0.212 NA
ATOM      6  N   UNL     1      17.109  -9.933  57.480  0.00  0.00    -0.289 NA
ATOM      7  H   UNL     1      17.406 -10.887  57.096  0.00  0.00    +0.188 HD
ATOM      8  C   UNL     1      15.983  -9.787  58.219  0.00  0.00    +0.070 C 
ATOM      9  C   UNL     1      15.559  -8.482  58.788  0.00  0.00    +0.032 C 
ATOM     10  C   UNL     1      16.318  -7.346  58.536  0.00  0.00    +0.050 C 
ATOM     16  C   UNL     1      17.517  -7.502  57.719  0.00  0.00    +0.149 C 
ATOM     17  N   UNL     1      18.494  -6.678  57.242  0.00  0.00    -0.258 NA
ATOM     18  H   UNL     1      18.552  -5.622  57.406  0.00  0.00    +0.191 HD
ATOM     19  N   UNL     1      19.361  -7.398  56.542  0.00  0.00    -0.145 NA
BRANCH   8  11
ATOM     11  C   UNL     1      15.187 -11.032  58.327  0.00  0.00    +0.037 A 
ATOM     12  S   UNL     1      15.738 -12.542  57.637  0.00  0.00    -0.095 S 
ATOM     13  C   UNL     1      14.305 -13.347  58.123  0.00  0.00    +0.046 A 
ATOM     14  C   UNL     1      13.435 -12.528  58.786  0.00  0.00    +0.008 A 
ATOM     15  C   UNL     1      13.946 -11.184  58.915  0.00  0.00    +0.017 A 
ENDBRANCH   8  11
ENDBRANCH   3   4
ENDBRANCH   2   3
BRANCH  30  32
ATOM     32  C   UNL     1      19.783 -16.547  64.785  0.00  0.00    +0.106 C 
BRANCH  32  33
ATOM     33  C   UNL     1      18.762 -15.797  65.667  0.00  0.00    +0.022 C 
BRANCH  33  34
ATOM     34  C   UNL     1      17.907 -16.669  66.616  0.00  0.00    -0.007 C 
ATOM     35  C   UNL     1      17.152 -17.886  65.979  0.00  0.00    +0.019 C 
ATOM     36  C   UNL     1      16.454 -18.781  67.064  0.00  0.00    +0.085 C 
ATOM     37  N   UNL     1      16.305 -18.049  68.396  0.00  0.00    -0.303 NA
ATOM     40  C   UNL     1      17.596 -17.487  68.991  0.00  0.00    +0.085 C 
ATOM     41  C   UNL     1      18.640 -17.081  67.907  0.00  0.00    +0.019 C 
BRANCH  37  38
ATOM     38  C   UNL     1      15.407 -18.746  69.421  0.00  0.00    +0.081 C 
ATOM     39  C   UNL     1      16.059 -19.905  70.226  0.00  0.00    +0.020 C 
ENDBRANCH  37  38
ENDBRANCH  33  34
ENDBRANCH  32  33
ENDBRANCH  30  32
TORSDOF 7
