REMARK  Name = 1GH
REMARK  4 active torsions:
REMARK  status: ('A' for Active; 'I' for Inactive)
REMARK    1  A    between atoms: N1_3  and  C6_4
REMARK    2  A    between atoms: C6_4  and  C8_5
REMARK    3  A    between atoms: C18_21  and  C19_25
REMARK    4  A    between atoms: C2_22  and  O1_23
REMARK                            x       y       z     vdW  Elec       q    Type
REMARK                         _______ _______ _______ _____ _____    ______ ____
ROOT
ATOM      1  O   UNL     1       3.030  -5.500  26.548  0.00  0.00    -0.244 OA
ATOM      2  C   UNL     1       2.632  -5.591  25.396  0.00  0.00    +0.350 C 
ATOM      3  N   UNL     1       2.227  -6.757  24.766  0.00  0.00    -0.275 N 
ATOM     12  C   UNL     1       1.837  -6.461  23.452  0.00  0.00    +0.085 C 
ATOM     13  C   UNL     1       2.010  -5.112  23.302  0.00  0.00    +0.121 C 
ATOM     14  C   UNL     1       1.710  -4.488  22.098  0.00  0.00    +0.120 C 
ATOM     15  N   UNL     1       1.249  -5.164  21.059  0.00  0.00    -0.242 NA
ATOM     16  C   UNL     1       1.063  -6.499  21.169  0.00  0.00    +0.083 C 
ATOM     17  C   UNL     1       0.567  -7.187  20.037  0.00  0.00    +0.022 C 
ATOM     18  C   UNL     1       0.361  -8.544  20.096  0.00  0.00    +0.039 C 
ATOM     19  C   UNL     1       0.642  -9.241  21.277  0.00  0.00    +0.139 C 
ATOM     20  C   UNL     1       1.127  -8.597  22.382  0.00  0.00    +0.040 C 
ATOM     30  C   UNL     1       1.342  -7.233  22.359  0.00  0.00    +0.038 C 
ATOM     31  N   UNL     1       2.494  -4.604  24.494  0.00  0.00    -0.189 NA
ENDROOT
BRANCH  18  23
ATOM     23  C   UNL     1      -0.196  -9.238  18.913  0.00  0.00    +0.053 A 
ATOM     24  C   UNL     1       0.355 -10.302  18.276  0.00  0.00    +0.155 A 
ATOM     25  C   UNL     1       1.589 -11.078  18.481  0.00  0.00    +0.075 C 
ATOM     26  O   UNL     1      -0.444 -10.692  17.243  0.00  0.00    -0.358 OA
ATOM     27  N   UNL     1      -1.540  -9.832  17.237  0.00  0.00    -0.082 NA
ATOM     28  C   UNL     1      -1.402  -8.955  18.231  0.00  0.00    +0.101 A 
ATOM     29  C   UNL     1      -2.299  -7.991  18.484  0.00  0.00    +0.056 C 
ENDBRANCH  18  23
BRANCH   3   4
ATOM      4  C   UNL     1       2.260  -8.060  25.512  0.00  0.00    +0.130 C 
ATOM     11  C   UNL     1       3.303  -8.994  24.939  0.00  0.00    +0.031 C 
BRANCH   4   5
ATOM      5  C   UNL     1       0.912  -8.710  25.610  0.00  0.00    +0.080 A 
ATOM      6  C   UNL     1      -0.225  -7.935  25.680  0.00  0.00    +0.017 A 
ATOM      7  C   UNL     1      -1.440  -8.570  25.775  0.00  0.00    +0.003 A 
ATOM      8  C   UNL     1      -1.494  -9.939  25.797  0.00  0.00    +0.021 A 
ATOM      9  C   UNL     1      -0.310 -10.633  25.726  0.00  0.00    +0.099 A 
ATOM     10  N   UNL     1       0.890 -10.050  25.634  0.00  0.00    -0.246 NA
ENDBRANCH   4   5
ENDBRANCH   3   4
BRANCH  19  21
ATOM     21  O   UNL     1       0.382 -10.583  21.195  0.00  0.00    -0.471 OA
ATOM     22  C   UNL     1       0.789 -11.409  22.281  0.00  0.00    +0.253 C 
ENDBRANCH  19  21
TORSDOF 4
