REMARK  Name = 4TYH
REMARK  7 active torsions:
REMARK  status: ('A' for Active; 'I' for Inactive)
REMARK    1  A    between atoms: C_2  and  C_3
REMARK    2  A    between atoms: C_3  and  C_17
REMARK    3  A    between atoms: C_4  and  N_21
REMARK    4  A    between atoms: C_10  and  C_18
REMARK    5  A    between atoms: C_12  and  S_26
REMARK    6  A    between atoms: N_23  and  C_24
REMARK    7  A    between atoms: S_26  and  N_29
REMARK                            x       y       z     vdW  Elec       q    Type
REMARK                         _______ _______ _______ _____ _____    ______ ____
ROOT
ATOM     15  C   UNL     1      90.969  36.353 110.340  0.00  0.00    +0.272 C 
ATOM     16  N   UNL     1      91.560  35.290 110.914  0.00  0.00    -0.176 NA
ATOM     30  O   UNL     1      90.211  36.229 109.382  0.00  0.00    -0.268 OA
ENDROOT
BRANCH  16  17
ATOM     17  C   UNL     1      91.264  34.003 110.401  0.00  0.00    +0.071 A 
ATOM     18  C   UNL     1      90.675  33.041 111.218  0.00  0.00    -0.006 A 
ATOM     19  C   UNL     1      90.352  33.327 112.662  0.00  0.00    +0.032 C 
ATOM     20  C   UNL     1      90.400  31.783 110.666  0.00  0.00    -0.002 A 
ATOM     21  C   UNL     1      90.686  31.482 109.340  0.00  0.00    +0.020 A 
ATOM     22  C   UNL     1      91.267  32.451 108.538  0.00  0.00    +0.124 A 
ATOM     29  C   UNL     1      91.551  33.708 109.062  0.00  0.00    +0.036 A 
BRANCH  22  23
ATOM     23  S   UNL     1      91.629  32.105 106.840  0.00  0.00    +0.063 S 
ATOM     27  O   UNL     1      92.261  30.828 106.758  0.00  0.00    -0.153 OA
ATOM     28  O   UNL     1      92.268  33.248 106.270  0.00  0.00    -0.153 OA
BRANCH  23  24
ATOM     24  N   UNL     1      90.177  31.963 106.042  0.00  0.00    -0.153 NA
ATOM     25  C   UNL     1      89.290  33.125 105.849  0.00  0.00    +0.115 C 
ATOM     26  C   UNL     1      89.742  30.667 105.502  0.00  0.00    +0.115 C 
ENDBRANCH  23  24
ENDBRANCH  22  23
ENDBRANCH  16  17
BRANCH  15  14
ATOM      4  C   UNL     1      90.560  38.789 110.596  0.00  0.00    +0.066 A 
ATOM      5  N   UNL     1      91.277  39.829 111.096  0.00  0.00    -0.234 N 
ATOM      6  N   UNL     1      92.507  39.438 111.566  0.00  0.00    -0.164 NA
ATOM      7  C   UNL     1      92.532  38.132 111.371  0.00  0.00    +0.126 A 
ATOM     14  C   UNL     1      91.337  37.661 110.790  0.00  0.00    +0.090 A 
BRANCH   5   8
ATOM      8  C   UNL     1      90.955  41.222 111.115  0.00  0.00    +0.082 A 
ATOM      9  C   UNL     1      90.760  41.891 112.313  0.00  0.00    +0.019 A 
ATOM     10  C   UNL     1      90.463  43.244 112.297  0.00  0.00    +0.002 A 
ATOM     11  C   UNL     1      90.370  43.922 111.106  0.00  0.00    +0.000 A 
ATOM     12  C   UNL     1      90.579  43.270 109.916  0.00  0.00    +0.002 A 
ATOM     13  C   UNL     1      90.877  41.923 109.908  0.00  0.00    +0.019 A 
ENDBRANCH   5   8
BRANCH   4   3
ATOM      3  C   UNL     1      89.185  38.926 110.023  0.00  0.00    +0.046 C 
BRANCH   3   2
ATOM      1  C   UNL     1      88.101  37.848 107.998  0.00  0.00    +0.000 C 
ATOM      2  C   UNL     1      89.137  38.791 108.525  0.00  0.00    +0.006 C 
ENDBRANCH   3   2
ENDBRANCH   4   3
ENDBRANCH  15  14
TORSDOF 7
