REMARK  Name = 3ii5_ligand
REMARK  9 active torsions:
REMARK  status: ('A' for Active; 'I' for Inactive)
REMARK    1  A    between atoms: C1_1  and  N1_3
REMARK    2  A    between atoms: N1_3  and  C2_5
REMARK    3  A    between atoms: N1_3  and  C3_8
REMARK    4  A    between atoms: C3_8  and  C4_11
REMARK    5  A    between atoms: N5_14  and  C20_29
REMARK    6  A    between atoms: C7_16  and  C10_19
REMARK    7  A    between atoms: C15_24  and  C16_25
REMARK    8  A    between atoms: C22_31  and  C23_32
REMARK    9  A    between atoms: C27_36  and  C29_38
REMARK                            x       y       z     vdW  Elec       q    Type
REMARK                         _______ _______ _______ _____ _____    ______ ____
ROOT
ATOM      9  C   UNL     1     -10.206  15.192  10.345  0.00  0.00    +0.011 A 
ATOM     10  C   UNL     1     -10.859  16.420  10.438  0.00  0.00    +0.174 A 
ATOM     11  N   UNL     1     -12.140  16.789  10.754  0.00  0.00    -0.267 NA
ATOM     12  C   UNL     1     -12.400  18.063  10.738  0.00  0.00    +0.111 A 
ATOM     13  C   UNL     1     -11.456  19.160  10.416  0.00  0.00    +0.074 A 
ATOM     14  C   UNL     1     -10.204  18.770  10.108  0.00  0.00    +0.147 A 
ATOM     35  N   UNL     1      -9.898  17.398  10.121  0.00  0.00    -0.128 N 
ATOM     36  N   UNL     1      -8.691  16.842   9.840  0.00  0.00    -0.205 NA
ATOM     37  C   UNL     1      -8.893  15.540   9.980  0.00  0.00    +0.064 A 
ENDROOT
BRANCH   9   8
ATOM      5  C   UNL     1     -11.588  11.168  11.027  0.00  0.00    -0.005 A 
ATOM      6  C   UNL     1     -10.455  11.427  10.242  0.00  0.00    -0.009 A 
ATOM      7  C   UNL     1     -10.025  12.740  10.019  0.00  0.00    -0.019 A 
ATOM      8  C   UNL     1     -10.705  13.837  10.569  0.00  0.00    -0.049 A 
ATOM     38  C   UNL     1     -11.836  13.584  11.362  0.00  0.00    -0.019 A 
ATOM     39  C   UNL     1     -12.267  12.267  11.586  0.00  0.00    -0.009 A 
BRANCH   5   4
ATOM      4  C   UNL     1     -12.050   9.743  11.266  0.00  0.00    +0.192 C 
BRANCH   4   2
ATOM      1  C   UNL     1     -11.955   8.542   9.029  0.00  0.00    +0.191 C 
ATOM      2  N   UNL     1     -12.822   9.000  10.178  0.00  0.00    +0.242 N 
ATOM      3  H   UNL     1     -13.128   8.149  10.624  0.00  0.00    +0.204 HD
ATOM     40  C   UNL     1     -14.096   9.670   9.731  0.00  0.00    +0.191 C 
ENDBRANCH   4   2
ENDBRANCH   5   4
ENDBRANCH   9   8
BRANCH  14  15
ATOM     15  C   UNL     1      -9.171  19.789   9.823  0.00  0.00    +0.023 A 
ATOM     16  C   UNL     1      -8.555  20.053   8.583  0.00  0.00    +0.031 A 
ATOM     17  C   UNL     1      -7.573  21.074   8.493  0.00  0.00    +0.071 A 
ATOM     18  C   UNL     1      -7.221  21.813   9.625  0.00  0.00    +0.018 A 
ATOM     19  C   UNL     1      -7.827  21.551  10.846  0.00  0.00    -0.010 A 
ATOM     34  C   UNL     1      -8.787  20.551  10.934  0.00  0.00    -0.004 A 
BRANCH  17  20
ATOM     20  N   UNL     1      -6.964  21.376   7.252  0.00  0.00    -0.232 N 
ATOM     21  H   UNL     1      -6.025  21.719   7.289  0.00  0.00    +0.225 HD
ATOM     22  C   UNL     1      -7.521  21.250   5.998  0.00  0.00    +0.239 C 
ATOM     33  O   UNL     1      -8.630  20.826   5.714  0.00  0.00    -0.372 OA
BRANCH  22  23
ATOM     23  C   UNL     1      -6.674  21.718   4.885  0.00  0.00    +0.085 A 
ATOM     24  C   UNL     1      -7.353  22.022   3.704  0.00  0.00    +0.081 A 
ATOM     25  C   UNL     1      -6.661  22.477   2.584  0.00  0.00    +0.054 A 
ATOM     30  C   UNL     1      -5.273  22.629   2.659  0.00  0.00    +0.061 A 
ATOM     31  C   UNL     1      -4.594  22.328   3.843  0.00  0.00    +0.044 A 
ATOM     32  C   UNL     1      -5.289  21.872   4.964  0.00  0.00    +0.076 A 
BRANCH  25  26
ATOM     26  C   UNL     1      -7.438  22.782   1.340  0.00  0.00    +0.378 C 
ATOM     27  F   UNL     1      -7.868  24.067   1.258  0.00  0.00    -0.220 F 
ATOM     28  F   UNL     1      -6.738  22.570   0.195  0.00  0.00    -0.220 F 
ATOM     29  F   UNL     1      -8.559  22.015   1.254  0.00  0.00    -0.220 F 
ENDBRANCH  25  26
ENDBRANCH  22  23
ENDBRANCH  17  20
ENDBRANCH  14  15
TORSDOF 7
