REMARK  Name = 1h00_ligand
REMARK  11 active torsions:
REMARK  status: ('A' for Active; 'I' for Inactive)
REMARK    1  A    between atoms: C5_3  and  N16_13
REMARK    2  A    between atoms: C17_6  and  N16_13
REMARK    3  A    between atoms: C20_9  and  O23_15
REMARK    4  A    between atoms: N7_12  and  C8_20
REMARK    5  A    between atoms: O23_15  and  C24_16
REMARK    6  A    between atoms: C24_16  and  C25_25
REMARK    7  A    between atoms: C25_25  and  C26_26
REMARK    8  A    between atoms: C25_25  and  O30_30
REMARK    9  A    between atoms: C26_26  and  N27_27
REMARK   10  A    between atoms: N27_27  and  C28_28
REMARK   11  A    between atoms: N27_27  and  C29_29
REMARK                            x       y       z     vdW  Elec       q    Type
REMARK                         _______ _______ _______ _____ _____    ______ ____
ROOT
ATOM     17  N   UNL     1       2.794  30.557   7.126  0.00  0.00    -0.263 N 
ATOM     18  H   UNL     1       3.323  31.191   6.510  0.00  0.00    +0.212 HD
ENDROOT
BRANCH  17  19
ATOM     19  C   UNL     1       1.614  31.197   7.689  0.00  0.00    +0.131 A 
ATOM     20  N   UNL     1       1.396  32.484   7.345  0.00  0.00    -0.266 NA
ATOM     21  C   UNL     1       0.326  33.100   7.856  0.00  0.00    +0.163 A 
ATOM     22  N   UNL     1      -0.569  32.563   8.689  0.00  0.00    -0.266 NA
ATOM     23  C   UNL     1      -0.401  31.277   9.066  0.00  0.00    +0.132 A 
ATOM     24  N   UNL     1      -1.398  30.732   9.980  0.00  0.00    -0.257 N 
ATOM     25  H   UNL     1      -2.284  31.255   9.942  0.00  0.00    +0.213 HD
ATOM     34  C   UNL     1       0.713  30.517   8.579  0.00  0.00    +0.086 A 
BRANCH  24  26
ATOM     26  C   UNL     1      -1.454  29.617  10.947  0.00  0.00    +0.132 A 
ATOM     27  C   UNL     1      -0.309  29.105  11.674  0.00  0.00    +0.153 A 
ATOM     28  F   UNL     1       0.945  29.621  11.516  0.00  0.00    -0.192 F 
ATOM     29  C   UNL     1      -0.462  28.028  12.584  0.00  0.00    +0.012 A 
ATOM     30  C   UNL     1      -1.734  27.448  12.792  0.00  0.00    -0.027 A 
ATOM     31  C   UNL     1      -2.864  27.937  12.091  0.00  0.00    +0.012 A 
ATOM     32  C   UNL     1      -2.731  29.015  11.177  0.00  0.00    +0.153 A 
ATOM     33  F   UNL     1      -3.849  29.459  10.521  0.00  0.00    -0.192 F 
ENDBRANCH  24  26
ENDBRANCH  17  19
BRANCH  17  16
ATOM      1  C   UNL     1       3.795  28.597   6.010  0.00  0.00    +0.005 A 
ATOM      2  C   UNL     1       4.399  27.314   6.042  0.00  0.00    +0.010 A 
ATOM      3  C   UNL     1       4.628  26.656   7.293  0.00  0.00    +0.080 A 
ATOM     14  C   UNL     1       4.248  27.299   8.501  0.00  0.00    +0.010 A 
ATOM     15  C   UNL     1       3.648  28.575   8.468  0.00  0.00    +0.005 A 
ATOM     16  C   UNL     1       3.412  29.238   7.219  0.00  0.00    +0.053 A 
BRANCH   3   4
ATOM      4  O   UNL     1       5.207  25.398   7.440  0.00  0.00    -0.323 OA
BRANCH   4   5
ATOM      5  C   UNL     1       4.464  24.159   7.617  0.00  0.00    +0.226 C 
BRANCH   5   6
ATOM      6  C   UNL     1       5.396  22.935   7.662  0.00  0.00    +0.189 C 
BRANCH   6   7
ATOM      7  O   UNL     1       6.251  22.972   8.754  0.00  0.00    -0.384 OA
ATOM      8  H   UNL     1       6.610  23.847   8.846  0.00  0.00    +0.210 HD
ENDBRANCH   6   7
BRANCH   6   9
ATOM      9  C   UNL     1       4.767  21.537   7.444  0.00  0.00    +0.165 C 
BRANCH   9  10
ATOM     10  N   UNL     1       5.617  20.341   7.761  0.00  0.00    +0.233 N 
ATOM     11  H   UNL     1       6.254  20.622   8.490  0.00  0.00    +0.203 HD
ATOM     12  C   UNL     1       4.805  19.205   8.291  0.00  0.00    +0.190 C 
ATOM     13  C   UNL     1       6.442  19.881   6.612  0.00  0.00    +0.190 C 
ENDBRANCH   9  10
ENDBRANCH   6   9
ENDBRANCH   5   6
ENDBRANCH   4   5
ENDBRANCH   3   4
ENDBRANCH  17  16
TORSDOF 9
