REMARK  Name = 3cgf_ligand
REMARK  3 active torsions:
REMARK  status: ('A' for Active; 'I' for Inactive)
REMARK    1  A    between atoms: C01_1  and  N02_2
REMARK    2  A    between atoms: N02_2  and  C18_18
REMARK    3  A    between atoms: C05_5  and  C06_6
REMARK                            x       y       z     vdW  Elec       q    Type
REMARK                         _______ _______ _______ _____ _____    ______ ____
ROOT
ATOM      1  C   UNL     1      23.398  14.412  31.435  0.00  0.00    +0.170 C 
ATOM      2  N   UNL     1      23.460  12.940  31.458  0.00  0.00    -0.278 N 
ATOM      9  C   UNL     1      22.203  12.342  31.920  0.00  0.00    +0.180 A 
ATOM     10  N   UNL     1      21.206  13.187  32.376  0.00  0.00    -0.267 NA
ATOM     11  C   UNL     1      20.037  12.623  32.849  0.00  0.00    +0.088 A 
ATOM     12  C   UNL     1      19.779  11.250  32.893  0.00  0.00    +0.034 A 
ATOM     13  C   UNL     1      20.810  10.441  32.423  0.00  0.00    +0.064 A 
ATOM     23  N   UNL     1      22.020  10.945  31.939  0.00  0.00    -0.264 NA
ENDROOT
BRANCH  13  14
ATOM     14  C   UNL     1      20.637   8.973  32.402  0.00  0.00    +0.119 A 
ATOM     15  C   UNL     1      19.546   8.198  32.821  0.00  0.00    +0.056 A 
ATOM     16  N   UNL     1      19.750   6.843  32.651  0.00  0.00    -0.327 NA
ATOM     17  C   UNL     1      20.947   6.750  32.140  0.00  0.00    +0.145 A 
ATOM     18  C   UNL     1      21.712   5.594  31.742  0.00  0.00    +0.049 A 
ATOM     19  C   UNL     1      22.968   5.759  31.218  0.00  0.00    +0.012 A 
ATOM     20  C   UNL     1      23.568   7.092  31.040  0.00  0.00    +0.037 A 
ATOM     21  C   UNL     1      22.854   8.182  31.413  0.00  0.00    +0.212 A 
ATOM     22  N   UNL     1      21.554   8.026  31.958  0.00  0.00    -0.192 N 
ENDBRANCH  13  14
BRANCH   2   3
ATOM      3  C   UNL     1      24.081  12.355  30.226  0.00  0.00    +0.101 C 
ATOM      4  C   UNL     1      24.743  10.979  30.565  0.00  0.00    +0.028 C 
ATOM      5  C   UNL     1      25.419  10.260  29.364  0.00  0.00    +0.002 C 
ATOM      6  C   UNL     1      24.521  10.209  28.120  0.00  0.00    +0.000 C 
ATOM      7  C   UNL     1      23.910  11.585  27.790  0.00  0.00    +0.002 C 
ATOM      8  C   UNL     1      23.153  12.186  28.994  0.00  0.00    +0.028 C 
ENDBRANCH   2   3
TORSDOF 2
