REMARK  Name = 7AV
REMARK  5 active torsions:
REMARK  status: ('A' for Active; 'I' for Inactive)
REMARK    1  A    between atoms: C2_2  and  C18_10
REMARK    2  A    between atoms: C12_4  and  C10_25
REMARK    3  A    between atoms: C17_9  and  O25_30
REMARK    4  A    between atoms: C26_14  and  C27_15
REMARK    5  A    between atoms: C26_14  and  O25_30
REMARK                            x       y       z     vdW  Elec       q    Type
REMARK                         _______ _______ _______ _____ _____    ______ ____
ROOT
ATOM      1  C   UNL     1      17.198  10.067   9.488  0.00  0.00    -0.002 A 
ATOM      2  C   UNL     1      17.775  10.244  10.749  0.00  0.00    -0.007 A 
ATOM      3  C   UNL     1      17.235   9.923  12.140  0.00  0.00    +0.050 C 
ATOM      4  C   UNL     1      18.536   9.928  13.019  0.00  0.00    +0.103 C 
ATOM      5  N   UNL     1      19.395  10.855  12.283  0.00  0.00    -0.255 N 
ATOM      6  C   UNL     1      20.352  11.617  12.891  0.00  0.00    +0.256 C 
ATOM      7  O   UNL     1      20.575  11.587  14.093  0.00  0.00    -0.270 OA
ATOM     23  C   UNL     1      19.039  10.783  10.910  0.00  0.00    +0.050 A 
ATOM     24  C   UNL     1      19.785  11.165   9.788  0.00  0.00    +0.015 A 
ATOM     25  C   UNL     1      19.215  10.999   8.524  0.00  0.00    +0.003 A 
ATOM     26  C   UNL     1      17.939  10.441   8.357  0.00  0.00    +0.018 A 
ENDROOT
BRANCH  26  27
ATOM     27  C   UNL     1      17.307  10.287   6.989  0.00  0.00    +0.090 A 
ATOM     28  C   UNL     1      16.048   9.934   6.703  0.00  0.00    +0.057 A 
ATOM     29  S   UNL     1      15.709   9.939   4.986  0.00  0.00    -0.050 S 
ATOM     30  C   UNL     1      17.336  10.445   4.676  0.00  0.00    +0.179 A 
ATOM     31  N   UNL     1      17.807  10.656   3.473  0.00  0.00    -0.213 NA
ATOM     32  C   UNL     1      19.233  10.837   3.211  0.00  0.00    +0.138 C 
ATOM     33  N   UNL     1      17.995  10.586   5.753  0.00  0.00    -0.223 NA
ENDBRANCH  26  27
BRANCH   6   8
ATOM      8  C   UNL     1      21.219  12.578  12.101  0.00  0.00    +0.088 A 
ATOM      9  C   UNL     1      20.684  13.820  11.744  0.00  0.00    +0.008 A 
ATOM     10  C   UNL     1      21.439  14.735  11.011  0.00  0.00    +0.000 A 
ATOM     11  C   UNL     1      22.738  14.404  10.629  0.00  0.00    +0.003 A 
ATOM     12  C   UNL     1      23.274  13.166  10.976  0.00  0.00    +0.037 A 
ATOM     13  C   UNL     1      22.524  12.238  11.713  0.00  0.00    +0.143 A 
BRANCH  13  14
ATOM     14  O   UNL     1      23.063  10.990  12.061  0.00  0.00    -0.470 OA
BRANCH  14  15
ATOM     15  C   UNL     1      24.475  10.728  11.969  0.00  0.00    +0.232 C 
BRANCH  15  16
ATOM     16  C   UNL     1      24.851  10.340  10.526  0.00  0.00    +0.021 A 
ATOM     17  C   UNL     1      26.200  10.337  10.137  0.00  0.00    +0.000 A 
ATOM     18  C   UNL     1      26.569   9.992   8.831  0.00  0.00    +0.011 A 
ATOM     19  C   UNL     1      25.586   9.644   7.900  0.00  0.00    +0.058 A 
ATOM     20  C   UNL     1      24.238   9.644   8.277  0.00  0.00    +0.011 A 
ATOM     21 CL   UNL     1      26.040   9.204   6.267  0.00  0.00    -0.082 Cl
ATOM     22  C   UNL     1      23.870   9.990   9.585  0.00  0.00    +0.000 A 
ENDBRANCH  15  16
ENDBRANCH  14  15
ENDBRANCH  13  14
ENDBRANCH   6   8
TORSDOF 5
