REMARK  Name = 4obp_ligand
REMARK  1 active torsions:
REMARK  status: ('A' for Active; 'I' for Inactive)
REMARK    1  A    between atoms: C3_3  and  C12_12
REMARK                            x       y       z     vdW  Elec       q    Type
REMARK                         _______ _______ _______ _____ _____    ______ ____
ROOT
ATOM      1  C   UNL     1     -15.941  -4.232  27.920  0.00  0.00    +0.057 A 
ATOM      2  C   UNL     1     -15.211  -4.277  29.123  0.00  0.00    +0.071 A 
ATOM      3  N   UNL     1     -14.393  -3.222  29.439  0.00  0.00    -0.284 NA
ATOM      4  C   UNL     1     -13.702  -3.355  30.556  0.00  0.00    +0.175 A 
ATOM      5  N   UNL     1     -13.686  -4.388  31.405  0.00  0.00    -0.248 NA
ATOM      6  C   UNL     1     -14.495  -5.481  31.112  0.00  0.00    +0.158 A 
ATOM      7  N   UNL     1     -14.427  -6.610  31.852  0.00  0.00    -0.304 N 
ATOM      8  H   UNL     1     -14.974  -7.439  31.578  0.00  0.00    +0.189 HD
ATOM      9  H   UNL     1     -13.828  -6.641  32.690  0.00  0.00    +0.189 HD
ATOM     10  C   UNL     1     -15.330  -5.432  29.941  0.00  0.00    +0.122 A 
ATOM     11  N   UNL     1     -16.168  -6.439  29.562  0.00  0.00    -0.270 NA
ATOM     12  C   UNL     1     -16.859  -6.370  28.428  0.00  0.00    +0.066 A 
ATOM     20  C   UNL     1     -16.746  -5.276  27.570  0.00  0.00    +0.059 A 
ENDROOT
BRANCH  12  13
ATOM     13  C   UNL     1     -17.826  -7.467  28.175  0.00  0.00    +0.017 A 
ATOM     14  C   UNL     1     -18.273  -8.268  29.229  0.00  0.00    +0.083 A 
ATOM     15  C   UNL     1     -19.231  -9.244  28.941  0.00  0.00    +0.214 A 
ATOM     16  F   UNL     1     -19.586 -10.140  29.888  0.00  0.00    -0.154 F 
ATOM     17  N   UNL     1     -19.786  -9.436  27.707  0.00  0.00    -0.265 NA
ATOM     18  C   UNL     1     -19.323  -8.648  26.726  0.00  0.00    +0.088 A 
ATOM     19  C   UNL     1     -18.351  -7.686  26.902  0.00  0.00    +0.037 A 
ENDBRANCH  12  13
TORSDOF 1
