REMARK  Name = 3EFL
REMARK  6 active torsions:
REMARK  status: ('A' for Active; 'I' for Inactive)
REMARK    1  A    between atoms: C_1  and  C_2
REMARK    2  A    between atoms: C_2  and  C_3
REMARK    3  A    between atoms: C_11  and  N_12
REMARK    4  A    between atoms: C_13  and  C_15
REMARK    5  A    between atoms: N_21  and  C_22
REMARK    6  A    between atoms: C_22  and  C_23
REMARK                            x       y       z     vdW  Elec       q    Type
REMARK                         _______ _______ _______ _____ _____    ______ ____
ROOT
ATOM      7  N   UNL     1      36.817  35.772  12.688  0.00  0.00    -0.281 N 
ATOM      8  H   UNL     1      35.750  35.798  12.762  0.00  0.00    +0.155 HD
ATOM      9  C   UNL     1      37.444  34.633  12.977  0.00  0.00    +0.252 C 
ATOM     25  O   UNL     1      38.665  34.486  12.950  0.00  0.00    -0.270 OA
ENDROOT
BRANCH   7   6
ATOM      1  C   UNL     1      40.448  40.890  11.635  0.00  0.00    +0.017 C 
ATOM      2  C   UNL     1      39.049  40.671  11.057  0.00  0.00    +0.007 C 
ATOM      3  C   UNL     1      38.569  39.247  11.343  0.00  0.00    -0.019 A 
ATOM      4  C   UNL     1      38.924  38.025  10.778  0.00  0.00    +0.008 A 
ATOM      5  C   UNL     1      38.367  36.845  11.261  0.00  0.00    +0.024 A 
ATOM      6  C   UNL     1      37.453  36.879  12.312  0.00  0.00    +0.035 A 
ATOM     26  C   UNL     1      37.113  38.104  12.882  0.00  0.00    +0.046 A 
ATOM     27  C   UNL     1      37.659  39.290  12.399  0.00  0.00    +0.033 A 
ATOM     28  N   UNL     1      37.353  40.551  12.702  0.00  0.00    -0.343 N 
ATOM     29  H   UNL     1      36.705  40.833  13.505  0.00  0.00    +0.146 HD
ATOM     30  C   UNL     1      38.012  41.510  11.802  0.00  0.00    +0.112 C 
ATOM     31  C   UNL     1      39.004  40.961   9.555  0.00  0.00    +0.017 C 
ENDBRANCH   7   6
BRANCH   9  10
ATOM     10  C   UNL     1      36.529  33.467  13.362  0.00  0.00    +0.077 A 
ATOM     11  C   UNL     1      37.055  32.317  13.945  0.00  0.00    +0.131 A 
ATOM     12  N   UNL     1      38.357  32.249  14.218  0.00  0.00    -0.324 N 
ATOM     13  H   UNL     1      39.007  33.024  13.869  0.00  0.00    +0.148 HD
ATOM     21  N   UNL     1      36.250  31.280  14.226  0.00  0.00    -0.240 NA
ATOM     22  C   UNL     1      34.952  31.301  13.975  0.00  0.00    +0.113 A 
ATOM     23  C   UNL     1      34.366  32.423  13.397  0.00  0.00    +0.021 A 
ATOM     24  C   UNL     1      35.167  33.518  13.087  0.00  0.00    +0.018 A 
BRANCH  12  14
ATOM     14  C   UNL     1      38.918  31.130  14.990  0.00  0.00    +0.138 C 
BRANCH  14  15
ATOM     15  C   UNL     1      39.430  30.036  14.049  0.00  0.00    -0.028 A 
ATOM     16  C   UNL     1      39.881  28.825  14.567  0.00  0.00    +0.025 A 
ATOM     17  C   UNL     1      40.314  27.841  13.684  0.00  0.00    +0.111 A 
ATOM     18  N   UNL     1      40.295  28.057  12.379  0.00  0.00    -0.263 NA
ATOM     19  C   UNL     1      39.875  29.196  11.852  0.00  0.00    +0.111 A 
ATOM     20  C   UNL     1      39.428  30.228  12.670  0.00  0.00    +0.025 A 
ENDBRANCH  14  15
ENDBRANCH  12  14
ENDBRANCH   9  10
TORSDOF 4
