REMARK  Name = 1h08_ligand
REMARK  11 active torsions:
REMARK  status: ('A' for Active; 'I' for Inactive)
REMARK    1  A    between atoms: C22_1  and  O21_20
REMARK    2  A    between atoms: C22_1  and  C23_24
REMARK    3  A    between atoms: C4_5  and  N7_21
REMARK    4  A    between atoms: C8_11  and  N7_21
REMARK    5  A    between atoms: C15_16  and  N14_22
REMARK    6  A    between atoms: C18_17  and  O21_20
REMARK    7  A    between atoms: C23_24  and  C24_25
REMARK    8  A    between atoms: C23_24  and  O28_29
REMARK    9  A    between atoms: C24_25  and  N25_26
REMARK   10  A    between atoms: N25_26  and  C26_27
REMARK   11  A    between atoms: N25_26  and  C27_28
REMARK                            x       y       z     vdW  Elec       q    Type
REMARK                         _______ _______ _______ _____ _____    ______ ____
ROOT
ATOM     15  N   UNL     1      10.078 -10.925  12.294  0.00  0.00    -0.249 N 
ATOM     16  H   UNL     1       9.536 -11.539  12.919  0.00  0.00    +0.216 HD
ATOM     17  C   UNL     1      11.256 -10.367  12.929  0.00  0.00    +0.196 A 
ATOM     18  N   UNL     1      12.031  -9.539  12.225  0.00  0.00    -0.232 NA
ATOM     19  C   UNL     1      13.127  -9.015  12.777  0.00  0.00    +0.143 A 
ATOM     20  C   UNL     1      13.466  -9.327  14.121  0.00  0.00    +0.071 A 
ATOM     21 BR   UNL     1      15.019  -8.608  14.972  0.00  0.00    -0.054 Br
ATOM     22  C   UNL     1      12.581 -10.219  14.812  0.00  0.00    +0.099 A 
ATOM     31  N   UNL     1      11.480 -10.726  14.204  0.00  0.00    -0.266 NA
ENDROOT
BRANCH  15  14
ATOM     11  C   UNL     1       8.386 -10.557   8.336  0.00  0.00    +0.080 A 
ATOM     12  C   UNL     1       7.980 -11.630   9.203  0.00  0.00    +0.010 A 
ATOM     13  C   UNL     1       8.533 -11.750  10.506  0.00  0.00    +0.005 A 
ATOM     14  C   UNL     1       9.491 -10.806  10.957  0.00  0.00    +0.056 A 
ATOM     32  C   UNL     1       9.896  -9.732  10.093  0.00  0.00    +0.005 A 
ATOM     33  C   UNL     1       9.349  -9.610   8.797  0.00  0.00    +0.010 A 
BRANCH  11  10
ATOM     10  O   UNL     1       7.809 -10.464   7.041  0.00  0.00    -0.322 OA
BRANCH  10   1
ATOM      1  C   UNL     1       8.663  -9.902   5.977  0.00  0.00    +0.226 C 
BRANCH   1   2
ATOM      2  C   UNL     1       7.759  -9.463   4.786  0.00  0.00    +0.189 C 
BRANCH   2   3
ATOM      3  O   UNL     1       7.213  -8.178   5.069  0.00  0.00    -0.384 OA
ATOM      4  H   UNL     1       7.919  -7.554   5.192  0.00  0.00    +0.210 HD
ENDBRANCH   2   3
BRANCH   2   5
ATOM      5  C   UNL     1       6.595 -10.498   4.581  0.00  0.00    +0.165 C 
BRANCH   5   6
ATOM      6  N   UNL     1       5.932 -10.525   3.222  0.00  0.00    +0.233 N 
ATOM      7  H   UNL     1       5.289 -11.296   3.305  0.00  0.00    +0.203 HD
ATOM      8  C   UNL     1       6.798 -10.933   2.078  0.00  0.00    +0.190 C 
ATOM      9  C   UNL     1       5.038  -9.371   2.919  0.00  0.00    +0.190 C 
ENDBRANCH   5   6
ENDBRANCH   2   5
ENDBRANCH   1   2
ENDBRANCH  10   1
ENDBRANCH  11  10
ENDBRANCH  15  14
BRANCH  19  23
ATOM     23  N   UNL     1      13.980  -8.105  12.026  0.00  0.00    -0.255 N 
ATOM     24  H   UNL     1      14.785  -7.776  12.578  0.00  0.00    +0.217 HD
BRANCH  23  25
ATOM     25  C   UNL     1      13.966  -7.549  10.679  0.00  0.00    +0.065 A 
ATOM     26  C   UNL     1      13.469  -8.253   9.534  0.00  0.00    +0.016 A 
ATOM     27  C   UNL     1      13.483  -7.640   8.251  0.00  0.00    -0.013 A 
ATOM     28  C   UNL     1      13.990  -6.323   8.101  0.00  0.00    -0.021 A 
ATOM     29  C   UNL     1      14.483  -5.615   9.226  0.00  0.00    -0.013 A 
ATOM     30  C   UNL     1      14.470  -6.225  10.510  0.00  0.00    +0.016 A 
ENDBRANCH  23  25
ENDBRANCH  19  23
TORSDOF 9
