REMARK  Name = 4MKC
REMARK  12 active torsions:
REMARK  status: ('A' for Active; 'I' for Inactive)
REMARK    1  A    between atoms: C_1  and  C_2
REMARK    2  A    between atoms: C_2  and  C_3
REMARK    3  A    between atoms: C_2  and  O_4
REMARK    4  A    between atoms: O_4  and  C_5
REMARK    5  A    between atoms: C_7  and  C_8
REMARK    6  A    between atoms: C_14  and  C_15
REMARK    7  A    between atoms: C_17  and  N_18
REMARK    8  A    between atoms: N_25  and  C_26
REMARK    9  A    between atoms: C_31  and  S_32
REMARK   10  A    between atoms: S_32  and  C_35
REMARK   11  A    between atoms: C_35  and  C_36
REMARK   12  A    between atoms: C_35  and  C_37
REMARK                            x       y       z     vdW  Elec       q    Type
REMARK                         _______ _______ _______ _____ _____    ______ ____
ROOT
ATOM      6  N   UNL     1     -23.773  10.052  -9.015  0.00  0.00    -0.282 N 
ATOM      7  H   UNL     1     -24.773   9.884  -9.358  0.00  0.00    +0.155 HD
ATOM      8  C   UNL     1     -23.195  11.212  -9.402  0.00  0.00    +0.199 A 
ATOM      9  N   UNL     1     -22.052  11.587  -8.815  0.00  0.00    -0.195 NA
ATOM     10  C   UNL     1     -21.347  12.681  -9.141  0.00  0.00    +0.176 A 
ATOM     11  N   UNL     1     -20.165  12.982  -8.522  0.00  0.00    -0.225 NA
ATOM     24  C   UNL     1     -21.861  13.465 -10.176  0.00  0.00    +0.101 A 
ATOM     25 CL   UNL     1     -21.031  14.909 -10.664  0.00  0.00    -0.078 Cl
ATOM     26  C   UNL     1     -23.075  13.107 -10.783  0.00  0.00    +0.109 A 
ATOM     27  N   UNL     1     -23.733  12.006 -10.361  0.00  0.00    -0.332 N 
ATOM     28  H   UNL     1     -24.684  11.759 -10.785  0.00  0.00    +0.168 HD
ENDROOT
BRANCH   6   5
ATOM      4  C   UNL     1     -24.123   8.273  -7.508  0.00  0.00    +0.142 A 
ATOM      5  C   UNL     1     -23.225   9.064  -8.232  0.00  0.00    +0.076 A 
ATOM     29  C   UNL     1     -21.843   8.780  -8.145  0.00  0.00    +0.030 A 
ATOM     30  C   UNL     1     -21.335   7.761  -7.313  0.00  0.00    -0.045 A 
ATOM     31  C   UNL     1     -19.802   7.594  -7.248  0.00  0.00    +0.044 C 
ATOM     32  C   UNL     1     -22.245   6.971  -6.566  0.00  0.00    -0.038 A 
ATOM     40  C   UNL     1     -23.627   7.228  -6.704  0.00  0.00    +0.051 A 
BRANCH  32  33
ATOM     33  C   UNL     1     -21.780   5.788  -5.667  0.00  0.00    +0.022 C 
ATOM     34  C   UNL     1     -22.547   5.627  -4.312  0.00  0.00    +0.023 C 
ATOM     35  C   UNL     1     -21.958   4.425  -3.502  0.00  0.00    +0.081 C 
ATOM     36  N   UNL     1     -21.933   3.198  -4.349  0.00  0.00    -0.316 NA
ATOM     37  H   UNL     1     -21.501   2.412  -3.765  0.00  0.00    +0.122 HD
ATOM     38  C   UNL     1     -21.175   3.274  -5.631  0.00  0.00    +0.081 C 
ATOM     39  C   UNL     1     -21.721   4.457  -6.490  0.00  0.00    +0.023 C 
ENDBRANCH  32  33
BRANCH   4   3
ATOM      3  O   UNL     1     -25.487   8.592  -7.650  0.00  0.00    -0.487 OA
BRANCH   3   2
ATOM      1  C   UNL     1     -27.826   8.785  -7.156  0.00  0.00    +0.051 C 
ATOM      2  C   UNL     1     -26.601   7.828  -7.132  0.00  0.00    +0.167 C 
ATOM     41  C   UNL     1     -26.865   6.550  -7.983  0.00  0.00    +0.051 C 
ENDBRANCH   3   2
ENDBRANCH   4   3
ENDBRANCH   6   5
BRANCH  11  12
ATOM     12  C   UNL     1     -19.507  12.268  -7.537  0.00  0.00    +0.091 A 
ATOM     13  C   UNL     1     -18.101  12.428  -7.347  0.00  0.00    +0.114 A 
ATOM     20  C   UNL     1     -17.458  11.764  -6.275  0.00  0.00    +0.029 A 
ATOM     21  C   UNL     1     -18.157  10.899  -5.421  0.00  0.00    +0.002 A 
ATOM     22  C   UNL     1     -19.538  10.745  -5.592  0.00  0.00    +0.002 A 
ATOM     23  C   UNL     1     -20.202  11.435  -6.622  0.00  0.00    +0.029 A 
BRANCH  13  14
ATOM     14  S   UNL     1     -17.111  13.547  -8.339  0.00  0.00    +0.001 S 
ATOM     18  O   UNL     1     -16.035  14.054  -7.494  0.00  0.00    -0.169 OA
ATOM     19  O   UNL     1     -17.942  14.597  -8.915  0.00  0.00    -0.169 OA
BRANCH  14  15
ATOM     15  C   UNL     1     -16.433  12.551  -9.697  0.00  0.00    +0.130 C 
ATOM     16  C   UNL     1     -17.505  11.799 -10.528  0.00  0.00    +0.032 C 
ATOM     17  C   UNL     1     -15.300  11.634  -9.160  0.00  0.00    +0.032 C 
ENDBRANCH  14  15
ENDBRANCH  13  14
ENDBRANCH  11  12
TORSDOF 7
