REMARK  Name = 3my1_ligand
REMARK  5 active torsions:
REMARK  status: ('A' for Active; 'I' for Inactive)
REMARK    1  A    between atoms: N1_11  and  C1'_12
REMARK    2  A    between atoms: C4'_14  and  C5'_15
REMARK    3  A    between atoms: C5'_15  and  O5'_16
REMARK    4  A    between atoms: C3'_17  and  O3'_18
REMARK    5  A    between atoms: C2'_19  and  O2'_20
REMARK                            x       y       z     vdW  Elec       q    Type
REMARK                         _______ _______ _______ _____ _____    ______ ____
ROOT
ATOM      3  C1* UNL     1      52.999 -18.453 -13.105  0.00  0.00    +0.297 C 
ATOM      4  C2* UNL     1      53.238 -18.786 -11.643  0.00  0.00    +0.206 C 
ATOM      7  C3* UNL     1      52.158 -19.799 -11.275  0.00  0.00    +0.179 C 
ATOM     10  C4* UNL     1      51.464 -20.177 -12.579  0.00  0.00    +0.178 C 
ATOM     14  O4* UNL     1      52.020 -19.361 -13.615  0.00  0.00    -0.337 OA
ENDROOT
BRANCH   3   2
ATOM      1  C   UNL     1      53.139 -15.950 -13.301  0.00  0.00    +0.090 A 
ATOM      2  N   UNL     1      52.445 -17.084 -13.201  0.00  0.00    -0.207 N 
ATOM     15  C   UNL     1      51.142 -16.778 -13.201  0.00  0.00    +0.244 A 
ATOM     16  N   UNL     1      50.997 -15.439 -13.304  0.00  0.00    -0.306 NA
ATOM     17  C   UNL     1      52.227 -14.903 -13.367  0.00  0.00    +0.035 A 
ATOM     18  C   UNL     1      52.663 -13.595 -13.472  0.00  0.00    +0.010 A 
ATOM     19  C   UNL     1      54.024 -13.348 -13.514  0.00  0.00    +0.040 A 
ATOM     20 CL   UNL     1      54.614 -11.669 -13.653  0.00  0.00    -0.080 Cl
ATOM     21  C   UNL     1      54.945 -14.382 -13.451  0.00  0.00    +0.042 A 
ATOM     22 CL   UNL     1      56.704 -14.023 -13.506  0.00  0.00    -0.078 Cl
ATOM     23  C   UNL     1      54.504 -15.695 -13.343  0.00  0.00    +0.031 A 
ENDBRANCH   3   2
BRANCH   4   5
ATOM      5  O2* UNL     1      54.572 -19.298 -11.480  0.00  0.00    -0.384 OA
ATOM      6  H2* UNL     1      54.708 -19.548 -10.563  0.00  0.00    +0.210 HD
ENDBRANCH   4   5
BRANCH   7   8
ATOM      8  O3* UNL     1      52.691 -20.965 -10.639  0.00  0.00    -0.386 OA
ATOM      9  H3* UNL     1      53.327 -21.384 -11.223  0.00  0.00    +0.210 HD
ENDBRANCH   7   8
BRANCH  10  11
ATOM     11  C5* UNL     1      49.960 -19.948 -12.513  0.00  0.00    +0.190 C 
BRANCH  11  12
ATOM     12  O5* UNL     1      49.407 -19.995 -13.836  0.00  0.00    -0.392 OA
ATOM     13  H5* UNL     1      49.811 -19.311 -14.375  0.00  0.00    +0.209 HD
ENDBRANCH  11  12
ENDBRANCH  10  11
TORSDOF 5
