REMARK  Name = 3iok_ligand
REMARK  4 active torsions:
REMARK  status: ('A' for Active; 'I' for Inactive)
REMARK    1  A    between atoms: C1_1  and  C2_2
REMARK    2  A    between atoms: C2_2  and  N4_3
REMARK    3  A    between atoms: C2_2  and  C21_20
REMARK    4  A    between atoms: C9_8  and  C11_10
REMARK                            x       y       z     vdW  Elec       q    Type
REMARK                         _______ _______ _______ _____ _____    ______ ____
ROOT
ATOM     10  N   UNL     1      16.287  13.431   6.048  0.00  0.00    -0.291 N 
ATOM     11  H   UNL     1      17.009  13.631   6.755  0.00  0.00    +0.186 HD
ATOM     12  C   UNL     1      16.205  12.131   5.542  0.00  0.00    +0.114 A 
ATOM     13  C   UNL     1      15.146  11.724   4.722  0.00  0.00    +0.048 A 
ATOM     14  C   UNL     1      15.113  10.412   4.254  0.00  0.00    +0.022 A 
ATOM     27  N   UNL     1      16.112   9.586   4.599  0.00  0.00    -0.300 NA
ATOM     28  C   UNL     1      17.094   9.992   5.387  0.00  0.00    +0.160 A 
ATOM     29  N   UNL     1      17.151  11.237   5.841  0.00  0.00    -0.268 NA
ENDROOT
BRANCH  14  15
ATOM     15  C   UNL     1      14.040   9.958   3.343  0.00  0.00    +0.057 A 
ATOM     16  C   UNL     1      13.934   8.677   2.779  0.00  0.00    +0.096 A 
ATOM     17  N   UNL     1      14.779   7.600   3.034  0.00  0.00    -0.332 N 
ATOM     18  H   UNL     1      15.567   7.707   3.689  0.00  0.00    +0.172 HD
ATOM     19  H   UNL     1      14.616   6.696   2.568  0.00  0.00    +0.172 HD
ATOM     20  N   UNL     1      12.892   8.647   1.978  0.00  0.00    -0.196 NA
ATOM     21  N   UNL     1      12.275   9.903   1.967  0.00  0.00    -0.137 N 
ATOM     22  C   UNL     1      11.181  10.372   1.285  0.00  0.00    +0.251 A 
ATOM     23  C   UNL     1      10.824  11.670   1.432  0.00  0.00    +0.071 A 
ATOM     24  C   UNL     1      11.573  12.473   2.300  0.00  0.00    +0.117 A 
ATOM     25  N   UNL     1      12.610  11.993   2.956  0.00  0.00    -0.261 NA
ATOM     26  C   UNL     1      12.989  10.723   2.802  0.00  0.00    +0.181 A 
ENDBRANCH  14  15
BRANCH  10   2
ATOM      1  C   UNL     1      15.780  15.827   6.361  0.00  0.00    +0.050 C 
ATOM      2  C   UNL     1      15.400  14.535   5.629  0.00  0.00    +0.140 C 
BRANCH   2   3
ATOM      3  C   UNL     1      15.465  14.772   4.132  0.00  0.00    -0.022 A 
ATOM      4  C   UNL     1      14.280  15.032   3.450  0.00  0.00    -0.005 A 
ATOM      5  C   UNL     1      14.273  15.248   2.081  0.00  0.00    +0.024 A 
ATOM      6  C   UNL     1      15.471  15.213   1.394  0.00  0.00    +0.125 A 
ATOM      7  F   UNL     1      15.474  15.422   0.061  0.00  0.00    -0.189 F 
ATOM      8  C   UNL     1      16.661  14.947   2.064  0.00  0.00    +0.024 A 
ATOM      9  C   UNL     1      16.669  14.728   3.437  0.00  0.00    -0.005 A 
ENDBRANCH   2   3
ENDBRANCH  10   2
TORSDOF 3
