REMARK  Name = 5NK0
REMARK  22 active torsions:
REMARK  status: ('A' for Active; 'I' for Inactive)
REMARK    1  A    between atoms: C_1  and  C_2
REMARK    2  A    between atoms: C_8  and  N_9
REMARK    3  A    between atoms: C_10  and  C_12
REMARK    4  A    between atoms: N_17  and  C_18
REMARK    5  A    between atoms: C_23  and  C_24
REMARK    6  A    between atoms: N_26  and  C_27
REMARK    7  A    between atoms: C_27  and  C_28
REMARK    8  A    between atoms: C_28  and  C_29
REMARK    9  A    between atoms: C_28  and  C_30
REMARK   10  A    between atoms: C_28  and  C_31
REMARK   11  A    between atoms: C_31  and  N_32
REMARK   12  A    between atoms: C_33  and  C_34
REMARK   13  A    between atoms: C_40  and  N_41
REMARK   14  A    between atoms: C_42  and  C_44
REMARK   15  A    between atoms: N_49  and  C_50
REMARK   16  A    between atoms: C_55  and  C_56
REMARK   17  A    between atoms: N_58  and  C_59
REMARK   18  A    between atoms: C_59  and  C_60
REMARK   19  A    between atoms: C_60  and  C_61
REMARK   20  A    between atoms: C_60  and  C_62
REMARK   21  A    between atoms: C_60  and  C_63
REMARK   22  A    between atoms: C_63  and  N_64
REMARK                            x       y       z     vdW  Elec       q    Type
REMARK                         _______ _______ _______ _____ _____    ______ ____
ROOT
ATOM      7  C   UNL     1     126.270  15.465  47.147  0.00  0.00    +0.095 A 
ATOM      8  C   UNL     1     126.839  14.991  46.022  0.00  0.00    +0.133 A 
ATOM      9  N   UNL     1     125.965  14.471  45.117  0.00  0.00    -0.232 NA
ATOM     10  C   UNL     1     124.672  14.496  45.504  0.00  0.00    +0.163 A 
ATOM     11  N   UNL     1     123.667  14.020  44.740  0.00  0.00    -0.294 N 
ATOM     12  H   UNL     1     123.924  13.652  43.769  0.00  0.00    +0.154 HD
ATOM     31  S   UNL     1     124.619  15.211  47.043  0.00  0.00    -0.048 S 
ENDROOT
BRANCH  11  13
ATOM     13  C   UNL     1     122.362  13.968  45.095  0.00  0.00    +0.033 A 
ATOM     14  C   UNL     1     121.915  13.810  46.406  0.00  0.00    +0.023 A 
ATOM     15  C   UNL     1     120.554  13.754  46.696  0.00  0.00    +0.003 A 
ATOM     16  C   UNL     1     119.626  13.834  45.669  0.00  0.00    +0.013 A 
ATOM     17  C   UNL     1     120.048  13.981  44.358  0.00  0.00    +0.038 A 
ATOM     30  C   UNL     1     121.410  14.038  44.075  0.00  0.00    +0.036 A 
BRANCH  17  18
ATOM     18  C   UNL     1     119.102  14.048  43.336  0.00  0.00    +0.244 C 
ATOM     19  N   UNL     1     117.976  13.359  43.573  0.00  0.00    -0.311 N 
ATOM     20  H   UNL     1     117.873  12.840  44.503  0.00  0.00    +0.149 HD
ATOM     29  O   UNL     1     119.323  14.662  42.292  0.00  0.00    -0.270 OA
BRANCH  19  21
ATOM     21  C   UNL     1     116.878  13.293  42.597  0.00  0.00    +0.112 C 
BRANCH  21  22
ATOM     22  C   UNL     1     115.532  13.489  43.300  0.00  0.00    -0.007 C 
ATOM     27  C   UNL     1     114.883  12.128  43.583  0.00  0.00    +0.014 C 
ATOM     28  C   UNL     1     115.746  14.234  44.621  0.00  0.00    +0.014 C 
BRANCH  22  23
ATOM     23  C   UNL     1     114.624  14.316  42.386  0.00  0.00    +0.085 C 
BRANCH  23  24
ATOM     24  N   UNL     1     113.387  14.713  43.074  0.00  0.00    -0.329 NA
ATOM     25  H   UNL     1     112.853  13.838  43.381  0.00  0.00    +0.118 HD
ATOM     26  H   UNL     1     113.630  15.302  43.934  0.00  0.00    +0.118 HD
ENDBRANCH  23  24
ENDBRANCH  22  23
ENDBRANCH  21  22
ENDBRANCH  19  21
ENDBRANCH  17  18
ENDBRANCH  11  13
BRANCH   7   6
ATOM      4  N   UNL     1     128.202  16.211  48.221  0.00  0.00    -0.280 N 
ATOM      5  H   UNL     1     128.769  15.980  47.344  0.00  0.00    +0.155 HD
ATOM      6  C   UNL     1     126.862  16.018  48.233  0.00  0.00    +0.256 C 
ATOM     32  O   UNL     1     126.174  16.271  49.218  0.00  0.00    -0.269 OA
BRANCH   4   3
ATOM      1  C   UNL     1     128.947  14.442  50.241  0.00  0.00    +0.046 C 
ATOM      2  C   UNL     1     129.208  15.807  50.334  0.00  0.00    -0.028 A 
ATOM      3  C   UNL     1     128.825  16.699  49.328  0.00  0.00    +0.055 A 
ATOM     33  C   UNL     1     129.122  18.057  49.455  0.00  0.00    +0.062 A 
ATOM     34 CL   UNL     1     128.699  19.224  48.259  0.00  0.00    -0.082 Cl
ATOM     35  C   UNL     1     129.779  18.516  50.596  0.00  0.00    +0.022 A 
ATOM     36  C   UNL     1     130.148  17.638  51.610  0.00  0.00    +0.002 A 
ATOM     37  C   UNL     1     129.857  16.284  51.473  0.00  0.00    +0.005 A 
ENDBRANCH   4   3
ENDBRANCH   7   6
TORSDOF 8
