REMARK  Name = 5AJX
REMARK  9 active torsions:
REMARK  status: ('A' for Active; 'I' for Inactive)
REMARK    1  A    between atoms: C_2  and  C_3
REMARK    2  A    between atoms: C_7  and  O_20
REMARK    3  A    between atoms: N_11  and  C_12
REMARK    4  A    between atoms: C_12  and  C_13
REMARK    5  A    between atoms: C_14  and  C_15
REMARK    6  A    between atoms: C_18  and  C_19
REMARK    7  A    between atoms: O_20  and  C_21
REMARK    8  A    between atoms: C_24  and  N_27
REMARK    9  A    between atoms: C_28  and  C_30
REMARK                            x       y       z     vdW  Elec       q    Type
REMARK                         _______ _______ _______ _____ _____    ______ ____
ROOT
ATOM      3  C   UNL     1     -42.935 -41.400 -12.322  0.00  0.00    +0.077 A 
ATOM      4  C   UNL     1     -42.179 -40.223 -12.621  0.00  0.00    +0.021 A 
ATOM      5  C   UNL     1     -40.830 -40.517 -12.266  0.00  0.00    +0.051 A 
ATOM      6  N   UNL     1     -40.794 -41.828 -11.770  0.00  0.00    -0.341 N 
ATOM     15  C   UNL     1     -39.809 -39.573 -12.427  0.00  0.00    +0.030 A 
ATOM     16  C   UNL     1     -40.145 -38.330 -12.950  0.00  0.00    +0.048 A 
ATOM     17  C   UNL     1     -41.455 -38.041 -13.307  0.00  0.00    +0.129 A 
ATOM     35  C   UNL     1     -42.468 -38.977 -13.133  0.00  0.00    +0.057 A 
ATOM     36  C   UNL     1     -42.059 -42.335 -11.813  0.00  0.00    +0.106 A 
ENDROOT
BRANCH   3   2
ATOM      1  N   UNL     1     -45.481 -41.644 -12.699  0.00  0.00    -0.191 NA
ATOM      2  C   UNL     1     -44.347 -41.563 -12.523  0.00  0.00    +0.101 C 
ENDBRANCH   3   2
BRANCH   6   7
ATOM      7  C   UNL     1     -39.621 -42.549 -11.286  0.00  0.00    +0.162 C 
BRANCH   7   8
ATOM      8  C   UNL     1     -38.562 -42.758 -12.324  0.00  0.00    +0.037 A 
ATOM      9  C   UNL     1     -37.170 -42.378 -12.198  0.00  0.00    +0.086 A 
ATOM     10  C   UNL     1     -36.529 -41.786 -11.196  0.00  0.00    +0.069 C 
ATOM     11  N   UNL     1     -36.558 -42.755 -13.371  0.00  0.00    -0.083 NA
ATOM     12  O   UNL     1     -37.534 -43.365 -14.237  0.00  0.00    -0.359 OA
ATOM     13  C   UNL     1     -38.691 -43.326 -13.541  0.00  0.00    +0.139 A 
ATOM     14  C   UNL     1     -39.835 -43.920 -14.281  0.00  0.00    +0.089 C 
ENDBRANCH   7   8
ENDBRANCH   6   7
BRANCH  17  18
ATOM     18  O   UNL     1     -41.795 -36.798 -13.807  0.00  0.00    -0.456 OA
BRANCH  18  19
ATOM     19  C   UNL     1     -41.443 -36.427 -15.116  0.00  0.00    +0.129 A 
ATOM     20  C   UNL     1     -40.994 -37.341 -16.086  0.00  0.00    +0.048 A 
ATOM     21  C   UNL     1     -40.672 -36.865 -17.346  0.00  0.00    +0.027 A 
ATOM     22  C   UNL     1     -40.785 -35.516 -17.670  0.00  0.00    +0.034 A 
ATOM     33  C   UNL     1     -41.230 -34.621 -16.706  0.00  0.00    +0.027 A 
ATOM     34  C   UNL     1     -41.556 -35.070 -15.437  0.00  0.00    +0.048 A 
BRANCH  22  23
ATOM     23  N   UNL     1     -40.471 -34.959 -18.956  0.00  0.00    -0.284 N 
ATOM     24  H   UNL     1     -40.612 -33.902 -19.045  0.00  0.00    +0.155 HD
ATOM     25  C   UNL     1     -40.019 -35.585 -20.078  0.00  0.00    +0.234 C 
ATOM     32  O   UNL     1     -39.810 -36.788 -20.132  0.00  0.00    -0.274 OA
BRANCH  25  26
ATOM     26  C   UNL     1     -39.771 -34.693 -21.315  0.00  0.00    +0.141 C 
ATOM     27  C   UNL     1     -41.085 -34.371 -22.041  0.00  0.00    +0.029 C 
ATOM     28  C   UNL     1     -40.924 -34.813 -23.482  0.00  0.00    +0.017 C 
ATOM     29  C   UNL     1     -39.420 -34.921 -23.661  0.00  0.00    +0.081 C 
ATOM     30  N   UNL     1     -38.923 -35.327 -22.339  0.00  0.00    -0.306 NA
ATOM     31  H   UNL     1     -38.975 -36.392 -22.244  0.00  0.00    +0.123 HD
ENDBRANCH  25  26
ENDBRANCH  22  23
ENDBRANCH  18  19
ENDBRANCH  17  18
TORSDOF 7
