REMARK  Name = EAQ
REMARK  3 active torsions:
REMARK  status: ('A' for Active; 'I' for Inactive)
REMARK    1  A    between atoms: C11_3  and  C4_17
REMARK    2  A    between atoms: C12_4  and  C13_5
REMARK    3  A    between atoms: C17_7  and  C20_10
REMARK                            x       y       z     vdW  Elec       q    Type
REMARK                         _______ _______ _______ _____ _____    ______ ____
ROOT
ATOM      1  C   UNL     1      -4.719  11.797  36.214  0.00  0.00    +0.329 C 
ATOM      2  N   UNL     1      -5.065  12.970  36.480  0.00  0.00    +0.004 NA
ATOM      3  C   UNL     1      -6.487  13.055  36.422  0.00  0.00    +0.397 C 
ATOM      4  N   UNL     1      -7.141  14.218  36.631  0.00  0.00    +0.036 NA
ATOM      5  C   UNL     1      -8.468  14.405  36.496  0.00  0.00    +0.377 C 
ATOM     16  O   UNL     1      -9.210  13.494  36.189  0.00  0.00    -0.238 OA
ATOM     17  C   UNL     1      -6.855  11.785  36.076  0.00  0.00    +0.330 C 
ATOM     18  C   UNL     1      -3.357  11.273  36.167  0.00  0.00    +0.069 C 
ATOM     19  C   UNL     1      -3.226   9.991  35.823  0.00  0.00    +0.064 C 
ATOM     20  C   UNL     1      -4.421   9.166  35.519  0.00  0.00    +0.026 C 
ATOM     21  C   UNL     1      -5.644   9.757  35.632  0.00  0.00    +0.172 C 
ATOM     27  N   UNL     1      -5.756  11.036  35.986  0.00  0.00    -0.156 N 
ENDROOT
BRANCH   5   6
ATOM      6  C   UNL     1      -9.082  15.771  36.680  0.00  0.00    +0.101 A 
ATOM      7  C   UNL     1      -8.520  16.725  37.542  0.00  0.00    +0.010 A 
ATOM      8  C   UNL     1      -9.117  17.992  37.656  0.00  0.00    +0.015 A 
ATOM      9  C   UNL     1     -10.260  18.293  36.893  0.00  0.00    +0.058 A 
ATOM     14  N   UNL     1     -10.763  17.349  36.060  0.00  0.00    -0.248 NA
ATOM     15  C   UNL     1     -10.213  16.129  35.930  0.00  0.00    +0.105 A 
BRANCH   9  10
ATOM     10  C   UNL     1     -10.990  19.657  36.947  0.00  0.00    +0.035 C 
ATOM     11  C   UNL     1     -10.476  20.528  38.131  0.00  0.00    +0.006 C 
ATOM     12  C   UNL     1     -12.514  19.412  37.158  0.00  0.00    +0.006 C 
ATOM     13  C   UNL     1     -10.801  20.407  35.598  0.00  0.00    +0.006 C 
ENDBRANCH   9  10
ENDBRANCH   5   6
BRANCH  20  22
ATOM     22  C   UNL     1      -4.220   7.759  35.063  0.00  0.00    +0.042 A 
ATOM     23  C   UNL     1      -5.190   6.655  34.988  0.00  0.00    +0.124 A 
ATOM     24  N   UNL     1      -4.563   5.655  34.493  0.00  0.00    -0.146 NA
ATOM     25  N   UNL     1      -3.286   5.974  34.234  0.00  0.00    -0.146 NA
ATOM     26  C   UNL     1      -3.078   7.224  34.576  0.00  0.00    +0.124 A 
ENDBRANCH  20  22
TORSDOF 3
