REMARK  Name = 3jvr_ligand
REMARK  5 active torsions:
REMARK  status: ('A' for Active; 'I' for Inactive)
REMARK    1  A    between atoms: O_3  and  C7_15
REMARK    2  A    between atoms: O_3  and  C8_16
REMARK    3  A    between atoms: N2_10  and  C9_17
REMARK    4  A    between atoms: C6_14  and  C7_15
REMARK    5  A    between atoms: C7_15  and  C15_23
REMARK                            x       y       z     vdW  Elec       q    Type
REMARK                         _______ _______ _______ _____ _____    ______ ____
ROOT
ATOM     10  O   UNL     1      29.634  -4.319  18.349  0.00  0.00    -0.233 OA
ENDROOT
BRANCH  10  11
ATOM     11  C   UNL     1      29.818  -4.562  19.669  0.00  0.00    +0.354 C 
ATOM     12  N   UNL     1      28.694  -4.219  20.280  0.00  0.00    -0.208 N 
ATOM     13  H   UNL     1      27.870  -4.093  19.727  0.00  0.00    +0.228 HD
ATOM     22  O   UNL     1      30.878  -5.037  20.035  0.00  0.00    -0.367 OA
BRANCH  12  14
ATOM     14  C   UNL     1      28.606  -4.025  21.660  0.00  0.00    +0.069 A 
ATOM     15  C   UNL     1      27.300  -3.697  22.118  0.00  0.00    +0.024 A 
ATOM     16  C   UNL     1      27.046  -3.484  23.510  0.00  0.00    +0.041 A 
ATOM     17  C   UNL     1      28.127  -3.596  24.461  0.00  0.00    +0.038 A 
ATOM     18  C   UNL     1      29.440  -3.923  23.998  0.00  0.00    -0.003 A 
ATOM     19 CL   UNL     1      27.889  -3.352  26.157  0.00  0.00    -0.084 Cl
ATOM     20 CL   UNL     1      25.430  -3.104  24.008  0.00  0.00    -0.074 Cl
ATOM     21  C   UNL     1      29.681  -4.138  22.614  0.00  0.00    +0.010 A 
ENDBRANCH  12  14
ENDBRANCH  10  11
BRANCH  10   8
ATOM      8  C   UNL     1      30.680  -4.618  17.371  0.00  0.00    +0.259 C 
ATOM      9  C   UNL     1      29.787  -4.602  16.204  0.00  0.00    +0.071 C 
BRANCH   8   7
ATOM      1  C   UNL     1      33.502  -0.457  17.245  0.00  0.00    +0.012 A 
ATOM      2  C   UNL     1      32.991  -1.793  17.330  0.00  0.00    +0.078 A 
ATOM      3  C   UNL     1      33.851  -2.876  17.526  0.00  0.00    +0.021 A 
ATOM      4  C   UNL     1      35.268  -2.693  17.652  0.00  0.00    -0.012 A 
ATOM      5  C   UNL     1      35.810  -1.365  17.570  0.00  0.00    -0.027 A 
ATOM      6  N   UNL     1      33.095  -4.019  17.565  0.00  0.00    -0.316 NA
ATOM      7  C   UNL     1      31.817  -3.612  17.391  0.00  0.00    +0.155 A 
ATOM     23  N   UNL     1      31.696  -2.263  17.244  0.00  0.00    -0.244 N 
ATOM     24  H   UNL     1      30.834  -1.718  17.101  0.00  0.00    +0.232 HD
ATOM     25  C   UNL     1      34.924  -0.248  17.368  0.00  0.00    -0.024 A 
ENDBRANCH   8   7
ENDBRANCH  10   8
TORSDOF 4
