REMARK  Name = 3ow4_ligand
REMARK  6 active torsions:
REMARK  status: ('A' for Active; 'I' for Inactive)
REMARK    1  A    between atoms: C6_6  and  N11_11
REMARK    2  A    between atoms: C9_9  and  C10_10
REMARK    3  A    between atoms: C17_17  and  C19_19
REMARK    4  A    between atoms: C19_19  and  C20_20
REMARK    5  A    between atoms: C19_19  and  N30_30
REMARK    6  A    between atoms: C20_20  and  C21_21
REMARK                            x       y       z     vdW  Elec       q    Type
REMARK                         _______ _______ _______ _____ _____    ______ ____
ROOT
ATOM      3  N   UNL     1      13.459  -2.233  16.113  0.00  0.00    -0.288 N 
ATOM      4  C   UNL     1      12.348  -3.177  15.928  0.00  0.00    +0.159 C 
ATOM      5  C   UNL     1      10.978  -2.550  16.219  0.00  0.00    +0.163 C 
ATOM      6  N   UNL     1      10.952  -1.813  17.496  0.00  0.00    -0.265 N 
ATOM      7  C   UNL     1       9.798  -1.683  18.193  0.00  0.00    +0.228 C 
ATOM     24  O   UNL     1       8.855  -2.476  18.059  0.00  0.00    -0.391 OA
ATOM     25  C   UNL     1      12.020  -0.808  17.636  0.00  0.00    +0.163 C 
ATOM     26  C   UNL     1      13.348  -1.535  17.415  0.00  0.00    +0.159 C 
ENDROOT
BRANCH   3   2
ATOM      1  N   UNL     1      14.875  -3.917  15.365  0.00  0.00    -0.268 NA
ATOM      2  C   UNL     1      14.731  -2.627  15.710  0.00  0.00    +0.127 A 
ATOM     27  C   UNL     1      15.865  -1.768  15.705  0.00  0.00    +0.041 A 
ATOM     28  C   UNL     1      15.853  -0.292  16.054  0.00  0.00    +0.098 C 
ATOM     29  C   UNL     1      14.914   0.489  15.130  0.00  0.00    +0.034 C 
ATOM     30  S   UNL     1      17.530   0.282  15.626  0.00  0.00    -0.129 S 
ATOM     31  C   UNL     1      18.272  -1.347  15.317  0.00  0.00    +0.159 C 
ATOM     32  C   UNL     1      17.105  -2.299  15.321  0.00  0.00    +0.043 A 
ATOM     33  N   UNL     1      17.219  -3.585  14.967  0.00  0.00    -0.291 NA
ATOM     34  C   UNL     1      16.103  -4.325  15.006  0.00  0.00    +0.156 A 
ENDBRANCH   3   2
BRANCH   7   8
ATOM      8  C   UNL     1       9.858  -1.000  19.532  0.00  0.00    +0.180 C 
BRANCH   8   9
ATOM      9  N   UNL     1       9.497  -2.029  20.545  0.00  0.00    +0.239 N 
ATOM     10  H   UNL     1      10.163  -2.800  20.497  0.00  0.00    +0.202 HD
ATOM     11  H   UNL     1       8.558  -2.378  20.354  0.00  0.00    +0.202 HD
ATOM     12  H   UNL     1       9.524  -1.612  21.476  0.00  0.00    +0.202 HD
ENDBRANCH   8   9
BRANCH   8  13
ATOM     13  C   UNL     1       8.997   0.274  19.609  0.00  0.00    +0.111 C 
BRANCH  13  14
ATOM     14  C   UNL     1       9.335   1.475  18.734  0.00  0.00    -0.039 A 
ATOM     15  C   UNL     1       8.923   1.766  17.370  0.00  0.00    -0.021 A 
ATOM     16  C   UNL     1       8.125   0.992  16.497  0.00  0.00    -0.021 A 
ATOM     17  C   UNL     1       7.870   1.497  15.204  0.00  0.00    -0.028 A 
ATOM     18  C   UNL     1       8.409   2.749  14.806  0.00  0.00    -0.024 A 
ATOM     19  C   UNL     1       9.210   3.518  15.687  0.00  0.00    +0.010 A 
ATOM     20  C   UNL     1       9.453   3.001  16.981  0.00  0.00    +0.060 A 
ATOM     21  N   UNL     1      10.178   3.536  18.007  0.00  0.00    -0.289 N 
ATOM     22  H   UNL     1      10.680   4.424  18.018  0.00  0.00    +0.222 HD
ATOM     23  C   UNL     1      10.079   2.585  19.055  0.00  0.00    +0.096 A 
ENDBRANCH  13  14
ENDBRANCH   8  13
ENDBRANCH   7   8
TORSDOF 5
