REMARK  Name = 3m1s_ligand
REMARK  2 active torsions:
REMARK  status: ('A' for Active; 'I' for Inactive)
REMARK    1  A    between atoms: C10_2  and  RU_31
REMARK    2  A    between atoms: C25_16  and  O15_19
REMARK                            x       y       z     vdW  Elec       q    Type
REMARK                         _______ _______ _______ _____ _____    ______ ____
ROOT
ATOM      3 RU   UNL     1      45.065  80.550  31.732  0.00  0.00    +8.000 Ru
ATOM      4  N   UNL     1      43.974  80.657  33.555  0.00  0.00    -0.162 N 
ATOM      5  C   UNL     1      44.158  79.479  34.220  0.00  0.00    +0.086 A 
ATOM      6  C   UNL     1      44.897  78.432  33.726  0.00  0.00    +0.015 A 
ATOM      7  C   UNL     1      45.037  77.271  34.446  0.00  0.00    -0.050 A 
ATOM      8  C   UNL     1      44.389  77.257  35.688  0.00  0.00    +0.003 A 
ATOM      9  C   UNL     1      44.306  76.295  36.682  0.00  0.00    +0.180 A 
ATOM     10  O   UNL     1      44.827  75.217  36.650  0.00  0.00    -0.409 OA
ATOM     11  N   UNL     1      43.552  76.667  37.771  0.00  0.00    -0.219 N 
ATOM     12  H   UNL     1      43.346  76.131  38.614  0.00  0.00    +0.218 HD
ATOM     13  C   UNL     1      43.142  77.946  37.443  0.00  0.00    +0.193 A 
ATOM     14  O   UNL     1      42.431  78.629  38.174  0.00  0.00    -0.397 OA
ATOM     15  C   UNL     1      43.634  78.343  36.186  0.00  0.00    +0.005 A 
ATOM     16  C   UNL     1      45.808  76.246  33.881  0.00  0.00    -0.066 A 
ATOM     17  C   UNL     1      46.395  76.415  32.629  0.00  0.00    -0.047 A 
ATOM     18  C   UNL     1      46.192  77.625  31.959  0.00  0.00    -0.012 A 
ATOM     19  C   UNL     1      43.509  79.503  35.423  0.00  0.00    -0.024 A 
ATOM     20  C   UNL     1      42.898  80.751  35.515  0.00  0.00    -0.018 A 
ATOM     21  C   UNL     1      42.126  81.329  36.525  0.00  0.00    +0.005 A 
ATOM     22  C   UNL     1      41.642  82.618  36.309  0.00  0.00    +0.073 A 
ATOM     25  C   UNL     1      41.978  83.283  35.123  0.00  0.00    +0.007 A 
ATOM     26  C   UNL     1      42.761  82.715  34.117  0.00  0.00    +0.005 A 
ATOM     27  C   UNL     1      43.204  81.450  34.342  0.00  0.00    +0.083 A 
ATOM     28  N   UNL     1      45.450  78.591  32.509  0.00  0.00    -0.371 N 
ATOM     29  C   UNL     1      46.253  82.400  32.071  0.00  0.00    -0.476 C 
ATOM     30  C   UNL     1      47.140  81.319  31.973  0.00  0.00    -0.791 C 
ATOM     31  C   UNL     1      46.999  80.723  30.711  0.00  0.00    -0.971 C 
ATOM     32  C   UNL     1      46.024  81.443  30.016  0.00  0.00    -0.971 C 
ATOM     33  C   UNL     1      45.552  82.475  30.859  0.00  0.00    -0.791 C 
ENDROOT
BRANCH   3   2
ATOM      1  O   UNL     1      42.672  79.684  30.173  0.00  0.00    -0.715 OA
ATOM      2  C   UNL     1      43.601  80.009  30.756  0.00  0.00    -0.285 C 
ENDBRANCH   3   2
BRANCH  22  23
ATOM     23  O   UNL     1      40.855  83.201  37.258  0.00  0.00    -0.342 OA
ATOM     24  H   UNL     1      40.738  82.594  37.992  0.00  0.00    +0.244 HD
ENDBRANCH  22  23
TORSDOF 2
