REMARK  Name = ACK
REMARK  2 active torsions:
REMARK  status: ('A' for Active; 'I' for Inactive)
REMARK    1  A    between atoms: C4'_7  and  C5'_9
REMARK    2  A    between atoms: C1'_11  and  N9_12
REMARK                            x       y       z     vdW  Elec       q    Type
REMARK                         _______ _______ _______ _____ _____    ______ ____
ROOT
ATOM      1  O   UNL     1       8.120   8.326  -1.931  0.00  0.00    -0.437 OA
ATOM      2  P   UNL     1       7.439   7.283  -2.739  0.00  0.00    +0.214 P 
ATOM      3  O   UNL     1       7.696   5.765  -2.205  0.00  0.00    -0.309 OA
ATOM      4  C   UNL     1       8.364   4.925  -3.120  0.00  0.00    +0.201 C 
ATOM      5  C   UNL     1       7.324   4.067  -3.830  0.00  0.00    +0.238 C 
ATOM     16  O   UNL     1       7.771   3.910  -5.169  0.00  0.00    -0.331 OA
ATOM     17  C   UNL     1       8.579   5.052  -5.528  0.00  0.00    +0.180 C 
ATOM     20  C   UNL     1       8.862   5.828  -4.242  0.00  0.00    +0.183 C 
ATOM     21  O   UNL     1       5.929   7.357  -2.895  0.00  0.00    -0.517 OA
ATOM     22  O   UNL     1       8.142   7.069  -4.160  0.00  0.00    -0.311 OA
ENDROOT
BRANCH   5   6
ATOM      6  N   UNL     1       7.091   2.739  -3.219  0.00  0.00    -0.269 N 
ATOM      7  C   UNL     1       5.991   2.448  -2.549  0.00  0.00    +0.169 A 
ATOM      8  C   UNL     1       6.161   1.041  -2.170  0.00  0.00    +0.152 A 
ATOM      9  C   UNL     1       5.105   0.427  -1.384  0.00  0.00    +0.192 A 
ATOM     10  N   UNL     1       5.267  -0.865  -0.985  0.00  0.00    -0.105 NA
ATOM     11  N   UNL     1       4.056   1.207  -1.056  0.00  0.00    -0.204 NA
ATOM     12  C   UNL     1       3.942   2.506  -1.433  0.00  0.00    +0.202 A 
ATOM     13  N   UNL     1       7.340   0.609  -2.645  0.00  0.00    -0.219 NA
ATOM     14  N   UNL     1       4.865   3.145  -2.171  0.00  0.00    -0.205 NA
ATOM     15  C   UNL     1       7.904   1.662  -3.279  0.00  0.00    +0.182 A 
ENDBRANCH   5   6
BRANCH  17  18
ATOM     18  C   UNL     1       9.884   4.586  -6.196  0.00  0.00    +0.214 C 
ATOM     19  O   UNL     1      10.592   3.707  -5.329  0.00  0.00    -0.218 OA
ENDBRANCH  17  18
TORSDOF 2
