REMARK  Name = 5EQE
REMARK  5 active torsions:
REMARK  status: ('A' for Active; 'I' for Inactive)
REMARK    1  A    between atoms: C_2  and  N_3
REMARK    2  A    between atoms: N_5  and  C_9
REMARK    3  A    between atoms: C_9  and  C_10
REMARK    4  A    between atoms: C_13  and  C_16
REMARK    5  A    between atoms: C_16  and  N_17
REMARK                            x       y       z     vdW  Elec       q    Type
REMARK                         _______ _______ _______ _____ _____    ______ ____
ROOT
ATOM      5  C   UNL     1      17.261  77.312  59.244  0.00  0.00    -0.033 A 
ATOM      6  C   UNL     1      15.858  77.376  58.942  0.00  0.00    +0.005 A 
ATOM      7  C   UNL     1      15.413  77.794  57.669  0.00  0.00    +0.005 A 
ATOM      8  C   UNL     1      16.351  78.166  56.664  0.00  0.00    -0.034 A 
ATOM     13  C   UNL     1      17.753  78.107  56.958  0.00  0.00    +0.005 A 
ATOM     14  C   UNL     1      18.198  77.689  58.234  0.00  0.00    +0.005 A 
ENDROOT
BRANCH   5   4
ATOM      4  C   UNL     1      17.752  76.859  60.624  0.00  0.00    +0.119 C 
BRANCH   4   3
ATOM      1  C   UNL     1      17.216  72.934  60.259  0.00  0.00    +0.099 C 
ATOM      2  C   UNL     1      17.465  74.412  59.842  0.00  0.00    +0.100 C 
ATOM      3  N   UNL     1      17.835  75.391  60.923  0.00  0.00    -0.297 NA
ATOM     15  C   UNL     1      17.439  75.022  62.302  0.00  0.00    +0.086 C 
ATOM     16  C   UNL     1      18.469  74.101  62.950  0.00  0.00    +0.031 C 
ATOM     17  C   UNL     1      18.285  72.628  62.542  0.00  0.00    +0.085 C 
ATOM     18  N   UNL     1      18.297  72.326  61.075  0.00  0.00    -0.304 NA
ATOM     19  C   UNL     1      19.605  72.164  60.419  0.00  0.00    +0.105 C 
ENDBRANCH   4   3
ENDBRANCH   5   4
BRANCH   8   9
ATOM      9  C   UNL     1      15.863  78.611  55.303  0.00  0.00    +0.113 C 
BRANCH   9  10
ATOM     10  N   UNL     1      16.091  80.043  55.066  0.00  0.00    -0.326 NA
ATOM     11  H   UNL     1      15.571  80.615  55.806  0.00  0.00    +0.118 HD
ATOM     12  H   UNL     1      17.139  80.252  55.125  0.00  0.00    +0.118 HD
ENDBRANCH   9  10
ENDBRANCH   8   9
TORSDOF 4
