REMARK  Name = 5BX6
REMARK  0 active torsions:
REMARK  status: ('A' for Active; 'I' for Inactive)
REMARK                            x       y       z     vdW  Elec       q    Type
REMARK                         _______ _______ _______ _____ _____    ______ ____
ROOT
ATOM      1 CL   UNL     1       6.080  10.013   0.143  0.00  0.00    -0.059 Cl
ATOM      2  C   UNL     1       5.178   9.992   1.596  0.00  0.00    +0.157 C 
ATOM      3  C   UNL     1       5.839  10.026   2.821  0.00  0.00    +0.026 A 
ATOM      4  C   UNL     1       7.235  10.072   2.883  0.00  0.00    +0.012 A 
ATOM      5  C   UNL     1       7.881  10.104   4.118  0.00  0.00    +0.001 A 
ATOM      6  C   UNL     1       7.132  10.096   5.290  0.00  0.00    +0.001 A 
ATOM      7  C   UNL     1       5.732  10.050   5.229  0.00  0.00    +0.014 A 
ATOM      8  C   UNL     1       5.086  10.013   3.994  0.00  0.00    +0.051 A 
ATOM      9  C   UNL     1       3.690   9.969   3.896  0.00  0.00    +0.273 C 
ATOM     10  O   UNL     1       2.967   9.958   4.899  0.00  0.00    -0.266 OA
ATOM     11  N   UNL     1       3.111   9.924   2.623  0.00  0.00    -0.241 N 
ATOM     12  H   UNL     1       2.046   9.870   2.536  0.00  0.00    +0.192 HD
ATOM     13  N   UNL     1       3.832   9.946   1.548  0.00  0.00    -0.159 NA
ENDROOT
TORSDOF 0
