REMARK  Name = 8FU
REMARK  1 active torsions:
REMARK  status: ('A' for Active; 'I' for Inactive)
REMARK    1  A    between atoms: C2_6  and  CAS_15
REMARK                            x       y       z     vdW  Elec       q    Type
REMARK                         _______ _______ _______ _____ _____    ______ ____
ROOT
ATOM      1  C   UNL     1      -6.972 -12.207  18.959  0.00  0.00    +0.157 A 
ATOM      2  N   UNL     1      -7.738 -11.769  20.065  0.00  0.00    -0.174 NA
ATOM      3  C   UNL     1      -7.612 -10.454  20.626  0.00  0.00    +0.176 A 
ATOM      4  N   UNL     1      -8.234 -10.140  21.796  0.00  0.00    -0.131 NA
ATOM      5  N   UNL     1      -7.954  -8.820  22.087  0.00  0.00    -0.151 NA
ATOM      6  C   UNL     1      -7.147  -8.304  21.086  0.00  0.00    +0.084 A 
ATOM      7  C   UNL     1      -6.627  -6.858  21.070  0.00  0.00    +0.054 C 
ATOM      8  C   UNL     1      -6.919  -9.307  20.164  0.00  0.00    +0.054 A 
ATOM      9  C   UNL     1      -7.029 -13.603  18.549  0.00  0.00    +0.052 A 
ATOM     10  C   UNL     1      -7.833 -14.456  19.229  0.00  0.00    +0.016 A 
ATOM     11  C   UNL     1      -7.872 -15.883  18.770  0.00  0.00    +0.058 A 
ATOM     12 CL   UNL     1      -8.877 -16.997  19.625  0.00  0.00    -0.082 Cl
ATOM     13  C   UNL     1      -7.165 -16.311  17.749  0.00  0.00    +0.013 A 
ATOM     14  C   UNL     1      -6.288 -15.364  16.996  0.00  0.00    +0.020 A 
ATOM     15  C   UNL     1      -6.257 -14.059  17.411  0.00  0.00    +0.086 A 
ATOM     16  N   UNL     1      -5.445 -13.166  16.723  0.00  0.00    -0.223 NA
ATOM     17  C   UNL     1      -5.415 -11.865  17.146  0.00  0.00    +0.218 A 
ATOM     27  N   UNL     1      -6.211 -11.373  18.299  0.00  0.00    -0.206 NA
ENDROOT
BRANCH  17  18
ATOM     18  C   UNL     1      -4.533 -10.853  16.457  0.00  0.00    +0.285 C 
ATOM     19  O   UNL     1      -3.328 -10.935  16.597  0.00  0.00    -0.267 OA
ATOM     20  N   UNL     1      -5.125  -9.790  15.699  0.00  0.00    -0.271 N 
ATOM     21  C   UNL     1      -6.563  -9.686  15.552  0.00  0.00    +0.113 C 
ATOM     22  C   UNL     1      -6.970  -8.228  15.541  0.00  0.00    +0.110 C 
ATOM     23  N   UNL     1      -6.125  -7.484  14.654  0.00  0.00    -0.216 NA
ATOM     24  C   UNL     1      -4.785  -7.431  15.157  0.00  0.00    +0.093 C 
ATOM     25  C   UNL     1      -3.940  -6.548  14.303  0.00  0.00    +0.021 C 
ATOM     26  C   UNL     1      -4.203  -8.847  15.091  0.00  0.00    +0.111 C 
ENDBRANCH  17  18
TORSDOF 1
