REMARK  Name = 2yfx_ligand
REMARK  6 active torsions:
REMARK  status: ('A' for Active; 'I' for Inactive)
REMARK    1  A    between atoms: C17_7  and  C21_10
REMARK    2  A    between atoms: C21_10  and  C1_11
REMARK    3  A    between atoms: C21_10  and  O27_12
REMARK    4  A    between atoms: O27_12  and  C15_13
REMARK    5  A    between atoms: C14_19  and  C16_20
REMARK    6  A    between atoms: N26_23  and  C20_25
REMARK                            x       y       z     vdW  Elec       q    Type
REMARK                         _______ _______ _______ _____ _____    ______ ____
ROOT
ATOM      6  C   UNL     1      30.075  44.298   9.031  0.00  0.00    +0.136 A 
ATOM      7  C   UNL     1      29.021  44.025   9.964  0.00  0.00    +0.137 A 
ATOM      8  N   UNL     1      27.964  44.848  10.184  0.00  0.00    -0.301 NA
ATOM      9  C   UNL     1      27.892  46.012   9.479  0.00  0.00    +0.048 A 
ATOM     10  C   UNL     1      28.871  46.416   8.518  0.00  0.00    -0.031 A 
ATOM     24  N   UNL     1      29.060  42.827  10.707  0.00  0.00    -0.327 N 
ATOM     25  H   UNL     1      29.837  42.164  10.575  0.00  0.00    +0.173 HD
ATOM     26  H   UNL     1      28.311  42.615  11.382  0.00  0.00    +0.173 HD
ATOM     27  C   UNL     1      29.967  45.533   8.304  0.00  0.00    +0.032 A 
ENDROOT
BRANCH  10  11
ATOM     11  C   UNL     1      28.763  47.718   7.745  0.00  0.00    -0.003 A 
ATOM     12  C   UNL     1      27.627  48.495   7.557  0.00  0.00    +0.164 A 
ATOM     13  N   UNL     1      28.076  49.574   6.772  0.00  0.00    -0.201 N 
ATOM     22  N   UNL     1      29.334  49.494   6.499  0.00  0.00    -0.214 NA
ATOM     23  C   UNL     1      29.828  48.430   7.031  0.00  0.00    +0.072 A 
BRANCH  13  14
ATOM     14  C   UNL     1      27.235  50.696   6.291  0.00  0.00    +0.161 C 
ATOM     15  C   UNL     1      25.941  50.167   5.624  0.00  0.00    +0.090 C 
ATOM     16  C   UNL     1      25.088  51.361   5.138  0.00  0.00    +0.132 C 
ATOM     17  N   UNL     1      24.788  52.320   6.239  0.00  0.00    +0.227 N 
ATOM     18  H   UNL     1      24.200  51.860   6.916  0.00  0.00    +0.201 HD
ATOM     19  H   UNL     1      24.299  53.112   5.852  0.00  0.00    +0.201 HD
ATOM     20  C   UNL     1      26.017  52.809   6.929  0.00  0.00    +0.132 C 
ATOM     21  C   UNL     1      26.894  51.649   7.455  0.00  0.00    +0.090 C 
ENDBRANCH  13  14
ENDBRANCH  10  11
BRANCH   6   5
ATOM      5  O   UNL     1      31.097  43.355   8.878  0.00  0.00    -0.301 OA
BRANCH   5   4
ATOM      4  C   UNL     1      32.385  43.580   8.202  0.00  0.00    +0.193 C 
ATOM     28  C   UNL     1      33.100  42.219   8.198  0.00  0.00    +0.060 C 
BRANCH   4   3
ATOM      1 CL   UNL     1      33.207  46.107   6.444  0.00  0.00    -0.081 Cl
ATOM      2  C   UNL     1      33.697  45.839   8.091  0.00  0.00    +0.040 A 
ATOM      3  C   UNL     1      33.298  44.672   8.863  0.00  0.00    +0.016 A 
ATOM     29  C   UNL     1      33.780  44.563  10.249  0.00  0.00    +0.077 A 
ATOM     30 CL   UNL     1      33.379  43.219  11.297  0.00  0.00    -0.079 Cl
ATOM     31  C   UNL     1      34.621  45.589  10.803  0.00  0.00    +0.140 A 
ATOM     32  F   UNL     1      35.076  45.508  12.065  0.00  0.00    -0.184 F 
ATOM     33  C   UNL     1      34.987  46.712  10.014  0.00  0.00    +0.021 A 
ATOM     34  C   UNL     1      34.530  46.834   8.678  0.00  0.00    +0.004 A 
ENDBRANCH   4   3
ENDBRANCH   5   4
ENDBRANCH   6   5
TORSDOF 5
