REMARK  Name = 2cn8_ligand
REMARK  1 active torsions:
REMARK  status: ('A' for Active; 'I' for Inactive)
REMARK    1  A    between atoms: C11_14  and  N5_15
REMARK                            x       y       z     vdW  Elec       q    Type
REMARK                         _______ _______ _______ _____ _____    ______ ____
ROOT
ATOM      1  O   UNL     1     -13.757  47.153  10.576  0.00  0.00    -0.363 OA
ATOM      2  C   UNL     1     -13.722  46.687   9.463  0.00  0.00    +0.267 C 
ATOM      3  C   UNL     1     -12.365  46.579   8.935  0.00  0.00    +0.206 A 
ATOM      4  C   UNL     1     -11.994  46.259   7.690  0.00  0.00    +0.072 A 
ATOM      5  C   UNL     1     -12.870  45.775   6.652  0.00  0.00    +0.090 C 
ATOM      6  C   UNL     1     -12.345  44.710   5.766  0.00  0.00    +0.230 C 
ATOM      7  C   UNL     1     -13.126  44.176   4.664  0.00  0.00    +0.284 C 
ATOM      8  O   UNL     1     -14.313  44.598   4.459  0.00  0.00    -0.353 OA
ATOM      9  N   UNL     1     -12.459  43.238   3.979  0.00  0.00    -0.246 N 
ATOM     10  H   UNL     1     -12.748  42.704   3.184  0.00  0.00    +0.182 HD
ATOM     11  C   UNL     1     -11.307  43.210   4.645  0.00  0.00    +0.193 C 
ATOM     15  N   UNL     1     -11.151  44.054   5.693  0.00  0.00    -0.229 N 
ATOM     16  H   UNL     1     -10.323  44.173   6.295  0.00  0.00    +0.238 HD
ATOM     17  C   UNL     1     -14.264  46.326   6.450  0.00  0.00    +0.148 C 
ATOM     18  C   UNL     1     -15.145  45.788   7.556  0.00  0.00    +0.160 C 
ATOM     19  C   UNL     1     -10.527  46.448   7.451  0.00  0.00    +0.011 A 
ATOM     20  C   UNL     1     -10.104  46.913   8.840  0.00  0.00    +0.159 A 
ATOM     21  N   UNL     1     -11.306  46.850   9.690  0.00  0.00    -0.232 N 
ATOM     22  H   UNL     1     -11.323  46.994  10.710  0.00  0.00    +0.256 HD
ATOM     23  N   UNL     1     -14.875  46.352   8.853  0.00  0.00    -0.275 N 
ATOM     24  H   UNL     1     -15.693  46.527   9.401  0.00  0.00    +0.185 HD
ENDROOT
BRANCH  11  12
ATOM     12  N   UNL     1     -10.307  42.374   4.286  0.00  0.00    -0.335 NA
ATOM     13  H   UNL     1      -9.420  42.377   4.810  0.00  0.00    +0.176 HD
ATOM     14  H   UNL     1     -10.432  41.735   3.488  0.00  0.00    +0.176 HD
ENDBRANCH  11  12
TORSDOF 1
