REMARK  Name = 3QQH
REMARK  3 active torsions:
REMARK  status: ('A' for Active; 'I' for Inactive)
REMARK    1  A    between atoms: N_5  and  C_15
REMARK    2  A    between atoms: C_9  and  O_21
REMARK    3  A    between atoms: C_10  and  C_12
REMARK                            x       y       z     vdW  Elec       q    Type
REMARK                         _______ _______ _______ _____ _____    ______ ____
ROOT
ATOM      1  N   UNL     1      62.812  80.611 -48.379  0.00  0.00    -0.195 NA
ATOM      2  C   UNL     1      61.951  80.852 -47.378  0.00  0.00    +0.217 A 
ATOM      3  N   UNL     1      60.942  81.557 -47.662  0.00  0.00    -0.327 N 
ATOM      4  H   UNL     1      60.219  81.784 -46.907  0.00  0.00    +0.145 HD
ATOM      5  H   UNL     1      60.811  81.927 -48.657  0.00  0.00    +0.145 HD
ATOM      6  N   UNL     1      62.059  80.413 -46.112  0.00  0.00    -0.181 NA
ATOM      7  C   UNL     1      63.156  79.664 -45.876  0.00  0.00    +0.224 A 
ATOM      8  N   UNL     1      63.276  79.237 -44.648  0.00  0.00    -0.283 N 
ATOM      9  H   UNL     1      62.557  79.610 -43.949  0.00  0.00    +0.155 HD
ATOM     16  N   UNL     1      64.105  79.347 -46.801  0.00  0.00    -0.194 NA
ATOM     17  C   UNL     1      63.879  79.852 -48.040  0.00  0.00    +0.170 A 
ENDROOT
BRANCH  17  18
ATOM     18  C   UNL     1      64.795  79.555 -49.035  0.00  0.00    +0.062 A 
ATOM     19  C   UNL     1      65.883  78.667 -48.754  0.00  0.00    +0.035 A 
ATOM     20  C   UNL     1      66.826  78.336 -49.763  0.00  0.00    +0.042 A 
ATOM     21 CL   UNL     1      68.124  77.267 -49.404  0.00  0.00    -0.084 Cl
ATOM     22  C   UNL     1      66.703  78.880 -51.067  0.00  0.00    +0.023 A 
ATOM     23  C   UNL     1      65.632  79.764 -51.372  0.00  0.00    +0.047 A 
ATOM     24  C   UNL     1      64.676  80.109 -50.372  0.00  0.00    +0.128 A 
BRANCH  24  25
ATOM     25  O   UNL     1      63.660  80.954 -50.696  0.00  0.00    -0.506 OA
ATOM     26  H   UNL     1      64.056  81.874 -51.010  0.00  0.00    +0.292 HD
ENDBRANCH  24  25
ENDBRANCH  17  18
BRANCH   8  10
ATOM     10  C   UNL     1      64.163  78.413 -44.170  0.00  0.00    +0.034 A 
ATOM     11  C   UNL     1      63.723  77.376 -43.303  0.00  0.00    +0.023 A 
ATOM     12  C   UNL     1      64.653  76.461 -42.744  0.00  0.00    +0.002 A 
ATOM     13  C   UNL     1      66.036  76.572 -43.048  0.00  0.00    +0.000 A 
ATOM     14  C   UNL     1      66.492  77.601 -43.912  0.00  0.00    +0.002 A 
ATOM     15  C   UNL     1      65.563  78.522 -44.471  0.00  0.00    +0.023 A 
ENDBRANCH   8  10
TORSDOF 3
