REMARK  Name = 4O33
REMARK  6 active torsions:
REMARK  status: ('A' for Active; 'I' for Inactive)
REMARK    1  A    between atoms: C_5  and  C_6
REMARK    2  A    between atoms: C_19  and  O_20
REMARK    3  A    between atoms: O_20  and  C_21
REMARK    4  A    between atoms: C_22  and  O_23
REMARK    5  A    between atoms: O_23  and  C_24
REMARK    6  A    between atoms: C_27  and  N_28
REMARK                            x       y       z     vdW  Elec       q    Type
REMARK                         _______ _______ _______ _____ _____    ______ ____
ROOT
ATOM      3  C   UNL     1      20.191   3.737  19.803  0.00  0.00    +0.245 C 
ATOM      4  N   UNL     1      19.136   4.601  19.273  0.00  0.00    -0.296 N 
ATOM      5  C   UNL     1      19.140   5.195  17.976  0.00  0.00    +0.127 C 
ATOM      6  C   UNL     1      19.040   6.678  18.112  0.00  0.00    +0.127 C 
ATOM      7  N   UNL     1      17.844   6.984  18.805  0.00  0.00    -0.297 N 
ATOM      8  C   UNL     1      17.233   8.241  18.674  0.00  0.00    +0.220 A 
ATOM      9  N   UNL     1      17.582   9.046  17.776  0.00  0.00    -0.214 NA
ATOM     10  C   UNL     1      17.018  10.220  17.641  0.00  0.00    +0.082 A 
ATOM     11  C   UNL     1      15.948  10.488  18.530  0.00  0.00    +0.044 A 
ATOM     12  C   UNL     1      15.631   9.493  19.489  0.00  0.00    +0.129 A 
ATOM     16  C   UNL     1      15.272  11.662  18.465  0.00  0.00    +0.063 A 
ATOM     17  C   UNL     1      15.651  12.578  17.527  0.00  0.00    +0.162 A 
ATOM     20  C   UNL     1      16.710  12.334  16.657  0.00  0.00    +0.164 A 
ATOM     23  C   UNL     1      17.396  11.121  16.674  0.00  0.00    +0.078 A 
ATOM     24  N   UNL     1      16.318   8.413  19.501  0.00  0.00    -0.199 NA
ATOM     25  C   UNL     1      17.367   6.210  19.854  0.00  0.00    +0.127 C 
ATOM     26  C   UNL     1      18.033   4.823  20.093  0.00  0.00    +0.127 C 
ATOM     27  O   UNL     1      20.107   3.235  20.877  0.00  0.00    -0.273 OA
ENDROOT
BRANCH   3   2
ATOM      1  C   UNL     1      22.435   2.693  19.839  0.00  0.00    +0.043 C 
ATOM      2  C   UNL     1      21.395   3.386  19.043  0.00  0.00    +0.204 C 
ATOM     28  O   UNL     1      21.080   2.424  18.127  0.00  0.00    -0.367 OA
ATOM     29  C   UNL     1      20.716   1.369  18.985  0.00  0.00    +0.161 C 
ATOM     30  C   UNL     1      21.799   1.370  20.071  0.00  0.00    +0.031 C 
ENDBRANCH   3   2
BRANCH  12  13
ATOM     13  N   UNL     1      14.606   9.637  20.415  0.00  0.00    -0.343 N 
ATOM     14  H   UNL     1      14.789   9.608  21.298  0.00  0.00    +0.144 HD
ATOM     15  H   UNL     1      13.744   9.762  20.130  0.00  0.00    +0.144 HD
ENDBRANCH  12  13
BRANCH  17  18
ATOM     18  O   UNL     1      15.051  13.783  17.365  0.00  0.00    -0.491 OA
ATOM     19  C   UNL     1      13.937  14.023  18.123  0.00  0.00    +0.277 C 
ENDBRANCH  17  18
BRANCH  20  21
ATOM     21  O   UNL     1      16.944  13.378  15.780  0.00  0.00    -0.491 OA
ATOM     22  C   UNL     1      18.132  13.404  15.110  0.00  0.00    +0.277 C 
ENDBRANCH  20  21
TORSDOF 4
