REMARK  Name = 3D7T
REMARK  5 active torsions:
REMARK  status: ('A' for Active; 'I' for Inactive)
REMARK    1  A    between atoms: C_4  and  N_34
REMARK    2  A    between atoms: C_5  and  O_32
REMARK    3  A    between atoms: C_6  and  C_7
REMARK    4  A    between atoms: O_32  and  C_33
REMARK    5  A    between atoms: N_34  and  C_35
REMARK                            x       y       z     vdW  Elec       q    Type
REMARK                         _______ _______ _______ _____ _____    ______ ____
ROOT
ATOM      1  O   UNL     1     -66.338  43.888 -19.992  0.00  0.00    -0.328 OA
ATOM      2  C   UNL     1     -67.448  43.295 -19.387  0.00  0.00    +0.174 C 
ATOM      3  N   UNL     1     -67.139  42.532 -18.173  0.00  0.00    -0.307 N 
ATOM      4  C   UNL     1     -67.952  42.339 -17.067  0.00  0.00    +0.053 A 
ATOM      5  C   UNL     1     -69.243  42.789 -16.775  0.00  0.00    +0.026 A 
ATOM      6  C   UNL     1     -69.797  42.423 -15.561  0.00  0.00    +0.002 A 
ATOM      7  C   UNL     1     -69.116  41.635 -14.655  0.00  0.00    +0.001 A 
ATOM      8  C   UNL     1     -67.840  41.171 -14.912  0.00  0.00    +0.010 A 
ATOM      9  C   UNL     1     -67.267  41.532 -16.128  0.00  0.00    +0.008 A 
ATOM     10  C   UNL     1     -65.960  41.219 -16.707  0.00  0.00    +0.015 A 
ATOM     11  C   UNL     1     -64.859  40.481 -16.276  0.00  0.00    -0.008 A 
ATOM     12  C   UNL     1     -64.589  39.702 -15.010  0.00  0.00    +0.141 C 
ATOM     13  N   UNL     1     -63.242  39.144 -15.155  0.00  0.00    -0.307 N 
ATOM     14  H   UNL     1     -62.740  38.534 -14.433  0.00  0.00    +0.149 HD
ATOM     15  C   UNL     1     -62.739  39.523 -16.344  0.00  0.00    +0.245 C 
ATOM     16  O   UNL     1     -61.629  39.212 -16.748  0.00  0.00    -0.270 OA
ATOM     17  C   UNL     1     -63.720  40.359 -17.074  0.00  0.00    +0.052 A 
ATOM     18  C   UNL     1     -63.694  41.002 -18.345  0.00  0.00    +0.022 A 
ATOM     19  C   UNL     1     -62.716  41.101 -19.428  0.00  0.00    +0.009 A 
ATOM     20  C   UNL     1     -61.429  40.572 -19.572  0.00  0.00    +0.010 A 
ATOM     21  C   UNL     1     -60.756  40.863 -20.750  0.00  0.00    +0.001 A 
ATOM     22  C   UNL     1     -61.329  41.643 -21.741  0.00  0.00    +0.002 A 
ATOM     23  C   UNL     1     -62.603  42.177 -21.617  0.00  0.00    +0.026 A 
ATOM     24  C   UNL     1     -63.304  41.898 -20.442  0.00  0.00    +0.052 A 
ATOM     25  N   UNL     1     -64.574  42.268 -19.997  0.00  0.00    -0.312 N 
ATOM     26  C   UNL     1     -64.804  41.744 -18.774  0.00  0.00    +0.077 A 
ATOM     27  C   UNL     1     -65.938  41.857 -17.961  0.00  0.00    +0.077 A 
ATOM     28  C   UNL     1     -68.287  44.507 -18.973  0.00  0.00    +0.069 C 
ATOM     29  C   UNL     1     -68.364  42.500 -20.319  0.00  0.00    +0.187 C 
ATOM     32  C   UNL     1     -67.780  42.309 -21.751  0.00  0.00    +0.091 C 
ATOM     36  C   UNL     1     -66.237  42.203 -21.778  0.00  0.00    +0.076 C 
ATOM     37  C   UNL     1     -65.508  43.084 -20.770  0.00  0.00    +0.224 C 
ENDROOT
BRANCH  32  33
ATOM     33  N   UNL     1     -68.377  41.127 -22.413  0.00  0.00    -0.314 NA
ATOM     34  H   UNL     1     -68.684  40.418 -21.673  0.00  0.00    +0.122 HD
ATOM     35  C   UNL     1     -69.543  41.556 -23.197  0.00  0.00    +0.101 C 
ENDBRANCH  32  33
BRANCH  29  30
ATOM     30  O   UNL     1     -68.829  41.299 -19.655  0.00  0.00    -0.374 OA
ATOM     31  C   UNL     1     -67.978  40.172 -19.874  0.00  0.00    +0.194 C 
ENDBRANCH  29  30
TORSDOF 2
