REMARK  Name = 5BVN
REMARK  6 active torsions:
REMARK  status: ('A' for Active; 'I' for Inactive)
REMARK    1  A    between atoms: C_1  and  C_2
REMARK    2  A    between atoms: C_4  and  C_5
REMARK    3  A    between atoms: C_5  and  N_21
REMARK    4  A    between atoms: C_8  and  N_22
REMARK    5  A    between atoms: C_13  and  N_26
REMARK    6  A    between atoms: C_14  and  C_15
REMARK                            x       y       z     vdW  Elec       q    Type
REMARK                         _______ _______ _______ _____ _____    ______ ____
ROOT
ATOM      1  C   UNL     1      22.722  41.192  38.299  0.00  0.00    +0.045 C 
ATOM      2  C   UNL     1      22.704  39.689  38.185  0.00  0.00    -0.029 A 
ATOM      3  C   UNL     1      21.629  39.000  37.620  0.00  0.00    +0.037 A 
ATOM     17  C   UNL     1      21.665  37.613  37.545  0.00  0.00    +0.028 A 
ATOM     18  C   UNL     1      22.749  36.887  38.021  0.00  0.00    -0.029 A 
ATOM     19  C   UNL     1      23.810  37.577  38.583  0.00  0.00    +0.005 A 
ATOM     34  C   UNL     1      23.793  38.959  38.657  0.00  0.00    +0.005 A 
ENDROOT
BRANCH   3   4
ATOM      4  N   UNL     1      20.500  39.700  37.139  0.00  0.00    -0.280 N 
ATOM      5  H   UNL     1      20.645  40.289  36.516  0.00  0.00    +0.155 HD
ATOM      6  C   UNL     1      19.218  39.483  37.542  0.00  0.00    +0.267 C 
ATOM      7  O   UNL     1      18.956  38.774  38.514  0.00  0.00    -0.268 OA
BRANCH   6   8
ATOM      8  C   UNL     1      18.143  40.133  36.764  0.00  0.00    +0.129 A 
ATOM      9  N   UNL     1      16.796  40.122  37.137  0.00  0.00    -0.295 N 
ATOM     10  C   UNL     1      16.131  39.586  38.220  0.00  0.00    +0.093 A 
ATOM     11  C   UNL     1      14.782  39.711  38.336  0.00  0.00    +0.018 A 
ATOM     12  C   UNL     1      14.062  40.381  37.364  0.00  0.00    +0.005 A 
ATOM     13  C   UNL     1      14.713  40.945  36.277  0.00  0.00    +0.047 A 
ATOM     14  C   UNL     1      16.106  40.796  36.129  0.00  0.00    +0.138 A 
ATOM     15  N   UNL     1      16.947  41.214  35.179  0.00  0.00    -0.235 NA
ATOM     16  C   UNL     1      18.197  40.796  35.565  0.00  0.00    +0.144 A 
ENDBRANCH   6   8
ENDBRANCH   3   4
BRANCH  18  20
ATOM     20  C   UNL     1      22.756  35.379  37.941  0.00  0.00    +0.141 C 
BRANCH  20  21
ATOM     21  N   UNL     1      23.970  34.836  37.357  0.00  0.00    -0.295 N 
ATOM     22  H   UNL     1      24.742  35.086  37.699  0.00  0.00    +0.151 HD
ATOM     23  C   UNL     1      23.964  34.083  36.239  0.00  0.00    +0.304 C 
ATOM     24  N   UNL     1      25.137  33.413  35.988  0.00  0.00    -0.269 N 
ATOM     25  H   UNL     1      25.764  33.470  36.597  0.00  0.00    +0.156 HD
ATOM     33  O   UNL     1      22.987  34.010  35.502  0.00  0.00    -0.253 OA
BRANCH  24  26
ATOM     26  C   UNL     1      25.343  32.425  35.002  0.00  0.00    +0.037 A 
ATOM     27  C   UNL     1      24.603  32.398  33.824  0.00  0.00    +0.061 A 
ATOM     28  C   UNL     1      24.837  31.405  32.919  0.00  0.00    +0.125 A 
ATOM     29  F   UNL     1      24.115  31.391  31.764  0.00  0.00    -0.205 F 
ATOM     30  C   UNL     1      25.780  30.440  33.114  0.00  0.00    +0.038 A 
ATOM     31  C   UNL     1      26.518  30.454  34.283  0.00  0.00    +0.005 A 
ATOM     32  C   UNL     1      26.294  31.438  35.232  0.00  0.00    +0.023 A 
ENDBRANCH  24  26
ENDBRANCH  20  21
ENDBRANCH  18  20
TORSDOF 5
