REMARK  Name = 5I9Y
REMARK  16 active torsions:
REMARK  status: ('A' for Active; 'I' for Inactive)
REMARK    1  A    between atoms: C_2  and  C_3
REMARK    2  A    between atoms: N_4  and  C_16
REMARK    3  A    between atoms: C_7  and  C_8
REMARK    4  A    between atoms: C_9  and  N_18
REMARK    5  A    between atoms: C_12  and  C_13
REMARK    6  A    between atoms: C_16  and  C_17
REMARK    7  A    between atoms: C_17  and  O_33
REMARK    8  A    between atoms: N_22  and  C_23
REMARK    9  A    between atoms: C_35  and  C_36
REMARK   10  A    between atoms: N_37  and  C_49
REMARK   11  A    between atoms: C_40  and  C_41
REMARK   12  A    between atoms: C_42  and  N_51
REMARK   13  A    between atoms: C_45  and  C_46
REMARK   14  A    between atoms: C_49  and  C_50
REMARK   15  A    between atoms: C_50  and  O_66
REMARK   16  A    between atoms: N_55  and  C_56
REMARK                            x       y       z     vdW  Elec       q    Type
REMARK                         _______ _______ _______ _____ _____    ______ ____
ROOT
ATOM      1  C   UNL     1     -70.676 -13.975  44.614  0.00  0.00    +0.133 A 
ATOM      2  N   UNL     1     -69.729 -13.455  43.783  0.00  0.00    -0.232 NA
ATOM      3  C   UNL     1     -68.478 -13.477  44.268  0.00  0.00    +0.164 A 
ATOM      4  S   UNL     1     -68.530 -14.164  45.834  0.00  0.00    -0.048 S 
ATOM      5  N   UNL     1     -67.414 -13.009  43.576  0.00  0.00    -0.279 N 
ATOM      6  H   UNL     1     -67.571 -12.635  42.586  0.00  0.00    +0.156 HD
ATOM     24  C   UNL     1     -70.218 -14.421  45.800  0.00  0.00    +0.095 A 
ENDROOT
BRANCH   5   7
ATOM      7  C   UNL     1     -66.168 -12.994  44.079  0.00  0.00    +0.130 A 
ATOM      8  N   UNL     1     -65.932 -13.273  45.366  0.00  0.00    -0.217 NA
ATOM      9  C   UNL     1     -64.712 -13.263  45.898  0.00  0.00    +0.130 A 
ATOM     10  N   UNL     1     -63.657 -12.963  45.136  0.00  0.00    -0.218 NA
ATOM     11  C   UNL     1     -63.811 -12.672  43.838  0.00  0.00    +0.127 A 
ATOM     12  N   UNL     1     -62.699 -12.374  43.153  0.00  0.00    -0.313 N 
ATOM     13  C   UNL     1     -61.389 -12.638  43.785  0.00  0.00    +0.122 C 
ATOM     14  C   UNL     1     -60.424 -11.501  43.547  0.00  0.00    +0.103 C 
ATOM     15  N   UNL     1     -60.366 -11.106  42.134  0.00  0.00    -0.297 NA
ATOM     16  C   UNL     1     -61.701 -10.672  41.682  0.00  0.00    +0.103 C 
ATOM     21  C   UNL     1     -62.742 -11.784  41.805  0.00  0.00    +0.122 C 
ATOM     22  C   UNL     1     -64.542 -13.565  47.249  0.00  0.00    +0.088 C 
ATOM     23  C   UNL     1     -65.080 -12.678  43.261  0.00  0.00    +0.087 A 
BRANCH  15  17
ATOM     17  C   UNL     1     -59.428  -9.977  42.011  0.00  0.00    +0.112 C 
BRANCH  17  18
ATOM     18  C   UNL     1     -58.006 -10.383  42.415  0.00  0.00    +0.171 C 
BRANCH  18  19
ATOM     19  O   UNL     1     -57.705  -9.882  43.723  0.00  0.00    -0.394 OA
ATOM     20  H   UNL     1     -57.777  -8.835  43.722  0.00  0.00    +0.209 HD
ENDBRANCH  18  19
ENDBRANCH  17  18
ENDBRANCH  15  17
ENDBRANCH   5   7
BRANCH  24  25
ATOM     25  C   UNL     1     -70.900 -15.002  46.829  0.00  0.00    +0.257 C 
ATOM     26  O   UNL     1     -70.311 -15.203  47.887  0.00  0.00    -0.269 OA
ATOM     27  N   UNL     1     -72.185 -15.410  46.633  0.00  0.00    -0.280 N 
ATOM     28  H   UNL     1     -72.665 -15.226  45.694  0.00  0.00    +0.155 HD
BRANCH  27  29
ATOM     29  C   UNL     1     -72.866 -16.054  47.631  0.00  0.00    +0.055 A 
ATOM     30  C   UNL     1     -73.438 -15.344  48.691  0.00  0.00    +0.062 A 
ATOM     31 CL   UNL     1     -73.296 -13.660  48.820  0.00  0.00    -0.082 Cl
ATOM     32  C   UNL     1     -74.143 -16.027  49.683  0.00  0.00    +0.022 A 
ATOM     33  C   UNL     1     -74.284 -17.408  49.615  0.00  0.00    +0.002 A 
ATOM     34  C   UNL     1     -73.722 -18.112  48.556  0.00  0.00    +0.005 A 
ATOM     35  C   UNL     1     -73.015 -17.443  47.559  0.00  0.00    -0.028 A 
ATOM     36  C   UNL     1     -72.470 -18.172  46.505  0.00  0.00    +0.045 C 
ENDBRANCH  27  29
ENDBRANCH  24  25
TORSDOF 6
