REMARK  Name = 5A6N
REMARK  3 active torsions:
REMARK  status: ('A' for Active; 'I' for Inactive)
REMARK    1  A    between atoms: S_2  and  N_4
REMARK    2  A    between atoms: S_2  and  C_5
REMARK    3  A    between atoms: C_9  and  C_11
REMARK                            x       y       z     vdW  Elec       q    Type
REMARK                         _______ _______ _______ _____ _____    ______ ____
ROOT
ATOM      3  C   UNL     1       7.916 114.250 101.883  0.00  0.00    +0.106 A 
ATOM      4  C   UNL     1       9.199 114.711 102.167  0.00  0.00    +0.040 A 
ATOM      5  C   UNL     1       9.432 115.662 103.159  0.00  0.00    +0.022 A 
ATOM     12  C   UNL     1       8.346 116.153 103.886  0.00  0.00    +0.012 A 
ATOM     13  C   UNL     1       7.056 115.693 103.613  0.00  0.00    +0.003 A 
ATOM     14  C   UNL     1       6.838 114.745 102.604  0.00  0.00    +0.028 A 
ENDROOT
BRANCH   5   6
ATOM      6  C   UNL     1      10.840 116.110 103.402  0.00  0.00    +0.179 A 
ATOM      7  N   UNL     1      11.057 117.007 104.379  0.00  0.00    -0.239 N 
ATOM      8  H   UNL     1      10.291 117.439 104.989  0.00  0.00    +0.192 HD
ATOM      9  N   UNL     1      12.425 117.299 104.490  0.00  0.00    -0.046 NA
ATOM     10  N   UNL     1      13.020 116.519 103.502  0.00  0.00    -0.023 NA
ATOM     11  N   UNL     1      12.005 115.806 102.807  0.00  0.00    -0.108 NA
ENDBRANCH   5   6
BRANCH   3   2
ATOM      1  O   UNL     1       6.365 112.695 100.762  0.00  0.00    -0.153 OA
ATOM      2  S   UNL     1       7.725 113.157 100.724  0.00  0.00    +0.056 S 
ATOM     18  O   UNL     1       8.614 112.036 100.943  0.00  0.00    -0.153 OA
BRANCH   2  15
ATOM     15  N   UNL     1       8.065 113.823  99.320  0.00  0.00    -0.203 NA
ATOM     16  H   UNL     1       7.927 113.103  98.540  0.00  0.00    +0.144 HD
ATOM     17  H   UNL     1       7.416 114.657  99.154  0.00  0.00    +0.144 HD
ENDBRANCH   2  15
ENDBRANCH   3   2
TORSDOF 3
