REMARK  Name = 5E1E
REMARK  8 active torsions:
REMARK  status: ('A' for Active; 'I' for Inactive)
REMARK    1  A    between atoms: C_1  and  O_14
REMARK    2  A    between atoms: C_2  and  O_14
REMARK    3  A    between atoms: C_4  and  O_18
REMARK    4  A    between atoms: C_5  and  O_18
REMARK    5  A    between atoms: C_6  and  C_16
REMARK    6  A    between atoms: C_10  and  N_26
REMARK    7  A    between atoms: C_10  and  C_27
REMARK    8  A    between atoms: C_22  and  N_26
REMARK                            x       y       z     vdW  Elec       q    Type
REMARK                         _______ _______ _______ _____ _____    ______ ____
ROOT
ATOM      9  C   UNL     1     -17.845 -20.332  15.232  0.00  0.00    +0.144 A 
ATOM     10  N   UNL     1     -17.042 -20.843  16.155  0.00  0.00    -0.335 N 
ATOM     11  H   UNL     1     -17.203 -20.880  17.212  0.00  0.00    +0.168 HD
ATOM     12  C   UNL     1     -15.951 -21.318  15.453  0.00  0.00    +0.108 A 
ATOM     13  C   UNL     1     -14.774 -21.967  15.860  0.00  0.00    +0.074 A 
ATOM     24  C   UNL     1     -13.871 -22.335  14.861  0.00  0.00    +0.082 A 
ATOM     25 CL   UNL     1     -12.403 -23.155  15.295  0.00  0.00    -0.080 Cl
ATOM     26  C   UNL     1     -14.139 -22.053  13.531  0.00  0.00    +0.135 A 
ATOM     27  N   UNL     1     -15.253 -21.428  13.127  0.00  0.00    -0.233 NA
ATOM     28  C   UNL     1     -16.115 -21.085  14.097  0.00  0.00    +0.180 A 
ATOM     29  N   UNL     1     -17.332 -20.448  13.970  0.00  0.00    -0.208 NA
ENDROOT
BRANCH   9   5
ATOM      3  C   UNL     1     -20.731 -19.122  17.311  0.00  0.00    +0.162 A 
ATOM      4  C   UNL     1     -19.521 -19.688  16.936  0.00  0.00    +0.063 A 
ATOM      5  C   UNL     1     -19.129 -19.717  15.597  0.00  0.00    +0.056 A 
ATOM      6  C   UNL     1     -19.989 -19.152  14.665  0.00  0.00    +0.138 A 
ATOM      7  F   UNL     1     -19.624 -19.155  13.368  0.00  0.00    -0.205 F 
ATOM      8  C   UNL     1     -21.194 -18.580  14.997  0.00  0.00    +0.088 A 
ATOM     30  C   UNL     1     -21.578 -18.561  16.330  0.00  0.00    +0.164 A 
BRANCH   3   2
ATOM      1  C   UNL     1     -20.862 -20.142  19.479  0.00  0.00    +0.277 C 
ATOM      2  O   UNL     1     -21.199 -19.064  18.597  0.00  0.00    -0.491 OA
ENDBRANCH   3   2
BRANCH  30  31
ATOM     31  O   UNL     1     -22.748 -18.032  16.805  0.00  0.00    -0.491 OA
ATOM     32  C   UNL     1     -23.746 -17.653  15.854  0.00  0.00    +0.277 C 
ENDBRANCH  30  31
ENDBRANCH   9   5
BRANCH  13  14
ATOM     14  N   UNL     1     -14.501 -22.219  17.221  0.00  0.00    -0.341 N 
ATOM     15  H   UNL     1     -13.592 -22.723  17.474  0.00  0.00    +0.146 HD
BRANCH  14  16
ATOM     16  C   UNL     1     -15.398 -21.826  18.294  0.00  0.00    +0.105 C 
BRANCH  16  17
ATOM     17  C   UNL     1     -15.832 -22.848  19.314  0.00  0.00    +0.009 C 
ATOM     18  C   UNL     1     -15.891 -24.220  18.659  0.00  0.00    +0.020 C 
ATOM     19  C   UNL     1     -16.435 -25.193  19.667  0.00  0.00    +0.081 C 
ATOM     20  N   UNL     1     -17.759 -24.820  20.206  0.00  0.00    -0.316 NA
ATOM     21  H   UNL     1     -17.999 -25.486  21.009  0.00  0.00    +0.122 HD
ATOM     22  C   UNL     1     -17.812 -23.437  20.713  0.00  0.00    +0.081 C 
ATOM     23  C   UNL     1     -17.234 -22.430  19.749  0.00  0.00    +0.020 C 
ENDBRANCH  16  17
ENDBRANCH  14  16
ENDBRANCH  13  14
TORSDOF 6
