REMARK  Name = 4lmu_ligand
REMARK  5 active torsions:
REMARK  status: ('A' for Active; 'I' for Inactive)
REMARK    1  A    between atoms: C2_2  and  O30_22
REMARK    2  A    between atoms: C6_6  and  O29_21
REMARK    3  A    between atoms: C10_8  and  O27_20
REMARK    4  A    between atoms: C11_9  and  C14_10
REMARK    5  A    between atoms: C17_13  and  O24_19
REMARK                            x       y       z     vdW  Elec       q    Type
REMARK                         _______ _______ _______ _____ _____    ______ ____
ROOT
ATOM      1  C   UNL     1     169.715-122.821   0.666  0.00  0.00    +0.030 A 
ATOM      2  C   UNL     1     169.272-121.599   1.290  0.00  0.00    +0.076 A 
ATOM      5  C   UNL     1     168.908-120.505   0.437  0.00  0.00    +0.034 A 
ATOM      6  C   UNL     1     168.981-120.607  -1.010  0.00  0.00    +0.120 A 
ATOM      7  O   UNL     1     168.627-119.545  -1.888  0.00  0.00    -0.259 OA
ATOM      8  C   UNL     1     168.824-119.505  -3.293  0.00  0.00    +0.163 A 
ATOM     18  C   UNL     1     169.092-120.694  -3.986  0.00  0.00    +0.169 A 
ATOM     21  C   UNL     1     169.477-121.833  -3.102  0.00  0.00    +0.151 A 
ATOM     22  O   UNL     1     169.913-122.883  -3.650  0.00  0.00    -0.411 OA
ATOM     23  C   UNL     1     169.416-121.806  -1.603  0.00  0.00    +0.082 A 
ATOM     24  C   UNL     1     169.783-122.909  -0.742  0.00  0.00    +0.093 A 
ENDROOT
BRANCH   8   9
ATOM      9  C   UNL     1     168.506-118.154  -4.006  0.00  0.00    +0.008 C 
ATOM     10  C   UNL     1     167.903-117.061  -3.309  0.00  0.00    +0.188 C 
ATOM     11  C   UNL     1     167.584-115.794  -3.880  0.00  0.00    +0.159 C 
ATOM     12  O   UNL     1     167.026-114.830  -3.198  0.00  0.00    -0.394 OA
ATOM     13  C   UNL     1     167.912-115.634  -5.256  0.00  0.00    +0.138 C 
ATOM     16  C   UNL     1     168.516-116.689  -5.974  0.00  0.00    +0.011 C 
ATOM     17  C   UNL     1     168.818-117.945  -5.363  0.00  0.00    -0.026 C 
BRANCH  13  14
ATOM     14  O   UNL     1     167.652-114.456  -5.920  0.00  0.00    -0.327 OA
ATOM     15  H   UNL     1     167.937-114.533  -6.823  0.00  0.00    +0.251 HD
ENDBRANCH  13  14
ENDBRANCH   8   9
BRANCH   2   3
ATOM      3  O   UNL     1     169.204-121.507   2.673  0.00  0.00    -0.335 OA
ATOM      4  H   UNL     1     169.484-122.329   3.058  0.00  0.00    +0.249 HD
ENDBRANCH   2   3
BRANCH  18  19
ATOM     19  O   UNL     1     169.300-120.729  -5.340  0.00  0.00    -0.333 OA
ATOM     20  H   UNL     1     169.464-121.625  -5.611  0.00  0.00    +0.247 HD
ENDBRANCH  18  19
BRANCH  24  25
ATOM     25  O   UNL     1     170.202-124.042  -1.419  0.00  0.00    -0.333 OA
ATOM     26  H   UNL     1     170.965-123.832  -1.944  0.00  0.00    +0.250 HD
ENDBRANCH  24  25
TORSDOF 5
