REMARK  Name = 2hog_ligand
REMARK  6 active torsions:
REMARK  status: ('A' for Active; 'I' for Inactive)
REMARK    1  A    between atoms: C1_2  and  C24_26
REMARK    2  A    between atoms: C7_9  and  C8_10
REMARK    3  A    between atoms: C15_17  and  C17_19
REMARK    4  A    between atoms: C17_19  and  N18_20
REMARK    5  A    between atoms: C25_27  and  C29_31
REMARK    6  A    between atoms: C29_31  and  O_32
REMARK                            x       y       z     vdW  Elec       q    Type
REMARK                         _______ _______ _______ _____ _____    ______ ____
ROOT
ATOM      1  C   UNL     1      14.159  -2.678  11.896  0.00  0.00    -0.007 A 
ATOM      2  C   UNL     1      15.363  -2.350  11.217  0.00  0.00    +0.005 A 
ATOM      3  C   UNL     1      15.406  -1.185  10.374  0.00  0.00    +0.026 A 
ATOM      4  C   UNL     1      16.362  -0.508   9.557  0.00  0.00    +0.152 A 
ATOM     23  N   UNL     1      15.842   0.577   8.969  0.00  0.00    -0.238 N 
ATOM     24  H   UNL     1      16.313   1.237   8.334  0.00  0.00    +0.283 HD
ATOM     25  N   UNL     1      14.573   0.611   9.393  0.00  0.00    -0.308 NA
ATOM     26  C   UNL     1      14.237  -0.408  10.240  0.00  0.00    -0.006 A 
ATOM     27  C   UNL     1      13.020  -0.714  10.904  0.00  0.00    -0.001 A 
ATOM     28  C   UNL     1      12.989  -1.878  11.757  0.00  0.00    -0.026 A 
ENDROOT
BRANCH   4   5
ATOM      5  C   UNL     1      17.776  -0.861   9.319  0.00  0.00    +0.105 A 
ATOM      6  C   UNL     1      18.415  -2.018   9.713  0.00  0.00    -0.008 A 
ATOM      7  C   UNL     1      19.748  -1.953   9.284  0.00  0.00    -0.025 A 
ATOM      8  C   UNL     1      20.865  -2.834   9.385  0.00  0.00    -0.020 A 
ATOM      9  C   UNL     1      22.115  -2.455   8.812  0.00  0.00    -0.014 A 
ATOM     18  C   UNL     1      22.237  -1.202   8.148  0.00  0.00    -0.016 A 
ATOM     19  C   UNL     1      21.136  -0.310   8.040  0.00  0.00    +0.007 A 
ATOM     20  C   UNL     1      19.902  -0.721   8.615  0.00  0.00    +0.060 A 
ATOM     21  N   UNL     1      18.686  -0.087   8.661  0.00  0.00    -0.275 N 
ATOM     22  H   UNL     1      18.489   0.840   8.257  0.00  0.00    +0.219 HD
BRANCH   9  10
ATOM     10  C   UNL     1      23.287  -3.399   8.885  0.00  0.00    +0.188 C 
BRANCH  10  11
ATOM     11  N   UNL     1      23.625  -4.083   7.529  0.00  0.00    +0.246 N 
ATOM     12  H   UNL     1      24.003  -3.379   6.914  0.00  0.00    +0.205 HD
ATOM     13  C   UNL     1      22.362  -4.678   6.849  0.00  0.00    +0.132 C 
ATOM     14  C   UNL     1      22.720  -5.341   5.514  0.00  0.00    +0.051 C 
ATOM     15  C   UNL     1      23.788  -6.416   5.699  0.00  0.00    +0.010 C 
ATOM     16  C   UNL     1      25.037  -5.846   6.384  0.00  0.00    +0.051 C 
ATOM     17  C   UNL     1      24.691  -5.164   7.726  0.00  0.00    +0.132 C 
ENDBRANCH  10  11
ENDBRANCH   9  10
ENDBRANCH   4   5
BRANCH  28  29
ATOM     29  C   UNL     1      11.768  -2.243  12.499  0.00  0.00    +0.072 A 
ATOM     30  N   UNL     1      11.506  -3.523  12.797  0.00  0.00    -0.228 NA
ATOM     31  N   UNL     1      10.351  -3.431  13.457  0.00  0.00    -0.105 NA
ATOM     32  N   UNL     1       9.806  -2.231  13.637  0.00  0.00    -0.175 N 
ATOM     33  H   UNL     1       8.930  -1.980  14.117  0.00  0.00    +0.268 HD
ATOM     34  C   UNL     1      10.695  -1.437  13.031  0.00  0.00    +0.131 A 
BRANCH  34  35
ATOM     35  C   UNL     1      10.463   0.035  13.003  0.00  0.00    +0.272 C 
BRANCH  35  36
ATOM     36  O   UNL     1       9.880   0.514  14.208  0.00  0.00    -0.377 OA
ATOM     37  H   UNL     1       9.751   1.453  14.145  0.00  0.00    +0.214 HD
ENDBRANCH  35  36
ENDBRANCH  34  35
ENDBRANCH  28  29
TORSDOF 6
