REMARK  Name = 2e9n_ligand
REMARK  6 active torsions:
REMARK  status: ('A' for Active; 'I' for Inactive)
REMARK    1  A    between atoms: O1_1  and  C5_5
REMARK    2  A    between atoms: C2_2  and  C11_11
REMARK    3  A    between atoms: C8_8  and  C14_14
REMARK    4  A    between atoms: C24_24  and  C26_26
REMARK    5  A    between atoms: N27_27  and  C29_29
REMARK    6  A    between atoms: C32_32  and  O35_35
REMARK                            x       y       z     vdW  Elec       q    Type
REMARK                         _______ _______ _______ _____ _____    ______ ____
ROOT
ATOM     11  C   UNL     1      -4.420   9.853 -19.124  0.00  0.00    +0.049 A 
ATOM     12  C   UNL     1      -3.112   9.362 -18.824  0.00  0.00    +0.001 A 
ATOM     13  C   UNL     1      -2.350   8.585 -17.941  0.00  0.00    +0.124 C 
ATOM     14  C   UNL     1      -0.994   8.603 -18.389  0.00  0.00    -0.023 A 
ATOM     15  C   UNL     1       0.217   7.975 -17.848  0.00  0.00    +0.020 A 
ATOM     16  C   UNL     1       1.553   8.149 -18.511  0.00  0.00    +0.041 A 
ATOM     29  C   UNL     1       1.612   8.995 -19.776  0.00  0.00    +0.009 A 
ATOM     30  C   UNL     1       0.357   9.633 -20.326  0.00  0.00    +0.002 A 
ATOM     31  C   UNL     1      -0.927   9.435 -19.631  0.00  0.00    +0.007 A 
ATOM     32  C   UNL     1      -2.231   9.861 -19.850  0.00  0.00    +0.087 A 
ATOM     33  N   UNL     1      -2.963  10.628 -20.723  0.00  0.00    -0.222 N 
ATOM     34  H   UNL     1      -2.617  11.127 -21.555  0.00  0.00    +0.250 HD
ATOM     35  N   UNL     1      -4.242  10.591 -20.258  0.00  0.00    -0.212 NA
ENDROOT
BRANCH  11  10
ATOM      7  C   UNL     1      -8.298   9.416 -16.802  0.00  0.00    -0.026 A 
ATOM      8  C   UNL     1      -7.855  10.672 -17.456  0.00  0.00    +0.003 A 
ATOM      9  C   UNL     1      -6.618  10.776 -18.189  0.00  0.00    +0.004 A 
ATOM     10  C   UNL     1      -5.714   9.614 -18.331  0.00  0.00    -0.015 A 
ATOM     36  C   UNL     1      -6.118   8.306 -17.685  0.00  0.00    +0.004 A 
ATOM     37  C   UNL     1      -7.394   8.222 -16.935  0.00  0.00    +0.003 A 
BRANCH   7   6
ATOM      3  C   UNL     1     -12.286   9.456 -14.548  0.00  0.00    +0.089 A 
ATOM      4  C   UNL     1     -11.641  10.710 -14.942  0.00  0.00    +0.023 A 
ATOM      5  C   UNL     1     -10.366  10.688 -15.660  0.00  0.00    -0.002 A 
ATOM      6  C   UNL     1      -9.658   9.395 -16.027  0.00  0.00    -0.029 A 
ATOM     38  C   UNL     1     -10.336   8.126 -15.612  0.00  0.00    -0.002 A 
ATOM     39  C   UNL     1     -11.625   8.158 -14.887  0.00  0.00    +0.023 A 
BRANCH   3   1
ATOM      1  O   UNL     1     -13.496   9.490 -13.867  0.00  0.00    -0.332 OA
ATOM      2  H   UNL     1     -13.762  10.393 -13.741  0.00  0.00    +0.249 HD
ENDBRANCH   3   1
ENDBRANCH   7   6
ENDBRANCH  11  10
BRANCH  16  17
ATOM     17  C   UNL     1       2.702   7.529 -17.917  0.00  0.00    +0.201 C 
ATOM     18  O   UNL     1       2.908   7.599 -16.686  0.00  0.00    -0.386 OA
ATOM     19  N   UNL     1       3.598   6.864 -18.756  0.00  0.00    -0.284 N 
ATOM     20  H   UNL     1       3.402   6.827 -19.736  0.00  0.00    +0.185 HD
BRANCH  19  21
ATOM     21  C   UNL     1       4.840   6.204 -18.246  0.00  0.00    +0.097 C 
ATOM     22  C   UNL     1       6.130   6.943 -18.816  0.00  0.00    +0.030 C 
ATOM     23  C   UNL     1       7.489   6.330 -18.295  0.00  0.00    +0.033 C 
ATOM     24  C   UNL     1       7.602   4.718 -18.466  0.00  0.00    +0.115 C 
ATOM     27  C   UNL     1       6.247   3.984 -18.063  0.00  0.00    +0.033 C 
ATOM     28  C   UNL     1       4.917   4.669 -18.586  0.00  0.00    +0.030 C 
BRANCH  24  25
ATOM     25  O   UNL     1       8.683   4.249 -17.586  0.00  0.00    -0.392 OA
ATOM     26  H   UNL     1       8.770   3.307 -17.668  0.00  0.00    +0.210 HD
ENDBRANCH  24  25
ENDBRANCH  19  21
ENDBRANCH  16  17
TORSDOF 6
