REMARK  Name = 35R
REMARK  5 active torsions:
REMARK  status: ('A' for Active; 'I' for Inactive)
REMARK    1  A    between atoms: N3_3  and  C4_4
REMARK    2  A    between atoms: N7_7  and  C8_8
REMARK    3  A    between atoms: C13_12  and  C14_13
REMARK    4  A    between atoms: C19_18  and  C20_19
REMARK    5  A    between atoms: C20_19  and  N21_20
REMARK                            x       y       z     vdW  Elec       q    Type
REMARK                         _______ _______ _______ _____ _____    ______ ____
ROOT
ATOM      6  C   UNL     1      -1.935  -7.389   2.561  0.00  0.00    +0.183 A 
ATOM      7  N   UNL     1      -1.435  -7.647   3.710  0.00  0.00    -0.224 NA
ATOM      8  C   UNL     1      -1.903  -8.579   4.455  0.00  0.00    +0.100 A 
ATOM      9  C   UNL     1      -1.640  -9.115   5.698  0.00  0.00    +0.018 A 
ATOM     10  C   UNL     1      -2.418 -10.169   6.191  0.00  0.00    -0.004 A 
ATOM     18  C   UNL     1      -3.455 -10.691   5.383  0.00  0.00    -0.001 A 
ATOM     19  C   UNL     1      -3.745 -10.155   4.105  0.00  0.00    +0.020 A 
ATOM     20  C   UNL     1      -2.965  -9.093   3.636  0.00  0.00    +0.101 A 
ATOM     21  N   UNL     1      -2.960  -8.262   2.343  0.00  0.00    -0.224 NA
ENDROOT
BRANCH   6   5
ATOM      4  C   UNL     1      -2.282  -6.007   0.362  0.00  0.00    +0.118 A 
ATOM      5  C   UNL     1      -1.506  -6.337   1.517  0.00  0.00    +0.155 A 
ATOM     22  N   UNL     1      -0.344  -5.619   1.468  0.00  0.00    -0.143 NA
ATOM     23  N   UNL     1      -0.384  -4.810   0.312  0.00  0.00    -0.145 NA
ATOM     24  C   UNL     1      -1.598  -5.063  -0.360  0.00  0.00    +0.140 A 
BRANCH   4   3
ATOM      1  O   UNL     1      -5.524  -6.823  -1.079  0.00  0.00    -0.249 OA
ATOM      2  C   UNL     1      -4.488  -6.243  -1.022  0.00  0.00    +0.344 C 
ATOM      3  N   UNL     1      -3.600  -6.593   0.091  0.00  0.00    -0.158 NA
ATOM     25  N   UNL     1      -4.088  -5.229  -2.012  0.00  0.00    -0.189 NA
BRANCH  25  26
ATOM     26  C   UNL     1      -4.885  -4.778  -3.171  0.00  0.00    +0.097 C 
ATOM     27  C   UNL     1      -6.265  -4.201  -2.801  0.00  0.00    +0.024 C 
ATOM     28  C   UNL     1      -6.176  -5.509  -3.590  0.00  0.00    +0.024 C 
ENDBRANCH  25  26
ENDBRANCH   4   3
ENDBRANCH   6   5
BRANCH  10  11
ATOM     11  C   UNL     1      -2.122 -10.807   7.581  0.00  0.00    +0.099 C 
BRANCH  11  12
ATOM     12  N   UNL     1      -2.802 -10.237   8.745  0.00  0.00    -0.265 NA
ATOM     13  C   UNL     1      -3.481 -11.330   9.472  0.00  0.00    +0.105 C 
ATOM     14  C   UNL     1      -4.241 -10.731  10.715  0.00  0.00    +0.160 C 
ATOM     15  O   UNL     1      -4.009  -9.344  10.833  0.00  0.00    -0.351 OA
ATOM     16  C   UNL     1      -4.399  -8.666   9.687  0.00  0.00    +0.160 C 
ATOM     17  C   UNL     1      -3.766  -9.210   8.424  0.00  0.00    +0.105 C 
ENDBRANCH  11  12
ENDBRANCH  10  11
TORSDOF 5
