REMARK  Name = J0P
REMARK  4 active torsions:
REMARK  status: ('A' for Active; 'I' for Inactive)
REMARK    1  A    between atoms: C10_7  and  C_13
REMARK    2  A    between atoms: C13_8  and  C16_15
REMARK    3  A    between atoms: N_20  and  C1_21
REMARK    4  A    between atoms: C1_21  and  C2_22
REMARK                            x       y       z     vdW  Elec       q    Type
REMARK                         _______ _______ _______ _____ _____    ______ ____
ROOT
ATOM     11  C   UNL     1     -63.850  -7.556 -45.941  0.00  0.00    +0.265 C 
ATOM     12  O   UNL     1     -62.741  -7.916 -45.572  0.00  0.00    -0.268 OA
ATOM     13  N   UNL     1     -64.192  -7.401 -47.274  0.00  0.00    -0.197 NA
ENDROOT
BRANCH  11   9
ATOM      6  C   UNL     1     -66.702  -6.488 -42.935  0.00  0.00    +0.000 A 
ATOM      7  C   UNL     1     -65.887  -7.640 -42.799  0.00  0.00    +0.000 A 
ATOM      8  C   UNL     1     -64.991  -7.984 -43.790  0.00  0.00    +0.005 A 
ATOM      9  C   UNL     1     -64.899  -7.216 -44.951  0.00  0.00    +0.055 A 
ATOM     10  C   UNL     1     -65.731  -6.093 -45.138  0.00  0.00    +0.005 A 
ATOM     25  C   UNL     1     -66.621  -5.723 -44.133  0.00  0.00    +0.000 A 
BRANCH   6   4
ATOM      1  N   UNL     1     -69.451  -5.553 -39.775  0.00  0.00    -0.242 NA
ATOM      2  C   UNL     1     -68.269  -6.185 -39.542  0.00  0.00    +0.099 A 
ATOM      3  C   UNL     1     -67.330  -6.466 -40.532  0.00  0.00    +0.021 A 
ATOM      4  C   UNL     1     -67.641  -6.125 -41.857  0.00  0.00    +0.003 A 
ATOM      5  C   UNL     1     -68.849  -5.472 -42.125  0.00  0.00    +0.021 A 
ATOM     26  C   UNL     1     -69.708  -5.202 -41.056  0.00  0.00    +0.099 A 
ENDBRANCH   6   4
ENDBRANCH  11   9
BRANCH  13  14
ATOM     14  C   UNL     1     -63.310  -7.722 -48.380  0.00  0.00    +0.145 C 
BRANCH  14  15
ATOM     15  C   UNL     1     -63.886  -8.846 -49.194  0.00  0.00    +0.036 A 
ATOM     16  C   UNL     1     -65.281  -9.249 -49.203  0.00  0.00    +0.001 A 
ATOM     17  C   UNL     1     -65.707 -10.375 -49.939  0.00  0.00    +0.003 A 
ATOM     18  C   UNL     1     -64.778 -11.103 -50.709  0.00  0.00    +0.040 A 
ATOM     19  C   UNL     1     -63.428 -10.688 -50.724  0.00  0.00    +0.172 A 
ATOM     20  O   UNL     1     -62.554 -11.355 -51.536  0.00  0.00    -0.468 OA
ATOM     21  C   UNL     1     -61.393 -10.602 -51.886  0.00  0.00    +0.253 C 
ATOM     22  C   UNL     1     -60.712 -10.103 -50.617  0.00  0.00    +0.253 C 
ATOM     23  O   UNL     1     -61.628  -9.256 -49.919  0.00  0.00    -0.469 OA
ATOM     24  C   UNL     1     -62.978  -9.595 -49.969  0.00  0.00    +0.170 A 
ENDBRANCH  14  15
ENDBRANCH  13  14
TORSDOF 4
