REMARK  Name = 2IZS
REMARK  4 active torsions:
REMARK  status: ('A' for Active; 'I' for Inactive)
REMARK    1  A    between atoms: C_7  and  N_8
REMARK    2  A    between atoms: C_12  and  N_13
REMARK    3  A    between atoms: C_14  and  C_15
REMARK    4  A    between atoms: C_15  and  C_17
REMARK                            x       y       z     vdW  Elec       q    Type
REMARK                         _______ _______ _______ _____ _____    ______ ____
ROOT
ATOM      3  N   UNL     1      35.321 -17.159  28.664  0.00  0.00    -0.224 NA
ATOM      4  C   UNL     1      35.866 -16.163  27.999  0.00  0.00    +0.173 A 
ATOM      5  N   UNL     1      36.047 -14.984  28.612  0.00  0.00    -0.322 N 
ATOM      6  H   UNL     1      35.775 -14.784  29.627  0.00  0.00    +0.169 HD
ATOM      7  C   UNL     1      36.609 -14.093  27.796  0.00  0.00    +0.113 A 
ATOM      8  C   UNL     1      36.903 -14.561  26.486  0.00  0.00    +0.100 A 
ATOM     21  S   UNL     1      36.464 -16.176  26.338  0.00  0.00    -0.045 S 
ENDROOT
BRANCH   3   2
ATOM      1  C   UNL     1      33.912 -18.952  28.472  0.00  0.00    +0.047 A 
ATOM      2  C   UNL     1      35.124 -18.353  28.177  0.00  0.00    +0.068 A 
ATOM     22  C   UNL     1      36.097 -19.005  27.427  0.00  0.00    +0.028 A 
ATOM     23  C   UNL     1      35.833 -20.274  26.937  0.00  0.00    +0.003 A 
ATOM     24  C   UNL     1      34.608 -20.860  27.232  0.00  0.00    +0.020 A 
ATOM     25  C   UNL     1      33.652 -20.222  27.999  0.00  0.00    +0.043 A 
ATOM     26 CL   UNL     1      32.127 -20.981  28.356  0.00  0.00    -0.084 Cl
ENDBRANCH   3   2
BRANCH   7  18
ATOM     18  N   UNL     1      36.833 -12.885  28.241  0.00  0.00    -0.344 N 
ATOM     19  H   UNL     1      37.283 -12.154  27.602  0.00  0.00    +0.144 HD
ATOM     20  H   UNL     1      36.566 -12.626  29.244  0.00  0.00    +0.144 HD
ENDBRANCH   7  18
BRANCH   8   9
ATOM      9  C   UNL     1      37.623 -13.768  25.389  0.00  0.00    +0.203 C 
ATOM     17  O   UNL     1      38.020 -12.622  25.585  0.00  0.00    -0.286 OA
BRANCH   9  10
ATOM     10  C   UNL     1      37.937 -14.468  24.083  0.00  0.00    +0.023 A 
ATOM     11  C   UNL     1      39.248 -14.422  23.591  0.00  0.00    +0.014 A 
ATOM     12  C   UNL     1      39.539 -15.042  22.389  0.00  0.00    +0.039 A 
ATOM     13  C   UNL     1      38.536 -15.723  21.699  0.00  0.00    +0.123 A 
ATOM     14  F   UNL     1      38.815 -16.335  20.536  0.00  0.00    -0.205 F 
ATOM     15  C   UNL     1      37.230 -15.781  22.190  0.00  0.00    +0.039 A 
ATOM     16  C   UNL     1      36.922 -15.136  23.378  0.00  0.00    +0.014 A 
ENDBRANCH   9  10
ENDBRANCH   8   9
TORSDOF 4
