REMARK  Name = 6JMF
REMARK  5 active torsions:
REMARK  status: ('A' for Active; 'I' for Inactive)
REMARK    1  A    between atoms: C7_1  and  C1_7
REMARK    2  A    between atoms: C4_2  and  N11_11
REMARK    3  A    between atoms: C5_3  and  C2_6
REMARK    4  A    between atoms: N10_10  and  C12_12
REMARK    5  A    between atoms: N11_11  and  C18_18
REMARK                            x       y       z     vdW  Elec       q    Type
REMARK                         _______ _______ _______ _____ _____    ______ ____
ROOT
ATOM      1  C   UNL     1     -12.120  29.339   9.994  0.00  0.00    +0.000 A 
ATOM      2  C   UNL     1     -12.722  29.820   8.853  0.00  0.00    +0.430 A 
ATOM      3  N   UNL     1     -11.838  30.358   7.935  0.00  0.00    -0.350 NA
ATOM     11  N   UNL     1     -14.048  29.763   8.643  0.00  0.00    -0.760 NA
ATOM     12  C   UNL     1     -14.810  29.207   9.605  0.00  0.00    +0.380 A 
ATOM     21  C   UNL     1     -14.252  28.714  10.767  0.00  0.00    -0.130 A 
ATOM     27  C   UNL     1     -12.890  28.770  10.974  0.00  0.00    -0.130 A 
ENDROOT
BRANCH   3   4
ATOM      4  C   UNL     1     -12.134  30.979   6.739  0.00  0.00    +0.050 A 
ATOM      5  C   UNL     1     -13.397  30.987   6.198  0.00  0.00    -0.130 A 
ATOM      6  C   UNL     1     -13.608  31.639   5.005  0.00  0.00    -0.130 A 
ATOM      7  C   UNL     1     -12.565  32.274   4.368  0.00  0.00    -0.130 A 
ATOM      8  C   UNL     1     -11.304  32.255   4.916  0.00  0.00    +0.000 A 
ATOM      9  C   UNL     1     -10.181  32.937   4.230  0.00  0.00    -0.150 C 
ATOM     10  C   UNL     1     -11.086  31.607   6.104  0.00  0.00    -0.130 A 
ENDBRANCH   3   4
BRANCH   1  24
ATOM     24  C   UNL     1     -10.664  29.394  10.207  0.00  0.00    +0.600 C 
ATOM     25  N   UNL     1     -10.333  28.829  11.399  0.00  0.00    -0.550 NA
ATOM     26  O   UNL     1      -9.889  29.891   9.394  0.00  0.00    -0.550 OA
ENDBRANCH   1  24
BRANCH  21  22
ATOM     22  C   UNL     1     -15.001  28.096  11.814  0.00  0.00    +0.480 C 
ATOM     23  N   UNL     1     -15.585  27.487  12.623  0.00  0.00    -0.350 NA
ENDBRANCH  21  22
BRANCH  12  13
ATOM     13  N   UNL     1     -16.220  29.091   9.488  0.00  0.00    -0.550 NA
BRANCH  13  14
ATOM     14  C   UNL     1     -16.752  29.433   8.169  0.00  0.00    +0.150 C 
ATOM     15  C   UNL     1     -16.455  28.389   7.099  0.00  0.00    +0.150 C 
ATOM     16  N   UNL     1     -17.058  27.098   7.385  0.00  0.00    -0.900 NA
ATOM     17  C   UNL     1     -16.942  28.873   5.749  0.00  0.00    -0.100 C 
ATOM     18  C   UNL     1     -18.430  29.131   5.782  0.00  0.00    -0.100 C 
ATOM     19  C   UNL     1     -18.785  30.107   6.891  0.00  0.00    -0.100 C 
ATOM     20  C   UNL     1     -18.248  29.683   8.251  0.00  0.00    -0.100 C 
ENDBRANCH  13  14
ENDBRANCH  12  13
TORSDOF 5
