REMARK  Name = 3kcf_ligand
REMARK  7 active torsions:
REMARK  status: ('A' for Active; 'I' for Inactive)
REMARK    1  A    between atoms: C1_1  and  O2_2
REMARK    2  A    between atoms: O2_2  and  C3_3
REMARK    3  A    between atoms: C3_3  and  C4_4
REMARK    4  A    between atoms: C8_8  and  C10_10
REMARK    5  A    between atoms: C11_11  and  C18_18
REMARK    6  A    between atoms: N12_12  and  C13_13
REMARK    7  A    between atoms: N14_14  and  C15_15
REMARK                            x       y       z     vdW  Elec       q    Type
REMARK                         _______ _______ _______ _____ _____    ______ ____
ROOT
ATOM      7  C   UNL     1      75.701  26.984  90.420  0.00  0.00    +0.067 A 
ATOM      8  C   UNL     1      76.119  26.783  89.000  0.00  0.00    +0.205 A 
ATOM      9  O   UNL     1      76.670  27.617  88.268  0.00  0.00    -0.402 OA
ATOM     10  N   UNL     1      75.798  25.549  88.658  0.00  0.00    -0.175 N 
ATOM     11  C   UNL     1      76.048  24.949  87.334  0.00  0.00    +0.200 C 
ATOM     12  N   UNL     1      75.191  24.911  89.729  0.00  0.00    -0.193 N 
ATOM     13  C   UNL     1      74.692  23.504  89.683  0.00  0.00    +0.203 C 
ATOM     14  C   UNL     1      75.134  25.799  90.814  0.00  0.00    +0.108 A 
ENDROOT
BRANCH  14  15
ATOM     15  C   UNL     1      74.543  25.463  92.152  0.00  0.00    +0.033 A 
ATOM     16  C   UNL     1      74.956  24.272  92.825  0.00  0.00    +0.059 A 
ATOM     17  C   UNL     1      74.397  23.926  94.077  0.00  0.00    +0.080 A 
ATOM     18  N   UNL     1      74.777  22.791  94.715  0.00  0.00    -0.268 NA
ATOM     19  C   UNL     1      74.248  22.437  95.915  0.00  0.00    +0.139 A 
ATOM     20  C   UNL     1      73.280  23.268  96.520  0.00  0.00    +0.139 A 
ATOM     21  N   UNL     1      72.898  24.411  95.878  0.00  0.00    -0.268 NA
ATOM     22  C   UNL     1      73.415  24.775  94.682  0.00  0.00    +0.077 A 
ATOM     23  C   UNL     1      73.001  25.965  94.026  0.00  0.00    +0.040 A 
ATOM     24  C   UNL     1      73.562  26.309  92.760  0.00  0.00    +0.036 A 
ENDBRANCH  14  15
BRANCH   7   6
ATOM      4  C   UNL     1      75.728  30.727  91.293  0.00  0.00    -0.025 A 
ATOM      5  C   UNL     1      75.532  29.506  90.594  0.00  0.00    -0.013 A 
ATOM      6  C   UNL     1      75.904  28.267  91.190  0.00  0.00    -0.037 A 
ATOM     25  C   UNL     1      76.483  28.269  92.503  0.00  0.00    -0.021 A 
ATOM     26  C   UNL     1      76.676  29.494  93.208  0.00  0.00    -0.017 A 
ATOM     27  C   UNL     1      76.301  30.723  92.604  0.00  0.00    -0.015 A 
BRANCH   4   3
ATOM      3  C   UNL     1      75.330  32.013  90.625  0.00  0.00    +0.224 C 
BRANCH   3   2
ATOM      1  C   UNL     1      74.625  34.218  90.943  0.00  0.00    +0.197 C 
ATOM      2  O   UNL     1      75.007  33.001  91.587  0.00  0.00    -0.371 OA
ENDBRANCH   3   2
ENDBRANCH   4   3
ENDBRANCH   7   6
TORSDOF 4
