REMARK  Name = 3TC
REMARK  2 active torsions:
REMARK  status: ('A' for Active; 'I' for Inactive)
REMARK    1  A    between atoms: N1_8  and  C4_9
REMARK    2  A    between atoms: C2_12  and  C8_14
REMARK                            x       y       z     vdW  Elec       q    Type
REMARK                         _______ _______ _______ _____ _____    ______ ____
ROOT
ATOM      1  O   UNL     1      48.481  67.883  99.877  0.00  0.00    -0.244 OA
ATOM      2  C   UNL     1      47.401  67.354  99.787  0.00  0.00    +0.353 A 
ATOM      3  N   UNL     1      46.288  68.046 100.098  0.00  0.00    -0.174 NA
ATOM      4  C   UNL     1      45.104  67.435  99.989  0.00  0.00    +0.176 A 
ATOM      5  N   UNL     1      44.018  68.167 100.308  0.00  0.00    -0.107 NA
ATOM      6  C   UNL     1      44.989  66.105  99.496  0.00  0.00    +0.057 A 
ATOM      7  C   UNL     1      46.169  65.423  99.161  0.00  0.00    +0.085 A 
ATOM      8  N   UNL     1      47.348  66.048  99.299  0.00  0.00    -0.255 N 
ENDROOT
BRANCH   8   9
ATOM      9  C   UNL     1      48.647  65.430  98.966  0.00  0.00    +0.220 C 
ATOM     10  O   UNL     1      48.386  64.057  98.777  0.00  0.00    -0.323 OA
ATOM     11  C   UNL     1      48.851  63.535  97.525  0.00  0.00    +0.198 C 
ATOM     14  S   UNL     1      48.633  64.910  96.430  0.00  0.00    -0.105 S 
ATOM     15  C   UNL     1      49.178  66.035  97.649  0.00  0.00    +0.114 C 
BRANCH  11  12
ATOM     12  C   UNL     1      48.044  62.337  97.113  0.00  0.00    +0.223 C 
ATOM     13  O   UNL     1      48.167  61.415  98.192  0.00  0.00    -0.217 OA
ENDBRANCH  11  12
ENDBRANCH   8   9
TORSDOF 2
