REMARK  Name = 4jx7_ligand
REMARK  4 active torsions:
REMARK  status: ('A' for Active; 'I' for Inactive)
REMARK    1  A    between atoms: CBD_2  and  CAV_5
REMARK    2  A    between atoms: CAU_10  and  NAR_11
REMARK    3  A    between atoms: NAS_23  and  CBC_24
REMARK    4  A    between atoms: CBB_27  and  NAA_28
REMARK                            x       y       z     vdW  Elec       q    Type
REMARK                         _______ _______ _______ _____ _____    ______ ____
ROOT
ATOM      8  N   UNL     1      21.710 -39.990  -0.184  0.00  0.00    -0.248 N 
ATOM      9  H   UNL     1      21.916 -40.564   0.646  0.00  0.00    +0.219 HD
ATOM     10  C   UNL     1      20.855 -38.949  -0.016  0.00  0.00    +0.147 A 
ATOM     11  C   UNL     1      20.517 -38.670   1.326  0.00  0.00    +0.103 A 
ATOM     12  C   UNL     1      19.632 -37.616   1.585  0.00  0.00    +0.061 A 
ATOM     13  N   UNL     1      19.137 -36.900   0.562  0.00  0.00    -0.262 NA
ATOM     14  C   UNL     1      19.454 -37.183  -0.725  0.00  0.00    +0.172 A 
ATOM     15  N   UNL     1      18.894 -36.349  -1.610  0.00  0.00    -0.288 N 
ATOM     16  H   UNL     1      18.791 -35.387  -1.255  0.00  0.00    +0.188 HD
ATOM     27  C   UNL     1      19.256 -37.300   2.891  0.00  0.00    +0.224 C 
ATOM     28  C   UNL     1      19.754 -38.038   3.954  0.00  0.00    +0.173 C 
ATOM     29  N   UNL     1      20.594 -39.047   3.747  0.00  0.00    -0.251 NA
ATOM     30  C   UNL     1      21.013 -39.405   2.431  0.00  0.00    +0.184 C 
ATOM     31  O   UNL     1      21.800 -40.359   2.286  0.00  0.00    -0.388 OA
ATOM     32  N   UNL     1      20.318 -38.192  -1.021  0.00  0.00    -0.240 NA
ENDROOT
BRANCH   8   7
ATOM      3  C   UNL     1      22.303 -40.813  -3.730  0.00  0.00    +0.038 A 
ATOM      4  C   UNL     1      23.664 -41.163  -3.683  0.00  0.00    +0.035 A 
ATOM      5  C   UNL     1      24.350 -41.113  -2.467  0.00  0.00    +0.028 A 
ATOM      6  C   UNL     1      23.667 -40.711  -1.304  0.00  0.00    +0.071 A 
ATOM      7  C   UNL     1      22.314 -40.341  -1.338  0.00  0.00    +0.095 A 
ATOM     33  C   UNL     1      21.637 -40.409  -2.559  0.00  0.00    +0.067 A 
BRANCH   3   2
ATOM      1  F   UNL     1      22.286 -41.621  -5.878  0.00  0.00    -0.221 F 
ATOM      2  C   UNL     1      21.590 -40.857  -4.947  0.00  0.00    +0.374 C 
ATOM     34  F   UNL     1      21.396 -39.557  -5.406  0.00  0.00    -0.221 F 
ATOM     35  F   UNL     1      20.403 -41.423  -4.758  0.00  0.00    -0.221 F 
ENDBRANCH   3   2
ENDBRANCH   8   7
BRANCH  15  17
ATOM     17  C   UNL     1      18.395 -36.519  -2.982  0.00  0.00    +0.099 C 
ATOM     18  C   UNL     1      18.461 -37.940  -3.559  0.00  0.00    +0.034 C 
ATOM     19  C   UNL     1      17.944 -37.953  -5.013  0.00  0.00    +0.056 C 
ATOM     20  C   UNL     1      18.631 -36.856  -5.891  0.00  0.00    +0.061 C 
ATOM     25  C   UNL     1      18.577 -35.466  -5.247  0.00  0.00    +0.056 C 
ATOM     26  C   UNL     1      19.189 -35.533  -3.851  0.00  0.00    +0.034 C 
BRANCH  20  21
ATOM     21  N   UNL     1      18.068 -36.785  -7.234  0.00  0.00    +0.221 N 
ATOM     22  H   UNL     1      17.111 -36.474  -7.181  0.00  0.00    +0.200 HD
ATOM     23  H   UNL     1      18.602 -36.135  -7.788  0.00  0.00    +0.200 HD
ATOM     24  H   UNL     1      18.102 -37.697  -7.661  0.00  0.00    +0.200 HD
ENDBRANCH  20  21
ENDBRANCH  15  17
TORSDOF 4
