REMARK  Name = 3r7o_ligand
REMARK  8 active torsions:
REMARK  status: ('A' for Active; 'I' for Inactive)
REMARK    1  A    between atoms: C_1  and  C14_18
REMARK    2  A    between atoms: S_4  and  N16_20
REMARK    3  A    between atoms: S_4  and  N20_24
REMARK    4  A    between atoms: C12_16  and  N20_24
REMARK    5  A    between atoms: C15_19  and  N16_20
REMARK    6  A    between atoms: N16_20  and  C17_21
REMARK    7  A    between atoms: C17_21  and  C21_25
REMARK    8  A    between atoms: N28_32  and  C31_35
REMARK                            x       y       z     vdW  Elec       q    Type
REMARK                         _______ _______ _______ _____ _____    ______ ____
ROOT
ATOM      1  C   UNL     1      -4.443  -8.361 -16.555  0.00  0.00    -0.004 A 
ATOM     15  C   UNL     1      -4.686  -7.521 -15.487  0.00  0.00    +0.045 A 
ATOM     16  C   UNL     1      -5.985  -7.352 -15.046  0.00  0.00    +0.056 A 
ATOM     17  C   UNL     1      -6.114  -6.508 -13.851  0.00  0.00    +0.153 A 
ATOM     18  C   UNL     1      -7.292  -5.702 -13.496  0.00  0.00    +0.030 A 
ATOM     19  C   UNL     1      -7.005  -4.603 -12.710  0.00  0.00    +0.033 A 
ATOM     20  C   UNL     1      -8.017  -3.773 -12.289  0.00  0.00    +0.077 A 
ATOM     35  C   UNL     1      -9.314  -4.030 -12.671  0.00  0.00    +0.021 A 
ATOM     36  C   UNL     1      -9.601  -5.137 -13.429  0.00  0.00    +0.004 A 
ATOM     37  C   UNL     1      -8.603  -5.996 -13.836  0.00  0.00    -0.014 A 
ATOM     38  C   UNL     1      -9.093  -7.110 -14.622  0.00  0.00    +0.016 A 
ATOM     39  C   UNL     1      -8.425  -7.968 -15.395  0.00  0.00    +0.019 A 
ATOM     40  O   UNL     1      -5.140  -6.467 -13.105  0.00  0.00    -0.384 OA
ATOM     41  C   UNL     1      -7.007  -8.038 -15.686  0.00  0.00    +0.051 A 
ATOM     42  N   UNL     1      -6.776  -8.924 -16.665  0.00  0.00    -0.297 NA
ATOM     43  C   UNL     1      -5.509  -9.064 -17.073  0.00  0.00    +0.093 A 
ENDROOT
BRANCH   1   2
ATOM      2  C   UNL     1      -3.113  -8.512 -17.085  0.00  0.00    +0.009 A 
ATOM      3  C   UNL     1      -1.895  -7.938 -16.644  0.00  0.00    +0.076 A 
ATOM      4  N   UNL     1      -0.881  -8.255 -17.449  0.00  0.00    -0.212 NA
ATOM      5  N   UNL     1      -1.453  -9.034 -18.385  0.00  0.00    -0.198 N 
ATOM     14  C   UNL     1      -2.797  -9.217 -18.224  0.00  0.00    +0.172 A 
BRANCH   5   6
ATOM      6  C   UNL     1      -0.650  -9.571 -19.471  0.00  0.00    +0.161 C 
ATOM      7  C   UNL     1      -0.014  -8.415 -20.222  0.00  0.00    +0.090 C 
ATOM      8  C   UNL     1       0.978  -8.897 -21.260  0.00  0.00    +0.132 C 
ATOM      9  N   UNL     1       2.004  -9.707 -20.548  0.00  0.00    +0.227 N 
ATOM     10  H   UNL     1       2.401  -9.153 -19.805  0.00  0.00    +0.201 HD
ATOM     11  H   UNL     1       2.729  -9.964 -21.200  0.00  0.00    +0.201 HD
ATOM     12  C   UNL     1       1.417 -10.941 -19.969  0.00  0.00    +0.132 C 
ATOM     13  C   UNL     1       0.390 -10.539 -18.927  0.00  0.00    +0.090 C 
ENDBRANCH   5   6
ENDBRANCH   1   2
BRANCH  20  21
ATOM     21  N   UNL     1      -7.816  -2.625 -11.454  0.00  0.00    -0.169 N 
ATOM     22  H   UNL     1      -8.626  -2.137 -11.129  0.00  0.00    +0.222 HD
BRANCH  21  23
ATOM     23  S   UNL     1      -6.277  -2.031 -10.975  0.00  0.00    +0.142 S 
ATOM     24  O   UNL     1      -5.380  -3.073 -10.517  0.00  0.00    -0.129 OA
ATOM     25  O   UNL     1      -6.632  -0.944 -10.082  0.00  0.00    -0.129 OA
BRANCH  23  26
ATOM     26  N   UNL     1      -5.654  -1.344 -12.415  0.00  0.00    -0.217 NA
ATOM     34  C   UNL     1      -6.597  -0.599 -13.270  0.00  0.00    +0.153 C 
BRANCH  26  27
ATOM     27  C   UNL     1      -4.665  -2.118 -13.193  0.00  0.00    +0.160 C 
BRANCH  27  28
ATOM     28  C   UNL     1      -3.345  -1.378 -13.132  0.00  0.00    +0.163 C 
ATOM     29  O   UNL     1      -2.325  -2.286 -12.723  0.00  0.00    -0.370 OA
ATOM     30  C   UNL     1      -1.088  -1.588 -12.629  0.00  0.00    +0.188 C 
ATOM     31  C   UNL     1      -0.730  -1.025 -13.992  0.00  0.00    +0.188 C 
ATOM     32  O   UNL     1      -1.754  -0.122 -14.400  0.00  0.00    -0.375 OA
ATOM     33  C   UNL     1      -2.984  -0.832 -14.500  0.00  0.00    +0.193 C 
ENDBRANCH  27  28
ENDBRANCH  26  27
ENDBRANCH  23  26
ENDBRANCH  21  23
ENDBRANCH  20  21
TORSDOF 7
