REMARK  Name = 5BQ0
REMARK  7 active torsions:
REMARK  status: ('A' for Active; 'I' for Inactive)
REMARK    1  A    between atoms: C_2  and  C_6
REMARK    2  A    between atoms: C_3  and  C_4
REMARK    3  A    between atoms: C_4  and  N_28
REMARK    4  A    between atoms: C_5  and  C_15
REMARK    5  A    between atoms: C_6  and  N_28
REMARK    6  A    between atoms: C_11  and  C_26
REMARK    7  A    between atoms: C_18  and  C_19
REMARK                            x       y       z     vdW  Elec       q    Type
REMARK                         _______ _______ _______ _____ _____    ______ ____
ROOT
ATOM      1  C   UNL     1     -23.689   6.691   2.031  0.00  0.00    +0.011 C 
ATOM      2  C   UNL     1     -22.493   6.337   1.400  0.00  0.00    +0.052 C 
ATOM      3  C   UNL     1     -21.455   5.786   2.183  0.00  0.00    +0.079 C 
ATOM      4  C   UNL     1     -21.610   5.541   3.536  0.00  0.00    +0.075 C 
ATOM      5  C   UNL     1     -22.849   5.787   4.122  0.00  0.00    +0.074 C 
ATOM     13  N   UNL     1     -20.394   5.458   1.368  0.00  0.00    +0.347 NA
ATOM     14  H   UNL     1     -19.517   5.060   1.688  0.00  0.00    +0.237 HD
ATOM     15  C   UNL     1     -20.717   5.764   0.062  0.00  0.00    +0.091 C 
ATOM     16  C   UNL     1     -19.937   5.646  -1.093  0.00  0.00    +0.123 C 
ATOM     22  C   UNL     1     -20.514   6.054  -2.306  0.00  0.00    +0.020 C 
ATOM     23  C   UNL     1     -21.803   6.583  -2.359  0.00  0.00    +0.006 C 
ATOM     24  C   UNL     1     -22.572   6.728  -1.201  0.00  0.00    +0.002 C 
ATOM     32  C   UNL     1     -22.021   6.316   0.030  0.00  0.00    +0.056 C 
ATOM     33  C   UNL     1     -23.852   6.425   3.387  0.00  0.00    +0.014 C 
ENDROOT
BRANCH  24  25
ATOM     25  C   UNL     1     -23.935   7.333  -1.315  0.00  0.00    +0.010 C 
ATOM     26  C   UNL     1     -24.246   8.600  -0.825  0.00  0.00    +0.075 C 
ATOM     27 CL   UNL     1     -23.072   9.497   0.063  0.00  0.00    -0.115 Cl
ATOM     28  C   UNL     1     -25.503   9.163  -1.011  0.00  0.00    +0.021 C 
ATOM     29  C   UNL     1     -26.468   8.455  -1.708  0.00  0.00    +0.002 C 
ATOM     30  C   UNL     1     -26.182   7.194  -2.191  0.00  0.00    +0.000 C 
ATOM     31  C   UNL     1     -24.940   6.626  -1.979  0.00  0.00    +0.006 C 
ENDBRANCH  24  25
BRANCH  16  17
ATOM     17  C   UNL     1     -18.598   4.969  -1.014  0.00  0.00    +0.224 C 
ATOM     18  N   UNL     1     -17.779   5.011  -2.052  0.00  0.00    -0.329 N 
ATOM     19  H   UNL     1     -16.880   4.544  -1.996  0.00  0.00    +0.145 HD
ATOM     20  H   UNL     1     -17.955   5.489  -2.930  0.00  0.00    +0.145 HD
ATOM     21  O   UNL     1     -18.329   4.254  -0.013  0.00  0.00    -0.275 OA
ENDBRANCH  16  17
BRANCH   5   6
ATOM      6  C   UNL     1     -23.083   5.361   5.534  0.00  0.00    +0.224 C 
ATOM      7  N   UNL     1     -23.064   6.259   6.539  0.00  0.00    -0.301 N 
ATOM     12  O   UNL     1     -23.328   4.184   5.737  0.00  0.00    -0.275 OA
BRANCH   7   8
ATOM      8  C   UNL     1     -23.366   5.851   7.930  0.00  0.00    +0.104 C 
ATOM      9  C   UNL     1     -24.156   6.926   8.669  0.00  0.00    +0.024 C 
ENDBRANCH   7   8
BRANCH   7  10
ATOM     10  C   UNL     1     -22.760   7.697   6.418  0.00  0.00    +0.104 C 
ATOM     11  C   UNL     1     -23.903   8.572   6.934  0.00  0.00    +0.024 C 
ENDBRANCH   7  10
ENDBRANCH   5   6
TORSDOF 5
