REMARK  Name = 9YE
REMARK  4 active torsions:
REMARK  status: ('A' for Active; 'I' for Inactive)
REMARK    1  A    between atoms: C16_8  and  C20_13
REMARK    2  A    between atoms: C16_8  and  O3_27
REMARK    3  A    between atoms: C17_9  and  N1_24
REMARK    4  A    between atoms: C4_18  and  O3_27
REMARK                            x       y       z     vdW  Elec       q    Type
REMARK                         _______ _______ _______ _____ _____    ______ ____
ROOT
ATOM      1  C   UNL     1      -6.170 -44.575   7.423  0.00  0.00    +0.003 A 
ATOM      2  C   UNL     1      -5.324 -45.543   6.951  0.00  0.00    +0.043 A 
ATOM      3  C   UNL     1      -4.463 -46.463   7.704  0.00  0.00    +0.197 C 
ATOM      4  O   UNL     1      -4.379 -46.495   8.915  0.00  0.00    -0.286 OA
ATOM      5  C   UNL     1      -3.762 -47.247   6.665  0.00  0.00    +0.059 A 
ATOM      6  C   UNL     1      -2.799 -48.257   6.449  0.00  0.00    +0.051 A 
ATOM      7  C   UNL     1      -2.023 -49.006   7.416  0.00  0.00    +0.174 C 
ATOM      8  O   UNL     1      -2.135 -48.833   8.624  0.00  0.00    -0.291 OA
ATOM      9  C   UNL     1      -1.016 -49.974   6.841  0.00  0.00    +0.070 C 
ATOM     10  C   UNL     1      -1.327 -50.489   5.463  0.00  0.00    +0.014 C 
ATOM     11  C   UNL     1      -1.699 -49.408   4.464  0.00  0.00    +0.044 C 
ATOM     12  C   UNL     1      -2.649 -48.441   5.086  0.00  0.00    +0.040 A 
ATOM     13  N   UNL     1      -3.517 -47.559   4.426  0.00  0.00    -0.332 N 
ATOM     17  C   UNL     1      -4.205 -46.831   5.386  0.00  0.00    +0.066 A 
ATOM     18  C   UNL     1      -5.178 -45.783   5.555  0.00  0.00    +0.053 A 
ATOM     19  C   UNL     1      -5.912 -44.999   4.659  0.00  0.00    +0.140 A 
ATOM     20  C   UNL     1      -6.767 -44.026   5.154  0.00  0.00    +0.037 A 
ATOM     27  C   UNL     1      -6.885 -43.820   6.511  0.00  0.00    +0.003 A 
ENDROOT
BRANCH  13  14
ATOM     14  C   UNL     1      -3.674 -47.419   2.962  0.00  0.00    +0.085 C 
ATOM     15  C   UNL     1      -2.410 -46.872   2.335  0.00  0.00    +0.025 C 
ATOM     16  C   UNL     1      -4.191 -48.696   2.319  0.00  0.00    +0.025 C 
ENDBRANCH  13  14
BRANCH  19  21
ATOM     21  O   UNL     1      -5.771 -45.251   3.318  0.00  0.00    -0.471 OA
BRANCH  21  22
ATOM     22  C   UNL     1      -6.219 -44.235   2.408  0.00  0.00    +0.231 C 
BRANCH  22  23
ATOM     23  C   UNL     1      -6.089 -44.769   1.025  0.00  0.00    +0.012 C 
ATOM     24  C   UNL     1      -6.935 -44.587   0.030  0.00  0.00    -0.044 C 
ATOM     25  C   UNL     1      -8.135 -43.695   0.143  0.00  0.00    +0.026 C 
ATOM     26  C   UNL     1      -6.766 -45.264  -1.295  0.00  0.00    +0.026 C 
ENDBRANCH  22  23
ENDBRANCH  21  22
ENDBRANCH  19  21
TORSDOF 4
