REMARK  Name = 2JC6
REMARK  3 active torsions:
REMARK  status: ('A' for Active; 'I' for Inactive)
REMARK    1  A    between atoms: C_6  and  C_7
REMARK    2  A    between atoms: N_17  and  C_18
REMARK    3  A    between atoms: C_20  and  C_21
REMARK                            x       y       z     vdW  Elec       q    Type
REMARK                         _______ _______ _______ _____ _____    ______ ____
ROOT
ATOM      3  C   UNL     1     -13.933 -84.423 -37.820  0.00  0.00    +0.141 A 
ATOM      4  N   UNL     1     -15.008 -84.391 -38.637  0.00  0.00    -0.339 N 
ATOM      5  H   UNL     1     -15.834 -85.040 -38.434  0.00  0.00    +0.167 HD
ATOM      6  C   UNL     1     -15.071 -83.559 -39.708  0.00  0.00    +0.051 A 
ATOM      7  C   UNL     1     -13.994 -82.732 -40.002  0.00  0.00    +0.043 A 
ATOM      8  C   UNL     1     -12.874 -82.763 -39.151  0.00  0.00    +0.166 A 
ATOM      9  N   UNL     1     -11.832 -81.932 -39.408  0.00  0.00    -0.209 NA
ATOM     17  C   UNL     1     -14.062 -81.888 -41.131  0.00  0.00    +0.013 A 
ATOM     18  C   UNL     1     -15.179 -81.865 -41.975  0.00  0.00    +0.001 A 
ATOM     19  C   UNL     1     -16.266 -82.696 -41.670  0.00  0.00    +0.002 A 
ATOM     20  C   UNL     1     -16.198 -83.534 -40.544  0.00  0.00    +0.026 A 
ATOM     21  N   UNL     1     -12.891 -83.603 -38.076  0.00  0.00    -0.210 NA
ENDROOT
BRANCH   9  10
ATOM     10  C   UNL     1     -10.708 -81.851 -38.674  0.00  0.00    +0.151 A 
ATOM     11  N   UNL     1      -9.876 -80.829 -38.780  0.00  0.00    -0.260 N 
ATOM     12  H   UNL     1     -10.024 -79.988 -39.425  0.00  0.00    +0.191 HD
ATOM     13  N   UNL     1      -8.904 -80.979 -38.031  0.00  0.00    -0.177 NA
ATOM     14  C   UNL     1      -9.073 -82.137 -37.399  0.00  0.00    +0.062 A 
ATOM     15  C   UNL     1      -8.088 -82.713 -36.387  0.00  0.00    +0.067 C 
ATOM     16  C   UNL     1     -10.208 -82.712 -37.778  0.00  0.00    +0.072 A 
ENDBRANCH   9  10
BRANCH   3   2
ATOM      1  C   UNL     1     -13.183 -84.903 -35.550  0.00  0.00    +0.011 A 
ATOM      2  C   UNL     1     -13.920 -85.263 -36.688  0.00  0.00    +0.017 A 
ATOM     22  C   UNL     1     -14.671 -86.443 -36.642  0.00  0.00    +0.011 A 
ATOM     23  C   UNL     1     -14.661 -87.255 -35.520  0.00  0.00    +0.001 A 
ATOM     24  C   UNL     1     -13.921 -86.910 -34.406  0.00  0.00    +0.000 A 
ATOM     25  C   UNL     1     -13.173 -85.724 -34.426  0.00  0.00    +0.001 A 
ENDBRANCH   3   2
TORSDOF 2
