REMARK  Name = 9WS
REMARK  2 active torsions:
REMARK  status: ('A' for Active; 'I' for Inactive)
REMARK    1  A    between atoms: C1_1  and  C3_3
REMARK    2  A    between atoms: N7_14  and  C8_15
REMARK                            x       y       z     vdW  Elec       q    Type
REMARK                         _______ _______ _______ _____ _____    ______ ____
ROOT
ATOM      1  C   UNL     1     -17.320   4.000   9.000  0.00  0.00    +0.000 C 
ENDROOT
TORSDOF 0
