REMARK  Name = M77
REMARK  2 active torsions:
REMARK  status: ('A' for Active; 'I' for Inactive)
REMARK    1  A    between atoms: S1_2  and  N4_4
REMARK    2  A    between atoms: S1_2  and  C5_11
REMARK                            x       y       z     vdW  Elec       q    Type
REMARK                         _______ _______ _______ _____ _____    ______ ____
ROOT
ATOM      1  O   UNL     1       8.663  11.083   5.139  0.00  0.00    -0.153 OA
ATOM      2  S   UNL     1       8.563  10.075   4.078  0.00  0.00    +0.063 S 
ATOM     20  O   UNL     1       9.579  10.222   3.061  0.00  0.00    -0.153 OA
ENDROOT
BRANCH   2  10
ATOM     10  C   UNL     1       7.082  10.085   3.146  0.00  0.00    +0.122 A 
ATOM     11  C   UNL     1       5.784  10.028   3.764  0.00  0.00    +0.022 A 
ATOM     12  C   UNL     1       5.529   9.971   5.176  0.00  0.00    +0.022 A 
ATOM     13  C   UNL     1       4.255   9.932   5.680  0.00  0.00    +0.099 A 
ATOM     14  N   UNL     1       3.188   9.925   4.830  0.00  0.00    -0.242 NA
ATOM     15  C   UNL     1       3.389  10.008   3.514  0.00  0.00    +0.099 A 
ATOM     16  C   UNL     1       4.653  10.068   2.912  0.00  0.00    +0.021 A 
ATOM     17  C   UNL     1       4.817  10.103   1.512  0.00  0.00    +0.002 A 
ATOM     18  C   UNL     1       6.079  10.134   0.924  0.00  0.00    +0.001 A 
ATOM     19  C   UNL     1       7.229  10.147   1.768  0.00  0.00    +0.020 A 
ENDBRANCH   2  10
BRANCH   2   3
ATOM      3  N   UNL     1       8.747   8.590   4.661  0.00  0.00    -0.154 NA
ATOM      4  C   UNL     1       9.174   8.430   6.043  0.00  0.00    +0.097 C 
ATOM      5  C   UNL     1      10.464   7.571   5.947  0.00  0.00    +0.038 C 
ATOM      6  C   UNL     1      11.348   7.920   4.747  0.00  0.00    +0.090 C 
ATOM      7  N   UNL     1      11.115   7.145   3.466  0.00  0.00    -0.217 NA
ATOM      8  C   UNL     1       9.816   7.411   2.717  0.00  0.00    +0.108 C 
ATOM      9  C   UNL     1       8.640   7.443   3.702  0.00  0.00    +0.115 C 
ENDBRANCH   2   3
TORSDOF 2
