REMARK  Name = 4X21
REMARK  4 active torsions:
REMARK  status: ('A' for Active; 'I' for Inactive)
REMARK    1  A    between atoms: C_4  and  C_5
REMARK    2  A    between atoms: C_5  and  N_6
REMARK    3  A    between atoms: C_12  and  N_13
REMARK    4  A    between atoms: C_15  and  C_20
REMARK                            x       y       z     vdW  Elec       q    Type
REMARK                         _______ _______ _______ _____ _____    ______ ____
ROOT
ATOM      6  N   UNL     1      13.329  31.987  72.011  0.00  0.00    -0.311 N 
ATOM      7  H   UNL     1      12.322  31.640  71.910  0.00  0.00    +0.149 HD
ATOM      8  C   UNL     1      13.587  33.171  71.486  0.00  0.00    +0.216 A 
ATOM      9  N   UNL     1      12.505  33.835  71.088  0.00  0.00    -0.222 NA
ATOM     10  C   UNL     1      12.707  35.019  70.552  0.00  0.00    +0.131 A 
ATOM     11  C   UNL     1      14.000  35.531  70.407  0.00  0.00    +0.058 A 
ATOM     12  I   UNL     1      14.198  37.432  69.568  0.00  0.00    -0.040 I 
ATOM     13  C   UNL     1      15.054  34.754  70.857  0.00  0.00    +0.091 A 
ATOM     23  N   UNL     1      14.840  33.568  71.404  0.00  0.00    -0.213 NA
ENDROOT
BRANCH   6   5
ATOM      1  C   UNL     1      16.173  29.554  72.530  0.00  0.00    +0.111 C 
ATOM      2  N   UNL     1      15.558  28.606  73.419  0.00  0.00    -0.285 N 
ATOM      3  C   UNL     1      14.587  29.229  74.316  0.00  0.00    +0.111 C 
ATOM      4  C   UNL     1      13.586  30.094  73.609  0.00  0.00    +0.041 C 
ATOM      5  C   UNL     1      14.238  31.098  72.706  0.00  0.00    +0.076 C 
ATOM     24  C   UNL     1      15.903  27.296  73.394  0.00  0.00    +0.302 C 
ATOM     25  O   UNL     1      15.408  26.463  74.150  0.00  0.00    -0.253 OA
ATOM     26  N   UNL     1      16.869  26.911  72.435  0.00  0.00    -0.299 N 
ATOM     27  H   UNL     1      17.291  27.656  71.793  0.00  0.00    +0.150 HD
ATOM     30  C   UNL     1      15.230  30.466  71.805  0.00  0.00    +0.041 C 
BRANCH  26  28
ATOM     28  C   UNL     1      17.304  25.530  72.299  0.00  0.00    +0.102 C 
ATOM     29  C   UNL     1      18.800  25.340  71.969  0.00  0.00    +0.024 C 
ENDBRANCH  26  28
ENDBRANCH   6   5
BRANCH  13  14
ATOM     14  C   UNL     1      16.431  35.183  70.757  0.00  0.00    +0.029 A 
ATOM     15  C   UNL     1      17.577  34.605  71.416  0.00  0.00    +0.011 A 
ATOM     16  C   UNL     1      17.731  33.550  72.304  0.00  0.00    +0.010 A 
ATOM     17  C   UNL     1      19.017  33.271  72.733  0.00  0.00    +0.001 A 
ATOM     18  C   UNL     1      20.121  33.996  72.329  0.00  0.00    +0.002 A 
ATOM     19  C   UNL     1      19.967  35.027  71.432  0.00  0.00    +0.028 A 
ATOM     20  C   UNL     1      18.705  35.331  70.988  0.00  0.00    +0.072 A 
ATOM     21  N   UNL     1      18.282  36.287  70.145  0.00  0.00    -0.254 NA
ATOM     22  C   UNL     1      16.955  36.162  70.011  0.00  0.00    +0.122 A 
ENDBRANCH  13  14
TORSDOF 3
