REMARK  Name = 2VX3
REMARK  7 active torsions:
REMARK  status: ('A' for Active; 'I' for Inactive)
REMARK    1  A    between atoms: C_7  and  C_8
REMARK    2  A    between atoms: C_8  and  C_9
REMARK    3  A    between atoms: C_8  and  C_12
REMARK    4  A    between atoms: C_9  and  C_10
REMARK    5  A    between atoms: C_10  and  N_11
REMARK    6  A    between atoms: N_14  and  C_15
REMARK    7  A    between atoms: C_25  and  C_27
REMARK                            x       y       z     vdW  Elec       q    Type
REMARK                         _______ _______ _______ _____ _____    ______ ____
ROOT
ATOM      7  C   UNL     1      39.255  22.304 -36.307  0.00  0.00    +0.034 A 
ATOM      8  C   UNL     1      38.676  22.403 -35.069  0.00  0.00    +0.025 A 
ATOM      9  C   UNL     1      39.123  21.580 -34.036  0.00  0.00    +0.029 A 
ATOM     10  C   UNL     1      40.135  20.638 -34.177  0.00  0.00    +0.068 A 
ATOM     11  N   UNL     1      40.669  19.766 -33.304  0.00  0.00    -0.275 N 
ATOM     12  H   UNL     1      40.363  19.648 -32.285  0.00  0.00    +0.189 HD
ATOM     13  N   UNL     1      41.570  19.119 -33.858  0.00  0.00    -0.157 NA
ATOM     14  C   UNL     1      41.729  19.495 -35.115  0.00  0.00    +0.155 A 
ATOM     15  N   UNL     1      42.611  18.854 -35.878  0.00  0.00    -0.265 N 
ATOM     16  H   UNL     1      42.895  17.862 -35.595  0.00  0.00    +0.157 HD
ATOM     17  C   UNL     1      43.161  19.375 -36.972  0.00  0.00    +0.249 C 
ATOM     24  O   UNL     1      43.010  20.541 -37.289  0.00  0.00    -0.270 OA
ATOM     25  C   UNL     1      40.767  20.499 -35.405  0.00  0.00    +0.043 A 
ATOM     26  C   UNL     1      40.324  21.346 -36.465  0.00  0.00    +0.036 A 
ENDROOT
BRANCH  17  18
ATOM     18  C   UNL     1      44.049  18.462 -37.869  0.00  0.00    +0.037 A 
ATOM     19  C   UNL     1      44.173  17.109 -37.645  0.00  0.00    +0.013 A 
ATOM     20  C   UNL     1      44.979  16.319 -38.463  0.00  0.00    +0.001 A 
ATOM     21  C   UNL     1      45.666  16.831 -39.547  0.00  0.00    +0.000 A 
ATOM     22  C   UNL     1      45.543  18.202 -39.778  0.00  0.00    +0.001 A 
ATOM     23  C   UNL     1      44.746  19.001 -38.955  0.00  0.00    +0.013 A 
ENDBRANCH  17  18
BRANCH   7   5
ATOM      4  C   UNL     1      39.025  22.867 -38.545  0.00  0.00    +0.225 C 
ATOM      5  N   UNL     1      38.777  23.155 -37.261  0.00  0.00    -0.285 N 
ATOM      6  H   UNL     1      38.220  24.028 -36.991  0.00  0.00    +0.155 HD
ATOM     27  O   UNL     1      39.679  21.870 -38.889  0.00  0.00    -0.275 OA
BRANCH   4   3
ATOM      3  C   UNL     1      38.620  23.844 -39.671  0.00  0.00    +0.106 C 
BRANCH   3   2
ATOM      1  C   UNL     1      39.207  26.276 -39.071  0.00  0.00    +0.024 A 
ATOM      2  C   UNL     1      39.508  25.073 -39.669  0.00  0.00    -0.034 A 
ATOM     33  C   UNL     1      40.690  24.889 -40.360  0.00  0.00    +0.004 A 
ATOM     34  C   UNL     1      41.637  25.875 -40.465  0.00  0.00    +0.002 A 
ATOM     35  C   UNL     1      41.369  27.069 -39.864  0.00  0.00    +0.020 A 
ATOM     36  C   UNL     1      40.192  27.270 -39.190  0.00  0.00    +0.041 A 
ATOM     37 CL   UNL     1      40.055  28.855 -38.525  0.00  0.00    -0.084 Cl
ENDBRANCH   3   2
BRANCH   3  28
ATOM     28  C   UNL     1      37.181  24.222 -39.904  0.00  0.00    +0.032 C 
BRANCH  28  29
ATOM     29  C   UNL     1      37.225  24.465 -41.403  0.00  0.00    +0.079 C 
BRANCH  29  30
ATOM     30  N   UNL     1      35.975  24.976 -41.925  0.00  0.00    -0.330 NA
ATOM     31  H   UNL     1      35.193  24.272 -41.731  0.00  0.00    +0.118 HD
ATOM     32  H   UNL     1      35.743  25.906 -41.450  0.00  0.00    +0.118 HD
ENDBRANCH  29  30
ENDBRANCH  28  29
ENDBRANCH   3  28
ENDBRANCH   4   3
ENDBRANCH   7   5
TORSDOF 7
