REMARK  Name = 1vyz_ligand
REMARK  2 active torsions:
REMARK  status: ('A' for Active; 'I' for Inactive)
REMARK    1  A    between atoms: C1_1  and  C2_2
REMARK    2  A    between atoms: C10_10  and  C11_11
REMARK                            x       y       z     vdW  Elec       q    Type
REMARK                         _______ _______ _______ _____ _____    ______ ____
ROOT
ATOM      1  C   UNL     1      13.346  45.833  22.176  0.00  0.00    +0.060 A 
ATOM      2  N   UNL     1      12.615  46.525  21.228  0.00  0.00    -0.238 N 
ATOM      3  H   UNL     1      12.856  46.593  20.229  0.00  0.00    +0.243 HD
ATOM      4  N   UNL     1      11.536  47.100  21.809  0.00  0.00    -0.237 NA
ATOM      5  C   UNL     1      11.569  46.776  23.146  0.00  0.00    +0.096 A 
ATOM      6  N   UNL     1      10.593  47.182  24.154  0.00  0.00    -0.236 N 
ATOM      7  H   UNL     1      10.092  48.017  23.925  0.00  0.00    +0.220 HD
ATOM      8  C   UNL     1      10.241  46.632  25.347  0.00  0.00    +0.229 C 
ATOM      9  O   UNL     1      10.879  45.668  25.805  0.00  0.00    -0.375 OA
ATOM     16  C   UNL     1      12.694  45.987  23.394  0.00  0.00    -0.007 A 
ENDROOT
BRANCH   8  10
ATOM     10  C   UNL     1       9.063  47.238  26.121  0.00  0.00    +0.055 A 
ATOM     11  C   UNL     1       8.647  48.613  26.022  0.00  0.00    +0.025 A 
ATOM     12  C   UNL     1       7.573  49.111  26.804  0.00  0.00    +0.007 A 
ATOM     13  C   UNL     1       6.890  48.251  27.699  0.00  0.00    +0.008 A 
ATOM     14  C   UNL     1       7.272  46.896  27.819  0.00  0.00    +0.007 A 
ATOM     15  C   UNL     1       8.347  46.392  27.038  0.00  0.00    +0.025 A 
ENDBRANCH   8  10
BRANCH   1  17
ATOM     17  C   UNL     1      14.638  45.046  21.882  0.00  0.00    +0.070 C 
ATOM     18  C   UNL     1      15.254  43.853  22.549  0.00  0.00    +0.025 C 
ATOM     19  C   UNL     1      15.776  45.266  22.896  0.00  0.00    +0.025 C 
ENDBRANCH   1  17
TORSDOF 2
