REMARK  Name = 2zm1_ligand
REMARK  2 active torsions:
REMARK  status: ('A' for Active; 'I' for Inactive)
REMARK    1  A    between atoms: C17_3  and  N16_8
REMARK    2  A    between atoms: C5_12  and  C10_18
REMARK                            x       y       z     vdW  Elec       q    Type
REMARK                         _______ _______ _______ _____ _____    ______ ____
ROOT
ATOM      8  N   UNL     1      20.941  37.420   8.252  0.00  0.00    -0.249 N 
ATOM      9  H   UNL     1      20.755  38.071   9.028  0.00  0.00    +0.219 HD
ATOM     10  C   UNL     1      22.239  36.971   8.093  0.00  0.00    +0.168 A 
ATOM     11  C   UNL     1      23.387  37.592   8.816  0.00  0.00    +0.147 A 
ATOM     12  C   UNL     1      23.448  38.680   9.742  0.00  0.00    +0.044 A 
ATOM     13  N   UNL     1      24.749  38.804  10.058  0.00  0.00    -0.325 NA
ATOM     14  C   UNL     1      25.473  37.877   9.405  0.00  0.00    +0.231 A 
ATOM     15  N   UNL     1      24.657  37.122   8.659  0.00  0.00    -0.200 N 
ATOM     16  C   UNL     1      24.900  36.075   7.828  0.00  0.00    +0.115 A 
ATOM     23  C   UNL     1      23.824  35.504   7.178  0.00  0.00    +0.088 A 
ATOM     24  N   UNL     1      22.558  35.924   7.300  0.00  0.00    -0.295 NA
ENDROOT
BRANCH   8   7
ATOM      1 CL   UNL     1      21.026  38.793   5.523  0.00  0.00    -0.079 Cl
ATOM      2  C   UNL     1      19.775  37.624   6.076  0.00  0.00    +0.063 A 
ATOM      3  C   UNL     1      18.696  37.273   5.255  0.00  0.00    +0.002 A 
ATOM      4  C   UNL     1      17.740  36.363   5.735  0.00  0.00    -0.021 A 
ATOM      5  C   UNL     1      17.848  35.840   7.030  0.00  0.00    -0.012 A 
ATOM      6  C   UNL     1      18.903  36.169   7.891  0.00  0.00    +0.016 A 
ATOM      7  C   UNL     1      19.882  37.066   7.457  0.00  0.00    +0.080 A 
ENDBRANCH   8   7
BRANCH  16  17
ATOM     17  C   UNL     1      26.260  35.461   7.566  0.00  0.00    +0.010 A 
ATOM     18  C   UNL     1      27.202  35.285   8.587  0.00  0.00    +0.005 A 
ATOM     19  C   UNL     1      28.434  34.665   8.316  0.00  0.00    -0.003 A 
ATOM     20  C   UNL     1      28.748  34.218   7.007  0.00  0.00    -0.005 A 
ATOM     21  C   UNL     1      27.809  34.359   5.977  0.00  0.00    -0.003 A 
ATOM     22  C   UNL     1      26.570  34.972   6.270  0.00  0.00    +0.005 A 
ENDBRANCH  16  17
TORSDOF 2
