REMARK  Name = 3w2o_ligand
REMARK  12 active torsions:
REMARK  status: ('A' for Active; 'I' for Inactive)
REMARK    1  A    between atoms: N3_2  and  C7_6
REMARK    2  A    between atoms: C6_5  and  C7_6
REMARK    3  A    between atoms: C6_5  and  N2_33
REMARK    4  A    between atoms: C8_7  and  C9_35
REMARK    5  A    between atoms: C10_8  and  N4_27
REMARK    6  A    between atoms: C13_9  and  O1_22
REMARK    7  A    between atoms: C20_12  and  C22_14
REMARK    8  A    between atoms: C24_15  and  C23_36
REMARK    9  A    between atoms: C16_21  and  O1_22
REMARK   10  A    between atoms: C9_35  and  C23_36
REMARK   11  A    between atoms: C23_36  and  O2_37
REMARK   12  A    between atoms: C23_36  and  C25_38
REMARK                            x       y       z     vdW  Elec       q    Type
REMARK                         _______ _______ _______ _____ _____    ______ ____
ROOT
ATOM      1  N   UNL     1     -52.151   2.122 -22.870  0.00  0.00    -0.270 NA
ATOM      2  C   UNL     1     -53.140   2.633 -22.108  0.00  0.00    +0.141 A 
ATOM      3  N   UNL     1     -53.058   2.573 -20.768  0.00  0.00    -0.313 NA
ATOM      4  C   UNL     1     -51.975   1.983 -20.210  0.00  0.00    +0.038 A 
ATOM      5  C   UNL     1     -50.947   1.442 -20.952  0.00  0.00    +0.140 A 
ATOM      6  N   UNL     1     -50.063   0.945 -20.026  0.00  0.00    -0.252 N 
ATOM     19  C   UNL     1     -50.569   1.185 -18.786  0.00  0.00    +0.136 A 
ATOM     20  C   UNL     1     -51.778   1.847 -18.810  0.00  0.00    -0.013 A 
ATOM     21  C   UNL     1     -51.032   1.518 -22.355  0.00  0.00    +0.168 A 
ATOM     22  N   UNL     1     -50.101   1.038 -23.218  0.00  0.00    -0.260 N 
ATOM     23  H   UNL     1     -49.400   0.381 -22.847  0.00  0.00    +0.214 HD
ENDROOT
BRANCH  22  24
ATOM     24  C   UNL     1     -50.024   1.366 -24.558  0.00  0.00    +0.055 A 
ATOM     25  C   UNL     1     -50.176   2.682 -25.040  0.00  0.00    +0.021 A 
ATOM     26  C   UNL     1     -50.108   2.971 -26.414  0.00  0.00    +0.064 A 
ATOM     27 CL   UNL     1     -50.316   4.652 -27.038  0.00  0.00    -0.080 Cl
ATOM     28  C   UNL     1     -49.861   1.951 -27.333  0.00  0.00    +0.120 A 
ATOM     29  C   UNL     1     -49.706   0.633 -26.859  0.00  0.00    +0.016 A 
ATOM     41  C   UNL     1     -49.787   0.351 -25.489  0.00  0.00    +0.007 A 
BRANCH  28  30
ATOM     30  O   UNL     1     -49.791   2.280 -28.682  0.00  0.00    -0.257 OA
BRANCH  30  31
ATOM     31  C   UNL     1     -49.502   1.381 -29.699  0.00  0.00    +0.142 A 
ATOM     32  C   UNL     1     -48.245   0.763 -29.770  0.00  0.00    +0.077 A 
ATOM     33  C   UNL     1     -47.942  -0.142 -30.792  0.00  0.00    +0.039 A 
ATOM     34  C   UNL     1     -48.908  -0.412 -31.768  0.00  0.00    +0.036 A 
ATOM     35  C   UNL     1     -50.161   0.201 -31.711  0.00  0.00    +0.029 A 
ATOM     40  C   UNL     1     -50.456   1.093 -30.678  0.00  0.00    +0.081 A 
BRANCH  33  36
ATOM     36  C   UNL     1     -46.573  -0.795 -30.841  0.00  0.00    +0.374 C 
ATOM     37  F   UNL     1     -45.722   0.038 -31.420  0.00  0.00    -0.221 F 
ATOM     38  F   UNL     1     -46.617  -1.915 -31.558  0.00  0.00    -0.221 F 
ATOM     39  F   UNL     1     -46.125  -1.068 -29.615  0.00  0.00    -0.221 F 
ENDBRANCH  33  36
ENDBRANCH  30  31
ENDBRANCH  28  30
ENDBRANCH  22  24
BRANCH   6   7
ATOM      7  C   UNL     1     -48.772   0.236 -20.068  0.00  0.00    +0.200 C 
BRANCH   7   8
ATOM      8  C   UNL     1     -47.983   0.195 -21.357  0.00  0.00    +0.167 C 
BRANCH   8   9
ATOM      9  N   UNL     1     -47.866  -1.165 -21.841  0.00  0.00    -0.284 N 
ATOM     10  H   UNL     1     -48.326  -1.913 -21.363  0.00  0.00    +0.185 HD
ATOM     11  C   UNL     1     -47.142  -1.408 -22.926  0.00  0.00    +0.179 C 
ATOM     18  O   UNL     1     -47.362  -0.871 -24.002  0.00  0.00    -0.397 OA
BRANCH  11  12
ATOM     12  C   UNL     1     -45.991  -2.374 -22.761  0.00  0.00    +0.172 C 
BRANCH  12  13
ATOM     13  C   UNL     1     -44.650  -1.696 -23.055  0.00  0.00    +0.077 C 
ATOM     14  C   UNL     1     -44.417  -1.626 -24.563  0.00  0.00    +0.043 C 
ATOM     17  C   UNL     1     -44.523  -0.308 -22.432  0.00  0.00    +0.043 C 
BRANCH  13  15
ATOM     15  O   UNL     1     -43.616  -2.495 -22.478  0.00  0.00    -0.387 OA
ATOM     16  H   UNL     1     -42.773  -2.092 -22.649  0.00  0.00    +0.210 HD
ENDBRANCH  13  15
ENDBRANCH  12  13
ENDBRANCH  11  12
ENDBRANCH   8   9
ENDBRANCH   7   8
ENDBRANCH   6   7
TORSDOF 10
