REMARK  Name = 3BHT
REMARK  3 active torsions:
REMARK  status: ('A' for Active; 'I' for Inactive)
REMARK    1  A    between atoms: C_3  and  O_15
REMARK    2  A    between atoms: C_4  and  C_11
REMARK    3  A    between atoms: O_15  and  C_16
REMARK                            x       y       z     vdW  Elec       q    Type
REMARK                         _______ _______ _______ _____ _____    ______ ____
ROOT
ATOM      1  C   UNL     1      -7.096  22.886 -24.499  0.00  0.00    +0.066 A 
ATOM      2  C   UNL     1      -7.161  21.951 -23.451  0.00  0.00    +0.133 A 
ATOM      5  C   UNL     1      -8.532  21.553 -23.042  0.00  0.00    +0.071 A 
ATOM      6  C   UNL     1      -9.656  22.100 -23.800  0.00  0.00    +0.164 A 
ATOM      7  N   UNL     1      -9.492  22.993 -24.813  0.00  0.00    -0.235 NA
ATOM      8  N   UNL     1     -10.814  21.575 -23.307  0.00  0.00    -0.235 NA
ATOM      9  C   UNL     1     -10.560  20.698 -22.288  0.00  0.00    +0.124 A 
ATOM     10  C   UNL     1      -9.063  20.545 -22.146  0.00  0.00    +0.033 A 
ATOM     20  C   UNL     1      -8.242  23.377 -25.142  0.00  0.00    +0.117 A 
ENDROOT
BRANCH  10  11
ATOM     11  C   UNL     1      -8.514  19.839 -20.948  0.00  0.00    +0.078 A 
ATOM     12  N   UNL     1      -9.405  19.395 -20.020  0.00  0.00    -0.215 NA
ATOM     13  C   UNL     1      -9.023  18.669 -18.948  0.00  0.00    +0.213 A 
ATOM     14  N   UNL     1      -7.715  18.305 -18.803  0.00  0.00    -0.223 NA
ATOM     15  C   UNL     1      -6.792  18.682 -19.716  0.00  0.00    +0.116 A 
ATOM     16  N   UNL     1      -9.966  18.317 -18.030  0.00  0.00    -0.328 N 
ATOM     17  H   UNL     1     -10.984  18.615 -18.168  0.00  0.00    +0.145 HD
ATOM     18  H   UNL     1      -9.688  17.742 -17.171  0.00  0.00    +0.145 HD
ATOM     19  C   UNL     1      -7.173  19.422 -20.844  0.00  0.00    +0.048 A 
ENDBRANCH  10  11
BRANCH   2   3
ATOM      3  O   UNL     1      -6.052  21.454 -22.811  0.00  0.00    -0.494 OA
ATOM      4  C   UNL     1      -4.720  21.799 -23.198  0.00  0.00    +0.277 C 
ENDBRANCH   2   3
TORSDOF 2
