REMARK  Name = 3vbx_ligand
REMARK  0 active torsions:
REMARK  status: ('A' for Active; 'I' for Inactive)
REMARK                            x       y       z     vdW  Elec       q    Type
REMARK                         _______ _______ _______ _____ _____    ______ ____
ROOT
ATOM      1  C   UNL     1     -17.429 -35.173  -0.659  0.00  0.00    +0.274 C 
ATOM      2  C   UNL     1     -18.268 -35.956   0.126  0.00  0.00    +0.149 C 
ATOM      3  O   UNL     1     -18.346 -35.652   1.396  0.00  0.00    -0.382 OA
ATOM      4  C   UNL     1     -19.074 -37.003  -0.397  0.00  0.00    +0.072 A 
ATOM      5  C   UNL     1     -19.972 -37.752   0.334  0.00  0.00    +0.027 A 
ATOM      6  C   UNL     1     -20.723 -38.715  -0.357  0.00  0.00    +0.008 A 
ATOM      7 BR   UNL     1     -21.787 -39.743   0.611  0.00  0.00    -0.058 Br
ATOM      8  C   UNL     1     -20.602 -39.033  -1.708  0.00  0.00    +0.010 A 
ATOM      9  C   UNL     1     -19.743 -38.244  -2.432  0.00  0.00    +0.039 A 
ATOM     10  C   UNL     1     -19.035 -37.265  -1.761  0.00  0.00    +0.147 A 
ATOM     11  O   UNL     1     -18.131 -36.562  -2.500  0.00  0.00    -0.203 OA
ATOM     12  C   UNL     1     -17.364 -35.554  -2.007  0.00  0.00    +0.277 C 
ATOM     13  O   UNL     1     -16.607 -34.958  -2.794  0.00  0.00    -0.360 OA
ENDROOT
TORSDOF 0
