REMARK  Name = 3C13
REMARK  4 active torsions:
REMARK  status: ('A' for Active; 'I' for Inactive)
REMARK    1  A    between atoms: C_1  and  O_2
REMARK    2  A    between atoms: C_4  and  O_5
REMARK    3  A    between atoms: C_12  and  C_13
REMARK    4  A    between atoms: C_15  and  O_16
REMARK                            x       y       z     vdW  Elec       q    Type
REMARK                         _______ _______ _______ _____ _____    ______ ____
ROOT
ATOM      1  C   UNL     1      17.279 -55.275 -46.516  0.00  0.00    +0.132 A 
ATOM      2  C   UNL     1      17.095 -54.339 -45.506  0.00  0.00    +0.075 A 
ATOM      3  C   UNL     1      17.254 -52.999 -45.810  0.00  0.00    +0.202 C 
ATOM      4  O   UNL     1      17.545 -52.684 -46.957  0.00  0.00    -0.286 OA
ATOM      5  C   UNL     1      17.094 -52.028 -44.821  0.00  0.00    +0.074 A 
ATOM      6  C   UNL     1      17.247 -50.692 -45.156  0.00  0.00    +0.129 A 
ATOM      9  C   UNL     1      17.097 -49.685 -44.190  0.00  0.00    +0.049 A 
ATOM     10  C   UNL     1      16.768 -50.028 -42.884  0.00  0.00    -0.046 A 
ATOM     11  C   UNL     1      16.595 -48.903 -41.844  0.00  0.00    +0.044 C 
ATOM     12  C   UNL     1      16.591 -51.386 -42.555  0.00  0.00    +0.016 A 
ATOM     13  C   UNL     1      16.756 -52.402 -43.517  0.00  0.00    +0.037 A 
ATOM     14  C   UNL     1      16.588 -53.773 -43.217  0.00  0.00    +0.195 C 
ATOM     15  O   UNL     1      16.293 -54.167 -42.079  0.00  0.00    -0.287 OA
ATOM     16  C   UNL     1      16.768 -54.742 -44.225  0.00  0.00    +0.040 A 
ATOM     17  C   UNL     1      16.620 -56.098 -43.954  0.00  0.00    +0.058 A 
ATOM     18  C   UNL     1      16.805 -57.020 -44.983  0.00  0.00    +0.121 A 
ATOM     21  C   UNL     1      17.120 -56.621 -46.257  0.00  0.00    +0.091 A 
ENDROOT
BRANCH   6   7
ATOM      7  O   UNL     1      17.575 -50.359 -46.437  0.00  0.00    -0.506 OA
ATOM      8  H   UNL     1      16.835 -49.731 -46.836  0.00  0.00    +0.292 HD
ENDBRANCH   6   7
BRANCH  18  19
ATOM     19  O   UNL     1      16.666 -58.319 -44.760  0.00  0.00    -0.507 OA
ATOM     20  H   UNL     1      15.896 -58.698 -45.365  0.00  0.00    +0.292 HD
ENDBRANCH  18  19
BRANCH   1  22
ATOM     22  O   UNL     1      17.599 -54.857 -47.743  0.00  0.00    -0.506 OA
ATOM     23  H   UNL     1      18.519 -55.276 -48.028  0.00  0.00    +0.292 HD
ENDBRANCH   1  22
TORSDOF 3
