REMARK  Name = 4FTL
REMARK  5 active torsions:
REMARK  status: ('A' for Active; 'I' for Inactive)
REMARK    1  A    between atoms: O_1  and  C_2
REMARK    2  A    between atoms: C_7  and  C_8
REMARK    3  A    between atoms: C_13  and  C_14
REMARK    4  A    between atoms: C_25  and  C_26
REMARK    5  A    between atoms: C_26  and  O_27
REMARK                            x       y       z     vdW  Elec       q    Type
REMARK                         _______ _______ _______ _____ _____    ______ ____
ROOT
ATOM     11  C   UNL     1      15.866  -3.439   9.783  0.00  0.00    +0.070 A 
ATOM     12  N   UNL     1      16.030  -2.418   8.911  0.00  0.00    -0.276 N 
ATOM     13  H   UNL     1      15.357  -1.742   8.565  0.00  0.00    +0.189 HD
ATOM     14  N   UNL     1      17.301  -2.322   8.428  0.00  0.00    -0.173 NA
ATOM     15  C   UNL     1      17.961  -3.321   9.019  0.00  0.00    +0.097 A 
ATOM     16  C   UNL     1      19.287  -3.890   9.131  0.00  0.00    +0.006 A 
ATOM     17  C   UNL     1      20.480  -3.562   8.486  0.00  0.00    +0.016 A 
ATOM     18  C   UNL     1      21.658  -4.248   8.773  0.00  0.00    -0.021 A 
ATOM     22  C   UNL     1      21.620  -5.262   9.729  0.00  0.00    +0.006 A 
ATOM     23  C   UNL     1      20.437  -5.603  10.362  0.00  0.00    +0.005 A 
ATOM     24  C   UNL     1      19.260  -4.926  10.057  0.00  0.00    -0.034 A 
ATOM     25  C   UNL     1      17.859  -5.154  10.546  0.00  0.00    +0.075 C 
ATOM     26  C   UNL     1      17.087  -4.070   9.890  0.00  0.00    +0.010 A 
ENDROOT
BRANCH  11  10
ATOM      7  C   UNL     1      12.278  -3.987  12.071  0.00  0.00    -0.018 A 
ATOM      8  C   UNL     1      12.458  -2.877  11.250  0.00  0.00    +0.009 A 
ATOM      9  C   UNL     1      13.579  -2.733  10.460  0.00  0.00    +0.010 A 
ATOM     10  C   UNL     1      14.567  -3.707  10.439  0.00  0.00    +0.000 A 
ATOM     27  C   UNL     1      14.375  -4.853  11.206  0.00  0.00    +0.010 A 
ATOM     28  C   UNL     1      13.250  -4.990  12.005  0.00  0.00    +0.009 A 
BRANCH   7   6
ATOM      3  C   UNL     1       8.575  -4.410  14.222  0.00  0.00    +0.117 A 
ATOM      4  C   UNL     1       9.030  -3.157  13.854  0.00  0.00    +0.046 A 
ATOM      5  C   UNL     1      10.244  -3.027  13.207  0.00  0.00    +0.012 A 
ATOM      6  C   UNL     1      11.025  -4.140  12.880  0.00  0.00    -0.018 A 
ATOM     29  C   UNL     1      10.580  -5.386  13.326  0.00  0.00    +0.012 A 
ATOM     30  C   UNL     1       9.366  -5.527  13.978  0.00  0.00    +0.046 A 
BRANCH   3   1
ATOM      1  O   UNL     1       7.363  -4.500  14.846  0.00  0.00    -0.507 OA
ATOM      2  H   UNL     1       7.207  -5.447  15.094  0.00  0.00    +0.292 HD
ENDBRANCH   3   1
ENDBRANCH   7   6
ENDBRANCH  11  10
BRANCH  18  19
ATOM     19  C   UNL     1      22.932  -3.915   8.043  0.00  0.00    +0.191 C 
BRANCH  19  20
ATOM     20  O   UNL     1      23.707  -5.062   7.738  0.00  0.00    -0.390 OA
ATOM     21  H   UNL     1      23.187  -5.568   7.061  0.00  0.00    +0.210 HD
ENDBRANCH  19  20
ENDBRANCH  18  19
TORSDOF 5
