REMARK  Name = 1ouy_ligand
REMARK  4 active torsions:
REMARK  status: ('A' for Active; 'I' for Inactive)
REMARK    1  A    between atoms: C4_5  and  S1_6
REMARK    2  A    between atoms: S1_6  and  C5_7
REMARK    3  A    between atoms: C6_8  and  C18_26
REMARK    4  A    between atoms: N1_11  and  C12_18
REMARK                            x       y       z     vdW  Elec       q    Type
REMARK                         _______ _______ _______ _____ _____    ______ ____
ROOT
ATOM      8  C   UNL     1      43.454  31.538  31.792  0.00  0.00    +0.101 A 
ATOM      9  N   UNL     1      43.075  32.705  32.387  0.00  0.00    -0.285 NA
ATOM     10  C   UNL     1      43.976  33.694  32.588  0.00  0.00    +0.099 A 
ATOM     11  C   UNL     1      43.475  34.951  33.235  0.00  0.00    +0.152 A 
ATOM     12  N   UNL     1      44.482  35.991  33.417  0.00  0.00    -0.230 NA
ATOM     13  C   UNL     1      45.784  35.888  33.066  0.00  0.00    +0.302 A 
ATOM     14  O   UNL     1      46.515  36.842  33.272  0.00  0.00    -0.376 OA
ATOM     15  N   UNL     1      46.221  34.687  32.477  0.00  0.00    -0.149 N 
ATOM     24  C   UNL     1      45.347  33.586  32.245  0.00  0.00    +0.134 A 
ATOM     25  C   UNL     1      45.743  32.349  31.629  0.00  0.00    +0.053 A 
ATOM     26  C   UNL     1      44.803  31.304  31.408  0.00  0.00    +0.010 A 
ENDROOT
BRANCH  15  16
ATOM     16  C   UNL     1      47.578  34.636  32.133  0.00  0.00    +0.130 A 
ATOM     17  C   UNL     1      48.003  35.042  30.811  0.00  0.00    +0.070 A 
ATOM     18 CL   UNL     1      46.853  35.608  29.616  0.00  0.00    -0.079 Cl
ATOM     19  C   UNL     1      49.371  35.007  30.435  0.00  0.00    +0.002 A 
ATOM     20  C   UNL     1      50.352  34.553  31.365  0.00  0.00    -0.021 A 
ATOM     21  C   UNL     1      49.961  34.147  32.657  0.00  0.00    +0.002 A 
ATOM     22  C   UNL     1      48.599  34.177  33.044  0.00  0.00    +0.070 A 
ATOM     23 CL   UNL     1      48.220  33.657  34.648  0.00  0.00    -0.079 Cl
ENDBRANCH  15  16
BRANCH  26  27
ATOM     27  C   UNL     1      45.245  30.049  30.775  0.00  0.00    +0.081 C 
ATOM     28  C   UNL     1      45.611  30.069  29.460  0.00  0.00    -0.029 C 
ATOM     29  C   UNL     1      46.082  28.824  28.709  0.00  0.00    +0.090 C 
ATOM     30  N   UNL     1      46.650  27.844  29.665  0.00  0.00    -0.303 N 
ATOM     31  H   UNL     1      47.591  27.438  29.561  0.00  0.00    +0.202 HD
ATOM     32  C   UNL     1      45.737  27.500  30.787  0.00  0.00    +0.090 C 
ATOM     33  C   UNL     1      45.279  28.745  31.596  0.00  0.00    -0.029 C 
ENDBRANCH  26  27
BRANCH   8   7
ATOM      7  S   UNL     1      42.161  30.336  31.545  0.00  0.00    -0.035 S 
BRANCH   7   6
ATOM      1  F   UNL     1      37.073  33.276  32.353  0.00  0.00    -0.190 F 
ATOM      2  C   UNL     1      38.218  32.625  32.157  0.00  0.00    +0.124 A 
ATOM      3  C   UNL     1      39.067  33.037  31.108  0.00  0.00    +0.057 A 
ATOM      4  C   UNL     1      40.273  32.330  30.920  0.00  0.00    +0.144 A 
ATOM      5  F   UNL     1      41.089  32.710  29.925  0.00  0.00    -0.189 F 
ATOM      6  C   UNL     1      40.638  31.238  31.767  0.00  0.00    +0.060 A 
ATOM     34  C   UNL     1      39.758  30.853  32.808  0.00  0.00    +0.004 A 
ATOM     35  C   UNL     1      38.543  31.549  33.014  0.00  0.00    +0.018 A 
ENDBRANCH   7   6
ENDBRANCH   8   7
TORSDOF 4
