REMARK  Name = 1jsv_ligand
REMARK  4 active torsions:
REMARK  status: ('A' for Active; 'I' for Inactive)
REMARK    1  A    between atoms: C15_7  and  N18_8
REMARK    2  A    between atoms: N18_8  and  C01_9
REMARK    3  A    between atoms: C04_14  and  S07_15
REMARK    4  A    between atoms: S07_15  and  N10_18
REMARK                            x       y       z     vdW  Elec       q    Type
REMARK                         _______ _______ _______ _____ _____    ______ ____
ROOT
ATOM      9  C   UNL     1       9.668  11.514  25.358  0.00  0.00    +0.063 A 
ATOM     10  C   UNL     1       9.638  10.246  25.977  0.00  0.00    +0.017 A 
ATOM     11  C   UNL     1       8.877  10.034  27.132  0.00  0.00    +0.016 A 
ATOM     12  C   UNL     1       8.069  11.051  27.656  0.00  0.00    +0.096 A 
ATOM     19  C   UNL     1       8.031  12.313  27.008  0.00  0.00    +0.016 A 
ATOM     20  C   UNL     1       8.814  12.529  25.859  0.00  0.00    +0.017 A 
ENDROOT
BRANCH  12  13
ATOM     13  S   UNL     1       6.879  10.685  28.850  0.00  0.00    +0.061 S 
ATOM     17  O   UNL     1       6.197  11.981  29.160  0.00  0.00    -0.152 OA
ATOM     18  O   UNL     1       5.916   9.791  28.291  0.00  0.00    -0.152 OA
BRANCH  13  14
ATOM     14  N   UNL     1       7.465  10.111  30.219  0.00  0.00    -0.262 NA
ATOM     15  H   UNL     1       8.452   9.991  30.329  0.00  0.00    +0.163 HD
ATOM     16  H   UNL     1       6.846   9.872  30.967  0.00  0.00    +0.163 HD
ENDBRANCH  13  14
ENDBRANCH  12  13
BRANCH   9   7
ATOM      7  N   UNL     1      10.461  11.752  24.308  0.00  0.00    -0.257 N 
ATOM      8  H   UNL     1      10.250  12.626  23.805  0.00  0.00    +0.215 HD
BRANCH   7   6
ATOM      1  N   UNL     1      14.213   8.687  24.623  0.00  0.00    -0.319 N 
ATOM      2  H   UNL     1      15.021   8.256  24.151  0.00  0.00    +0.180 HD
ATOM      3  H   UNL     1      14.011   8.462  25.608  0.00  0.00    +0.180 HD
ATOM      4  C   UNL     1      13.403   9.565  23.937  0.00  0.00    +0.111 A 
ATOM      5  C   UNL     1      12.250  10.151  24.533  0.00  0.00    +0.082 A 
ATOM      6  C   UNL     1      11.471  11.059  23.801  0.00  0.00    +0.133 A 
ATOM     21  N   UNL     1      11.790  11.296  22.473  0.00  0.00    -0.266 NA
ATOM     22  C   UNL     1      12.828  10.644  21.928  0.00  0.00    +0.163 A 
ATOM     23  N   UNL     1      13.708   9.833  22.638  0.00  0.00    -0.269 NA
ENDBRANCH   7   6
ENDBRANCH   9   7
TORSDOF 4
