REMARK  Name = 5VCW
REMARK  12 active torsions:
REMARK  status: ('A' for Active; 'I' for Inactive)
REMARK    1  A    between atoms: C_2  and  O_25
REMARK    2  A    between atoms: C_4  and  C_26
REMARK    3  A    between atoms: C_9  and  C_10
REMARK    4  A    between atoms: C_11  and  C_12
REMARK    5  A    between atoms: C_12  and  N_15
REMARK    6  A    between atoms: N_14  and  C_23
REMARK    7  A    between atoms: N_15  and  C_16
REMARK    8  A    between atoms: N_15  and  C_17
REMARK    9  A    between atoms: C_20  and  C_27
REMARK   10  A    between atoms: C_21  and  N_29
REMARK   11  A    between atoms: O_25  and  C_26
REMARK   12  A    between atoms: N_29  and  C_30
REMARK                            x       y       z     vdW  Elec       q    Type
REMARK                         _______ _______ _______ _____ _____    ______ ____
ROOT
ATOM      1  C   UNL     1      18.764  14.062   8.684  0.00  0.00    +0.025 A 
ATOM      2  C   UNL     1      17.539  13.635   8.133  0.00  0.00    +0.039 A 
ATOM      3  C   UNL     1      16.989  12.362   8.382  0.00  0.00    +0.077 A 
ATOM     14  C   UNL     1      17.706  11.476   9.211  0.00  0.00    +0.144 A 
ATOM     18  C   UNL     1      18.940  11.859   9.774  0.00  0.00    +0.075 A 
ATOM     19  C   UNL     1      19.287  15.379   8.418  0.00  0.00    +0.060 A 
ATOM     30  C   UNL     1      20.540  15.696   9.034  0.00  0.00    +0.091 A 
ATOM     33  C   UNL     1      21.185  14.729   9.856  0.00  0.00    +0.132 A 
ATOM     34  N   UNL     1      20.652  13.490  10.075  0.00  0.00    -0.254 NA
ATOM     35  C   UNL     1      19.465  13.141   9.522  0.00  0.00    +0.076 A 
ENDROOT
BRANCH   3   4
ATOM      4  N   UNL     1      15.791  11.965   7.847  0.00  0.00    -0.279 N 
ATOM      5  H   UNL     1      15.671  10.910   7.712  0.00  0.00    +0.155 HD
ATOM      6  C   UNL     1      14.728  12.736   7.462  0.00  0.00    +0.241 C 
ATOM      7  O   UNL     1      14.901  13.893   7.011  0.00  0.00    -0.271 OA
BRANCH   6   8
ATOM      8  C   UNL     1      13.439  12.230   7.554  0.00  0.00    +0.064 C 
ATOM      9  C   UNL     1      12.395  12.720   6.857  0.00  0.00    -0.007 C 
BRANCH   9  10
ATOM     10  C   UNL     1      11.047  12.179   6.968  0.00  0.00    +0.111 C 
BRANCH  10  11
ATOM     11  N   UNL     1      10.133  12.617   5.857  0.00  0.00    -0.305 NA
ATOM     12  C   UNL     1       9.250  13.756   6.254  0.00  0.00    +0.105 C 
ATOM     13  C   UNL     1      10.810  12.844   4.538  0.00  0.00    +0.105 C 
ENDBRANCH  10  11
ENDBRANCH   9  10
ENDBRANCH   6   8
ENDBRANCH   3   4
BRANCH  19  20
ATOM     20  N   UNL     1      18.609  16.274   7.555  0.00  0.00    -0.313 N 
ATOM     21  H   UNL     1      17.541  16.221   7.505  0.00  0.00    +0.152 HD
BRANCH  20  22
ATOM     22  C   UNL     1      19.264  17.224   6.764  0.00  0.00    +0.033 A 
ATOM     23  C   UNL     1      18.698  18.523   6.643  0.00  0.00    +0.026 A 
ATOM     24  C   UNL     1      19.342  19.540   5.903  0.00  0.00    +0.041 A 
ATOM     25  C   UNL     1      20.577  19.294   5.276  0.00  0.00    +0.142 A 
ATOM     26  F   UNL     1      21.182  20.236   4.605  0.00  0.00    -0.204 F 
ATOM     27  C   UNL     1      21.170  18.028   5.373  0.00  0.00    +0.078 A 
ATOM     28 CL   UNL     1      22.661  17.768   4.601  0.00  0.00    -0.081 Cl
ATOM     29  C   UNL     1      20.520  17.003   6.109  0.00  0.00    +0.046 A 
ENDBRANCH  20  22
ENDBRANCH  19  20
BRANCH  30  31
ATOM     31  C   UNL     1      21.186  16.844   8.935  0.00  0.00    +0.103 C 
ATOM     32  N   UNL     1      21.758  17.844   8.847  0.00  0.00    -0.191 NA
ENDBRANCH  30  31
BRANCH  14  15
ATOM     15  O   UNL     1      17.200  10.233   9.466  0.00  0.00    -0.490 OA
BRANCH  15  16
ATOM     16  C   UNL     1      17.889   9.405  10.418  0.00  0.00    +0.226 C 
ATOM     17  C   UNL     1      17.067   8.106  10.436  0.00  0.00    +0.048 C 
ENDBRANCH  15  16
ENDBRANCH  14  15
TORSDOF 9
