REMARK  Name = 4hvb_ligand
REMARK  7 active torsions:
REMARK  status: ('A' for Active; 'I' for Inactive)
REMARK    1  A    between atoms: C1_1  and  C11_11
REMARK    2  A    between atoms: C14_14  and  C17_17
REMARK    3  A    between atoms: N18_18  and  C28_28
REMARK    4  A    between atoms: N20_20  and  C21_21
REMARK    5  A    between atoms: C29_29  and  C31_31
REMARK    6  A    between atoms: C31_31  and  O32_32
REMARK    7  A    between atoms: C31_31  and  C33_33
REMARK                            x       y       z     vdW  Elec       q    Type
REMARK                         _______ _______ _______ _____ _____    ______ ____
ROOT
ATOM      1  C   UNL     1      43.775  13.267  30.474  0.00  0.00    +0.050 A 
ATOM      9  N   UNL     1      44.607  14.200  30.896  0.00  0.00    -0.293 NA
ATOM     10  C   UNL     1      45.872  14.240  30.480  0.00  0.00    +0.085 A 
ATOM     11  C   UNL     1      46.763  15.238  30.932  0.00  0.00    +0.141 A 
ATOM     12  N   UNL     1      46.655  16.311  31.797  0.00  0.00    -0.188 N 
ATOM     25  C   UNL     1      47.848  16.934  31.852  0.00  0.00    +0.321 A 
ATOM     26  O   UNL     1      48.096  17.919  32.522  0.00  0.00    -0.393 OA
ATOM     27  N   UNL     1      48.724  16.297  31.051  0.00  0.00    -0.202 N 
ATOM     28  C   UNL     1      50.125  16.670  30.843  0.00  0.00    +0.210 C 
ATOM     29  C   UNL     1      48.069  15.223  30.457  0.00  0.00    +0.127 A 
ATOM     30  C   UNL     1      48.462  14.231  29.556  0.00  0.00    +0.094 A 
ATOM     31  N   UNL     1      47.623  13.311  29.144  0.00  0.00    -0.322 NA
ATOM     32  C   UNL     1      46.354  13.272  29.564  0.00  0.00    +0.044 A 
ATOM     33  C   UNL     1      45.472  12.273  29.108  0.00  0.00    +0.040 A 
ATOM     34  C   UNL     1      44.188  12.279  29.567  0.00  0.00    +0.039 A 
ENDROOT
BRANCH  12  13
ATOM     13  C   UNL     1      45.448  16.706  32.527  0.00  0.00    +0.139 C 
ATOM     14  C   UNL     1      44.823  15.798  33.590  0.00  0.00    +0.060 C 
ATOM     15  C   UNL     1      43.927  16.635  34.508  0.00  0.00    +0.141 C 
ATOM     16  N   UNL     1      42.950  17.360  33.682  0.00  0.00    -0.271 N 
ATOM     17  C   UNL     1      41.631  17.265  33.938  0.00  0.00    +0.207 C 
ATOM     22  O   UNL     1      41.232  16.510  34.800  0.00  0.00    -0.394 OA
ATOM     23  C   UNL     1      43.440  18.192  32.575  0.00  0.00    +0.141 C 
ATOM     24  C   UNL     1      44.342  17.336  31.678  0.00  0.00    +0.060 C 
BRANCH  17  18
ATOM     18  C   UNL     1      40.649  18.095  33.152  0.00  0.00    +0.224 C 
ATOM     19  C   UNL     1      40.836  19.573  33.502  0.00  0.00    +0.062 C 
BRANCH  18  20
ATOM     20  O   UNL     1      39.317  17.693  33.478  0.00  0.00    -0.372 OA
ATOM     21  H   UNL     1      39.167  17.820  34.407  0.00  0.00    +0.213 HD
ENDBRANCH  18  20
ENDBRANCH  17  18
ENDBRANCH  12  13
BRANCH   1   2
ATOM      2  C   UNL     1      42.375  13.267  30.961  0.00  0.00    +0.020 A 
ATOM      3  C   UNL     1      42.074  13.692  32.259  0.00  0.00    +0.037 A 
ATOM      4  C   UNL     1      40.750  13.677  32.664  0.00  0.00    +0.035 A 
ATOM      5  C   UNL     1      39.778  13.236  31.783  0.00  0.00    +0.027 A 
ATOM      6  C   UNL     1      38.337  13.213  32.222  0.00  0.00    +0.113 C 
ATOM      7  N   UNL     1      40.093  12.837  30.566  0.00  0.00    -0.294 NA
ATOM      8  C   UNL     1      41.337  12.839  30.134  0.00  0.00    +0.098 A 
ENDBRANCH   1   2
TORSDOF 4
