REMARK  Name = 2ity_ligand
REMARK  8 active torsions:
REMARK  status: ('A' for Active; 'I' for Inactive)
REMARK    1  A    between atoms: NBE_6  and  CAN_7
REMARK    2  A    between atoms: CAN_7  and  CAJ_8
REMARK    3  A    between atoms: CAJ_8  and  CAK_9
REMARK    4  A    between atoms: CAK_9  and  OAV_10
REMARK    5  A    between atoms: OAV_10  and  CBA_11
REMARK    6  A    between atoms: CAZ_12  and  OAT_14
REMARK    7  A    between atoms: OAT_14  and  CAA_15
REMARK    8  A    between atoms: NAS_23  and  CAY_24
REMARK                            x       y       z     vdW  Elec       q    Type
REMARK                         _______ _______ _______ _____ _____    ______ ____
ROOT
ATOM      8  C   UNL     1     -51.059  -0.411 -19.607  0.00  0.00    +0.132 A 
ATOM      9  C   UNL     1     -51.372  -0.409 -20.968  0.00  0.00    +0.037 A 
ATOM     10  C   UNL     1     -52.464   0.324 -21.452  0.00  0.00    +0.039 A 
ATOM     11  C   UNL     1     -52.803   0.352 -22.818  0.00  0.00    +0.150 A 
ATOM     12  N   UNL     1     -52.074  -0.355 -23.704  0.00  0.00    -0.251 N 
ATOM     13  H   UNL     1     -51.335  -0.949 -23.302  0.00  0.00    +0.220 HD
ATOM     22  N   UNL     1     -53.869   1.082 -23.206  0.00  0.00    -0.261 NA
ATOM     23  C   UNL     1     -54.585   1.767 -22.319  0.00  0.00    +0.154 A 
ATOM     24  N   UNL     1     -54.287   1.766 -21.024  0.00  0.00    -0.305 NA
ATOM     25  C   UNL     1     -53.245   1.057 -20.563  0.00  0.00    +0.026 A 
ATOM     26  C   UNL     1     -52.942   1.052 -19.210  0.00  0.00    +0.033 A 
ATOM     27  C   UNL     1     -51.851   0.322 -18.738  0.00  0.00    +0.132 A 
ENDROOT
BRANCH  12  14
ATOM     14  C   UNL     1     -52.184  -0.387 -25.047  0.00  0.00    +0.065 A 
ATOM     15  C   UNL     1     -52.270  -1.627 -25.705  0.00  0.00    +0.015 A 
ATOM     16  C   UNL     1     -52.366  -1.685 -27.098  0.00  0.00    +0.021 A 
ATOM     17  C   UNL     1     -52.359  -0.499 -27.837  0.00  0.00    +0.135 A 
ATOM     18  F   UNL     1     -52.448  -0.520 -29.177  0.00  0.00    -0.192 F 
ATOM     19  C   UNL     1     -52.260   0.730 -27.191  0.00  0.00    +0.065 A 
ATOM     20 CL   UNL     1     -52.264   2.191 -28.123  0.00  0.00    -0.075 Cl
ATOM     21  C   UNL     1     -52.170   0.790 -25.800  0.00  0.00    +0.029 A 
ENDBRANCH  12  14
BRANCH  27  28
ATOM     28  O   UNL     1     -51.528   0.289 -17.416  0.00  0.00    -0.316 OA
ATOM     29  C   UNL     1     -51.880   1.501 -16.695  0.00  0.00    +0.234 C 
ENDBRANCH  27  28
BRANCH   8   7
ATOM      7  O   UNL     1     -50.011  -1.115 -19.052  0.00  0.00    -0.316 OA
BRANCH   7   6
ATOM      6  C   UNL     1     -49.337  -2.173 -19.937  0.00  0.00    +0.197 C 
BRANCH   6   5
ATOM      5  C   UNL     1     -48.605  -3.375 -18.872  0.00  0.00    +0.084 C 
BRANCH   5   4
ATOM      4  C   UNL     1     -47.407  -2.673 -18.034  0.00  0.00    +0.134 C 
BRANCH   4   2
ATOM      1  C   UNL     1     -45.304  -2.997 -16.897  0.00  0.00    +0.160 C 
ATOM      2  N   UNL     1     -46.161  -3.498 -18.011  0.00  0.00    +0.238 N 
ATOM      3  H   UNL     1     -46.410  -4.453 -17.805  0.00  0.00    +0.203 HD
ATOM     30  C   UNL     1     -45.496  -3.489 -19.358  0.00  0.00    +0.160 C 
ATOM     31  C   UNL     1     -43.994  -3.906 -19.350  0.00  0.00    +0.210 C 
ATOM     32  O   UNL     1     -43.220  -3.247 -18.306  0.00  0.00    -0.369 OA
ATOM     33  C   UNL     1     -43.827  -3.493 -16.996  0.00  0.00    +0.210 C 
ENDBRANCH   4   2
ENDBRANCH   5   4
ENDBRANCH   6   5
ENDBRANCH   7   6
ENDBRANCH   8   7
TORSDOF 7
