REMARK  Name = 4agd_ligand
REMARK  11 active torsions:
REMARK  status: ('A' for Active; 'I' for Inactive)
REMARK    1  A    between atoms: C4_1  and  C14_13
REMARK    2  A    between atoms: C13_5  and  C3_11
REMARK    3  A    between atoms: C22_10  and  C19_16
REMARK    4  A    between atoms: C12_12  and  C18_15
REMARK    5  A    between atoms: N25_19  and  C37_23
REMARK    6  A    between atoms: C37_23  and  C38_24
REMARK    7  A    between atoms: C38_24  and  N4_25
REMARK    8  A    between atoms: N4_25  and  C39_26
REMARK    9  A    between atoms: N4_25  and  C40_27
REMARK   10  A    between atoms: C39_26  and  C42_29
REMARK   11  A    between atoms: C40_27  and  C41_28
REMARK                            x       y       z     vdW  Elec       q    Type
REMARK                         _______ _______ _______ _____ _____    ______ ____
ROOT
ATOM      1  C   UNL     1      50.682   0.367 -16.161  0.00  0.00    +0.145 C 
ATOM      2  C   UNL     1      50.436  -1.027 -15.562  0.00  0.00    +0.072 A 
ATOM      3  N   UNL     1      49.221  -1.305 -15.109  0.00  0.00    -0.270 N 
ATOM      4  H   UNL     1      48.439  -0.651 -15.134  0.00  0.00    +0.231 HD
ATOM      5  C   UNL     1      49.144  -2.546 -14.615  0.00  0.00    +0.064 A 
ATOM     19  C   UNL     1      50.404  -3.166 -14.744  0.00  0.00    -0.027 A 
ATOM     20  C   UNL     1      50.672  -4.641 -14.265  0.00  0.00    +0.074 C 
ATOM     21  C   UNL     1      51.278  -2.153 -15.375  0.00  0.00    +0.057 A 
ENDROOT
BRANCH   5   6
ATOM      6  C   UNL     1      47.945  -3.172 -14.021  0.00  0.00    +0.035 C 
ATOM      7  C   UNL     1      46.622  -2.683 -13.838  0.00  0.00    +0.030 C 
ATOM      8  C   UNL     1      46.000  -1.391 -14.221  0.00  0.00    +0.205 C 
ATOM      9  O   UNL     1      46.569  -0.500 -14.792  0.00  0.00    -0.391 OA
ATOM     10  N   UNL     1      44.698  -1.328 -13.849  0.00  0.00    -0.244 N 
ATOM     11  H   UNL     1      44.077  -0.535 -14.009  0.00  0.00    +0.223 HD
ATOM     12  C   UNL     1      44.352  -2.479 -13.233  0.00  0.00    +0.061 A 
ATOM     13  C   UNL     1      43.108  -2.817 -12.696  0.00  0.00    -0.000 A 
ATOM     14  C   UNL     1      42.976  -4.097 -12.093  0.00  0.00    +0.005 A 
ATOM     15  C   UNL     1      44.056  -5.026 -12.021  0.00  0.00    +0.110 A 
ATOM     16  F   UNL     1      43.840  -6.210 -11.441  0.00  0.00    -0.198 F 
ATOM     17  C   UNL     1      45.297  -4.670 -12.560  0.00  0.00    +0.007 A 
ATOM     18  C   UNL     1      45.434  -3.366 -13.177  0.00  0.00    -0.011 A 
ENDBRANCH   5   6
BRANCH  21  22
ATOM     22  C   UNL     1      52.749  -2.204 -15.773  0.00  0.00    +0.177 C 
ATOM     23  O   UNL     1      53.489  -3.181 -15.613  0.00  0.00    -0.405 OA
ATOM     24  N   UNL     1      53.348  -1.134 -16.341  0.00  0.00    -0.294 N 
ATOM     25  H   UNL     1      52.800  -0.290 -16.508  0.00  0.00    +0.183 HD
BRANCH  24  26
ATOM     26  C   UNL     1      54.767  -1.151 -16.725  0.00  0.00    +0.111 C 
BRANCH  26  27
ATOM     27  C   UNL     1      55.744  -0.029 -16.262  0.00  0.00    -0.085 C 
BRANCH  27  28
ATOM     28  N   UNL     1      57.062  -0.256 -16.965  0.00  0.00    +0.404 NA
BRANCH  28  29
ATOM     29  C   UNL     1      57.200   0.651 -18.232  0.00  0.00    -0.113 C 
ATOM     30  C   UNL     1      57.147   0.083 -19.684  0.00  0.00    -0.021 C 
ENDBRANCH  28  29
BRANCH  28  31
ATOM     31  C   UNL     1      58.179  -0.113 -15.931  0.00  0.00    -0.113 C 
ATOM     32  C   UNL     1      59.693  -0.492 -16.200  0.00  0.00    -0.021 C 
ENDBRANCH  28  31
ENDBRANCH  27  28
ENDBRANCH  26  27
ENDBRANCH  24  26
ENDBRANCH  21  22
TORSDOF 7
