REMARK  Name = 4eos_ligand
REMARK  4 active torsions:
REMARK  status: ('A' for Active; 'I' for Inactive)
REMARK    1  A    between atoms: N3_5  and  C18_6
REMARK    2  A    between atoms: C18_6  and  C19_7
REMARK    3  A    between atoms: C12_13  and  C11_14
REMARK    4  A    between atoms: C11_14  and  C1_15
REMARK                            x       y       z     vdW  Elec       q    Type
REMARK                         _______ _______ _______ _____ _____    ______ ____
ROOT
ATOM      1  O   UNL     1      -7.151 -22.349  21.578  0.00  0.00    -0.394 OA
ATOM      2  C   UNL     1      -6.965 -21.273  20.929  0.00  0.00    +0.158 C 
ATOM      3  C   UNL     1      -7.845 -20.089  21.048  0.00  0.00    +0.187 C 
ATOM     15  S   UNL     1      -7.171 -18.902  19.965  0.00  0.00    +0.005 S 
ATOM     16  C   UNL     1      -5.893 -20.014  19.506  0.00  0.00    +0.187 C 
ATOM     17  N   UNL     1      -4.877 -19.797  18.645  0.00  0.00    -0.259 N 
ATOM     18  H   UNL     1      -4.975 -19.085  17.907  0.00  0.00    +0.202 HD
ATOM     25  N   UNL     1      -5.929 -21.222  20.092  0.00  0.00    -0.267 NA
ENDROOT
BRANCH   3   4
ATOM      4  C   UNL     1      -9.051 -19.942  21.920  0.00  0.00    +0.108 C 
BRANCH   4   5
ATOM      5  C   UNL     1      -9.411 -21.127  22.755  0.00  0.00    -0.033 A 
ATOM      6  C   UNL     1      -8.382 -21.830  23.395  0.00  0.00    +0.010 A 
ATOM      7  C   UNL     1      -8.637 -22.955  24.162  0.00  0.00    -0.001 A 
ATOM      8  C   UNL     1      -7.620 -23.665  24.791  0.00  0.00    +0.037 A 
ATOM      9  C   UNL     1      -7.960 -24.782  25.555  0.00  0.00    +0.035 A 
ATOM     10  C   UNL     1      -9.295 -25.171  25.681  0.00  0.00    +0.093 A 
ATOM     11  N   UNL     1     -10.294 -24.495  25.082  0.00  0.00    -0.298 NA
ATOM     12  C   UNL     1     -10.041 -23.402  24.322  0.00  0.00    +0.042 A 
ATOM     13  C   UNL     1     -11.048 -22.680  23.683  0.00  0.00    +0.022 A 
ATOM     14  C   UNL     1     -10.734 -21.554  22.906  0.00  0.00    +0.011 A 
ENDBRANCH   4   5
ENDBRANCH   3   4
BRANCH  17  19
ATOM     19  C   UNL     1      -3.632 -20.570  18.754  0.00  0.00    +0.230 C 
BRANCH  19  20
ATOM     20  C   UNL     1      -3.449 -21.349  20.051  0.00  0.00    +0.036 A 
ATOM     21  S   UNL     1      -3.009 -20.478  21.481  0.00  0.00    -0.042 S 
ATOM     22  C   UNL     1      -2.970 -21.848  22.539  0.00  0.00    +0.040 A 
ATOM     23  C   UNL     1      -3.297 -22.952  21.756  0.00  0.00    -0.056 A 
ATOM     24  C   UNL     1      -3.557 -22.695  20.399  0.00  0.00    -0.052 A 
ENDBRANCH  19  20
ENDBRANCH  17  19
TORSDOF 4
