REMARK  Name = 2LO
REMARK  8 active torsions:
REMARK  status: ('A' for Active; 'I' for Inactive)
REMARK    1  A    between atoms: C15_3  and  O_4
REMARK    2  A    between atoms: C12_9  and  C11_10
REMARK    3  A    between atoms: C11_10  and  C10_11
REMARK    4  A    between atoms: C10_11  and  C9_12
REMARK    5  A    between atoms: N1_13  and  C19_14
REMARK    6  A    between atoms: C19_14  and  C20_15
REMARK    7  A    between atoms: C20_15  and  N2_16
REMARK    8  A    between atoms: C3_29  and  C2_30
REMARK                            x       y       z     vdW  Elec       q    Type
REMARK                         _______ _______ _______ _____ _____    ______ ____
ROOT
ATOM      7  C   UNL     1     -21.223  -2.666  -8.578  0.00  0.00    +0.121 A 
ATOM      8  N   UNL     1     -20.384  -2.587  -7.541  0.00  0.00    -0.231 NA
ATOM      9  C   UNL     1     -19.396  -3.463  -7.717  0.00  0.00    +0.098 A 
ATOM     10  C   UNL     1     -18.318  -3.775  -6.952  0.00  0.00    +0.021 A 
ATOM     11  C   UNL     1     -17.395  -4.762  -7.360  0.00  0.00    +0.005 A 
ATOM     19  C   UNL     1     -17.663  -5.369  -8.585  0.00  0.00    +0.002 A 
ATOM     20  C   UNL     1     -18.793  -5.018  -9.307  0.00  0.00    +0.019 A 
ATOM     21  C   UNL     1     -19.635  -4.076  -8.885  0.00  0.00    +0.079 A 
ATOM     22  N   UNL     1     -20.759  -3.589  -9.437  0.00  0.00    -0.314 N 
ENDROOT
BRANCH  11  12
ATOM     12  C   UNL     1     -16.268  -5.144  -6.688  0.00  0.00    +0.050 A 
ATOM     13  C   UNL     1     -15.276  -4.332  -6.265  0.00  0.00    +0.101 A 
ATOM     14  N   UNL     1     -14.300  -5.020  -5.675  0.00  0.00    -0.082 NA
ATOM     15  O   UNL     1     -14.758  -6.510  -5.756  0.00  0.00    -0.358 OA
ATOM     16  C   UNL     1     -15.193  -2.819  -6.418  0.00  0.00    +0.056 C 
ATOM     17  C   UNL     1     -15.959  -6.420  -6.377  0.00  0.00    +0.154 A 
ATOM     18  C   UNL     1     -16.804  -7.665  -6.657  0.00  0.00    +0.075 C 
ENDBRANCH  11  12
BRANCH   7   6
ATOM      6  C   UNL     1     -22.520  -1.799  -8.740  0.00  0.00    +0.069 C 
BRANCH   6   5
ATOM      5  C   UNL     1     -22.924  -1.092  -7.417  0.00  0.00    +0.034 C 
BRANCH   5   4
ATOM      1 CL   UNL     1     -25.042   2.598  -4.533  0.00  0.00    -0.079 Cl
ATOM      2  C   UNL     1     -24.746   1.888  -6.150  0.00  0.00    +0.091 A 
ATOM      3  C   UNL     1     -23.989   0.712  -6.255  0.00  0.00    +0.010 A 
ATOM      4  C   UNL     1     -23.719   0.092  -7.488  0.00  0.00    -0.021 A 
ATOM     32  C   UNL     1     -24.237   0.693  -8.653  0.00  0.00    -0.001 A 
ATOM     33  C   UNL     1     -24.998   1.871  -8.563  0.00  0.00    +0.037 A 
ATOM     34  C   UNL     1     -25.262   2.466  -7.321  0.00  0.00    +0.149 A 
BRANCH  34  35
ATOM     35  O   UNL     1     -25.987   3.631  -7.208  0.00  0.00    -0.471 OA
ATOM     36  C   UNL     1     -27.321   3.567  -6.680  0.00  0.00    +0.253 C 
ENDBRANCH  34  35
ENDBRANCH   5   4
ENDBRANCH   6   5
ENDBRANCH   7   6
BRANCH  22  23
ATOM     23  C   UNL     1     -21.338  -4.083 -10.764  0.00  0.00    +0.123 C 
BRANCH  23  24
ATOM     24  C   UNL     1     -20.675  -3.330 -11.923  0.00  0.00    +0.080 C 
ATOM     31  C   UNL     1     -21.632  -3.412 -13.145  0.00  0.00    +0.019 C 
BRANCH  24  25
ATOM     25  N   UNL     1     -19.218  -3.662 -12.206  0.00  0.00    -0.268 NA
ATOM     26  C   UNL     1     -19.198  -4.970 -12.821  0.00  0.00    +0.105 C 
ATOM     27  C   UNL     1     -17.764  -5.348 -13.000  0.00  0.00    +0.160 C 
ATOM     28  O   UNL     1     -17.049  -4.356 -13.788  0.00  0.00    -0.351 OA
ATOM     29  C   UNL     1     -17.071  -3.038 -13.240  0.00  0.00    +0.160 C 
ATOM     30  C   UNL     1     -18.533  -2.712 -13.069  0.00  0.00    +0.105 C 
ENDBRANCH  24  25
ENDBRANCH  23  24
ENDBRANCH  22  23
TORSDOF 8
