REMARK  Name = 3AC1
REMARK  8 active torsions:
REMARK  status: ('A' for Active; 'I' for Inactive)
REMARK    1  A    between atoms: O_2  and  C_18
REMARK    2  A    between atoms: O_2  and  C_20
REMARK    3  A    between atoms: O_3  and  C_22
REMARK    4  A    between atoms: O_3  and  C_26
REMARK    5  A    between atoms: N_5  and  C_19
REMARK    6  A    between atoms: N_8  and  C_12
REMARK    7  A    between atoms: C_13  and  C_16
REMARK    8  A    between atoms: C_23  and  N_28
REMARK                            x       y       z     vdW  Elec       q    Type
REMARK                         _______ _______ _______ _____ _____    ______ ____
ROOT
ATOM      3  C   UNL     1      -0.243   8.811  -3.468  0.00  0.00    +0.173 C 
ATOM      4  C   UNL     1       0.213   8.660  -4.875  0.00  0.00    +0.309 C 
ATOM     16  N   UNL     1       1.218   7.791  -5.124  0.00  0.00    -0.201 N 
ATOM     17  H   UNL     1       1.557   7.641  -6.128  0.00  0.00    +0.294 HD
ATOM     18  C   UNL     1       1.793   7.114  -4.113  0.00  0.00    +0.305 C 
ATOM     19  C   UNL     1       1.345   7.269  -2.801  0.00  0.00    +0.269 C 
ATOM     20  N   UNL     1       2.809   6.254  -4.353  0.00  0.00    -0.081 NA
ATOM     30  N   UNL     1       0.357   8.105  -2.502  0.00  0.00    -0.265 NA
ENDROOT
BRANCH   4   5
ATOM      5  N   UNL     1      -0.377   9.363  -5.867  0.00  0.00    -0.229 NA
ATOM      6  C   UNL     1      -0.046   9.369  -7.191  0.00  0.00    +0.052 C 
ATOM      7  C   UNL     1      -0.711  10.269  -8.014  0.00  0.00    +0.069 C 
ATOM      8  C   UNL     1      -0.424  10.331  -9.376  0.00  0.00    +0.125 C 
ATOM      9  C   UNL     1       0.552   9.501  -9.954  0.00  0.00    +0.087 C 
ATOM     10  C   UNL     1       1.227   8.584  -9.130  0.00  0.00    +0.107 C 
ATOM     15  C   UNL     1       0.923   8.527  -7.754  0.00  0.00    +0.129 C 
BRANCH  10  11
ATOM     11  O   UNL     1       2.190   7.746  -9.666  0.00  0.00    -0.499 OA
ATOM     12  C   UNL     1       2.045   7.199 -10.982  0.00  0.00    +0.276 C 
ENDBRANCH  10  11
BRANCH   8  13
ATOM     13  O   UNL     1      -1.077  11.245 -10.166  0.00  0.00    -0.495 OA
ATOM     14  C   UNL     1      -0.322  11.873 -11.224  0.00  0.00    +0.277 C 
ENDBRANCH   8  13
ENDBRANCH   4   5
BRANCH  20  21
ATOM     21  C   UNL     1       3.286   5.919  -5.694  0.00  0.00    +0.241 C 
ATOM     22  C   UNL     1       4.236   7.013  -6.207  0.00  0.00    +0.100 C 
ATOM     26  C   UNL     1       4.995   6.583  -7.455  0.00  0.00    +0.023 C 
ATOM     27  C   UNL     1       5.803   5.334  -7.112  0.00  0.00    +0.002 C 
ATOM     28  C   UNL     1       4.865   4.178  -6.760  0.00  0.00    +0.004 C 
ATOM     29  C   UNL     1       3.922   4.525  -5.609  0.00  0.00    +0.055 C 
BRANCH  22  23
ATOM     23  N   UNL     1       5.188   7.377  -5.170  0.00  0.00    -0.324 NA
ATOM     24  H   UNL     1       4.661   7.744  -4.314  0.00  0.00    +0.119 HD
ATOM     25  H   UNL     1       5.761   6.517  -4.894  0.00  0.00    +0.119 HD
ENDBRANCH  22  23
ENDBRANCH  20  21
BRANCH   3   2
ATOM      1  O   UNL     1      -1.900  10.312  -3.996  0.00  0.00    -0.269 OA
ATOM      2  C   UNL     1      -1.343   9.753  -3.085  0.00  0.00    +0.262 C 
ATOM     31  N   UNL     1      -1.669   9.926  -1.789  0.00  0.00    -0.324 N 
ATOM     32  H   UNL     1      -1.134   9.398  -1.028  0.00  0.00    +0.145 HD
ATOM     33  H   UNL     1      -2.463  10.591  -1.521  0.00  0.00    +0.145 HD
ENDBRANCH   3   2
TORSDOF 6
