REMARK  Name = 2CKE
REMARK  5 active torsions:
REMARK  status: ('A' for Active; 'I' for Inactive)
REMARK    1  A    between atoms: C_1  and  S_11
REMARK    2  A    between atoms: S_11  and  N_14
REMARK    3  A    between atoms: N_14  and  C_15
REMARK    4  A    between atoms: C_15  and  C_16
REMARK    5  A    between atoms: C_16  and  N_17
REMARK                            x       y       z     vdW  Elec       q    Type
REMARK                         _______ _______ _______ _____ _____    ______ ____
ROOT
ATOM      1  C   UNL     1       6.909  -1.821  10.733  0.00  0.00    +0.113 A 
ATOM     12  C   UNL     1       8.080  -2.616  10.251  0.00  0.00    +0.011 A 
ATOM     13  C   UNL     1       9.396  -2.162  10.225  0.00  0.00    +0.030 A 
ATOM     14  C   UNL     1      10.401  -3.002   9.750  0.00  0.00    +0.111 A 
ATOM     15  N   UNL     1      10.138  -4.245   9.313  0.00  0.00    -0.263 NA
ATOM     16  C   UNL     1       8.897  -4.754   9.307  0.00  0.00    +0.119 A 
ATOM     17  C   UNL     1       7.828  -3.992   9.763  0.00  0.00    +0.002 A 
ATOM     18  C   UNL     1       6.534  -4.495   9.768  0.00  0.00    +0.010 A 
ATOM     19  C   UNL     1       5.471  -3.724  10.225  0.00  0.00    +0.003 A 
ATOM     20  C   UNL     1       5.650  -2.424  10.696  0.00  0.00    +0.029 A 
ENDROOT
BRANCH   1   2
ATOM      2  S   UNL     1       7.050  -0.324  11.287  0.00  0.00    +0.059 S 
ATOM     10  O   UNL     1       7.883   0.453  10.411  0.00  0.00    -0.153 OA
ATOM     11  O   UNL     1       7.643  -0.358  12.593  0.00  0.00    -0.153 OA
BRANCH   2   3
ATOM      3  N   UNL     1       5.607   0.388  11.338  0.00  0.00    -0.189 NA
ATOM      4  H   UNL     1       5.220   0.833  10.445  0.00  0.00    +0.148 HD
BRANCH   3   5
ATOM      5  C   UNL     1       4.811   0.448  12.554  0.00  0.00    +0.121 C 
BRANCH   5   6
ATOM      6  C   UNL     1       3.315   0.428  12.256  0.00  0.00    +0.094 C 
BRANCH   6   7
ATOM      7  N   UNL     1       2.521   0.628  13.455  0.00  0.00    -0.329 NA
ATOM      8  H   UNL     1       2.733  -0.151  14.158  0.00  0.00    +0.118 HD
ATOM      9  H   UNL     1       2.763   1.575  13.890  0.00  0.00    +0.118 HD
ENDBRANCH   6   7
ENDBRANCH   5   6
ENDBRANCH   3   5
ENDBRANCH   2   3
ENDBRANCH   1   2
TORSDOF 5
