REMARK  Name = 3OWP
REMARK  7 active torsions:
REMARK  status: ('A' for Active; 'I' for Inactive)
REMARK    1  A    between atoms: C_1  and  C_5
REMARK    2  A    between atoms: N_2  and  C_5
REMARK    3  A    between atoms: C_5  and  C_8
REMARK    4  A    between atoms: N_6  and  N_9
REMARK    5  A    between atoms: O_7  and  C_19
REMARK    6  A    between atoms: N_9  and  C_10
REMARK    7  A    between atoms: C_10  and  C_11
REMARK                            x       y       z     vdW  Elec       q    Type
REMARK                         _______ _______ _______ _____ _____    ______ ____
ROOT
ATOM      8  C   UNL     1      25.590  -9.603   0.638  0.00  0.00    +0.248 C 
ATOM      9  N   UNL     1      26.545  -9.799   1.647  0.00  0.00    -0.249 N 
ATOM     10  H   UNL     1      26.241 -10.001   2.653  0.00  0.00    +0.169 HD
ATOM     23  O   UNL     1      25.956  -9.374  -0.510  0.00  0.00    -0.272 OA
ENDROOT
BRANCH   9  11
ATOM     11  N   UNL     1      27.847  -9.729   1.328  0.00  0.00    -0.236 NA
ATOM     12  H   UNL     1      28.074  -8.751   0.958  0.00  0.00    +0.145 HD
BRANCH  11  13
ATOM     13  C   UNL     1      28.540  -9.963   2.369  0.00  0.00    +0.137 C 
BRANCH  13  14
ATOM     14  C   UNL     1      30.009  -9.958   2.407  0.00  0.00    -0.031 A 
ATOM     15  C   UNL     1      30.863  -9.975   1.305  0.00  0.00    +0.008 A 
ATOM     16  C   UNL     1      32.246  -9.980   1.547  0.00  0.00    +0.047 A 
ATOM     17  C   UNL     1      32.707  -9.967   2.868  0.00  0.00    +0.131 A 
ATOM     18  C   UNL     1      31.808  -9.951   3.898  0.00  0.00    +0.059 A 
ATOM     19 BR   UNL     1      32.395  -9.942   5.723  0.00  0.00    -0.047 Br
ATOM     22  C   UNL     1      30.464  -9.944   3.690  0.00  0.00    +0.023 A 
BRANCH  17  20
ATOM     20  O   UNL     1      34.040  -9.968   3.213  0.00  0.00    -0.506 OA
ATOM     21  H   UNL     1      34.259  -9.105   3.769  0.00  0.00    +0.292 HD
ENDBRANCH  17  20
ENDBRANCH  13  14
ENDBRANCH  11  13
ENDBRANCH   9  11
BRANCH   8   7
ATOM      7  C   UNL     1      24.160  -9.715   1.033  0.00  0.00    +0.170 C 
BRANCH   7   1
ATOM      1  C   UNL     1      23.658 -11.012   0.486  0.00  0.00    -0.022 A 
ATOM      2  C   UNL     1      23.656 -12.144   1.295  0.00  0.00    +0.006 A 
ATOM      3  C   UNL     1      23.199 -13.353   0.795  0.00  0.00    +0.000 A 
ATOM      4  C   UNL     1      22.749 -13.439  -0.510  0.00  0.00    +0.000 A 
ATOM      5  C   UNL     1      22.748 -12.309  -1.312  0.00  0.00    +0.000 A 
ATOM      6  C   UNL     1      23.210 -11.096  -0.816  0.00  0.00    +0.006 A 
ENDBRANCH   7   1
BRANCH   7  24
ATOM     24  N   UNL     1      23.449  -8.586   0.512  0.00  0.00    -0.316 NA
ATOM     25  H   UNL     1      23.556  -8.557  -0.552  0.00  0.00    +0.119 HD
ATOM     26  H   UNL     1      22.412  -8.669   0.764  0.00  0.00    +0.119 HD
ENDBRANCH   7  24
ENDBRANCH   8   7
TORSDOF 7
