REMARK  Name = EB2
REMARK  4 active torsions:
REMARK  status: ('A' for Active; 'I' for Inactive)
REMARK    1  A    between atoms: CAT_7  and  NAS_8
REMARK    2  A    between atoms: NAS_8  and  SAP_9
REMARK    3  A    between atoms: SAP_9  and  CAC_12
REMARK    4  A    between atoms: NAK_24  and  CAM_25
REMARK                            x       y       z     vdW  Elec       q    Type
REMARK                         _______ _______ _______ _____ _____    ______ ____
ROOT
ATOM      5  C   UNL     1       5.645  10.279   1.689  0.00  0.00    +0.124 A 
ATOM      6  C   UNL     1       6.787   9.741   2.316  0.00  0.00    +0.021 A 
ATOM      7  C   UNL     1       6.669   8.977   3.482  0.00  0.00    +0.019 A 
ATOM      8  C   UNL     1       5.475   8.711   4.029  0.00  0.00    +0.063 A 
ATOM      9  N   UNL     1       5.102   7.998   5.092  0.00  0.00    -0.295 N 
ATOM     12  C   UNL     1       3.762   8.074   5.158  0.00  0.00    +0.261 A 
ATOM     13  O   UNL     1       3.139   7.410   5.994  0.00  0.00    -0.267 OA
ATOM     14  C   UNL     1       3.284   8.830   4.105  0.00  0.00    +0.058 A 
ATOM     15  C   UNL     1       2.050   9.241   3.666  0.00  0.00    +0.005 A 
ATOM     16  C   UNL     1       1.977  10.051   2.507  0.00  0.00    +0.000 A 
ATOM     17  C   UNL     1       3.140  10.419   1.813  0.00  0.00    +0.001 A 
ATOM     18  C   UNL     1       4.358   9.201   3.417  0.00  0.00    +0.022 A 
ATOM     19  C   UNL     1       4.404  10.002   2.309  0.00  0.00    +0.020 A 
ENDROOT
BRANCH   5   4
ATOM      4  S   UNL     1       5.845  11.269   0.169  0.00  0.00    +0.077 S 
ATOM     20  O   UNL     1       5.200  12.560   0.632  0.00  0.00    -0.152 OA
ATOM     21  O   UNL     1       7.250  11.230  -0.039  0.00  0.00    -0.152 OA
BRANCH   4   3
ATOM      3  N   UNL     1       4.983  10.468  -0.846  0.00  0.00    -0.079 NA
BRANCH   3   2
ATOM      1  C   UNL     1       4.107   8.329  -1.449  0.00  0.00    +0.019 C 
ATOM      2  C   UNL     1       5.397   9.184  -1.468  0.00  0.00    +0.098 C 
ATOM     22  C   UNL     1       5.877   9.419  -2.932  0.00  0.00    +0.019 C 
ATOM     23  C   UNL     1       6.472   8.194  -3.520  0.00  0.00    +0.002 C 
ATOM     24  C   UNL     1       5.472   7.266  -4.223  0.00  0.00    +0.000 C 
ATOM     25  C   UNL     1       4.143   7.010  -3.489  0.00  0.00    +0.000 C 
ATOM     26  C   UNL     1       4.305   6.946  -1.967  0.00  0.00    +0.002 C 
ENDBRANCH   3   2
ENDBRANCH   4   3
ENDBRANCH   5   4
BRANCH   9  10
ATOM     10  C   UNL     1       5.971   7.281   6.032  0.00  0.00    +0.109 C 
ATOM     11  C   UNL     1       6.186   5.829   5.577  0.00  0.00    +0.027 C 
ENDBRANCH   9  10
TORSDOF 4
