REMARK  Name = 4YLK
REMARK  1 active torsions:
REMARK  status: ('A' for Active; 'I' for Inactive)
REMARK    1  A    between atoms: C_2  and  CA_4
REMARK                            x       y       z     vdW  Elec       q    Type
REMARK                         _______ _______ _______ _____ _____    ______ ____
ROOT
ATOM      3  CA  UNL     1      19.363  51.591  35.226  0.00  0.00    +0.097 A 
ATOM      4  C   UNL     1      18.362  51.281  36.213  0.00  0.00    +0.037 A 
ATOM      5  C   UNL     1      17.675  51.789  37.373  0.00  0.00    +0.013 A 
ATOM      6  C   UNL     1      16.729  50.824  37.727  0.00  0.00    +0.091 A 
ATOM      7  N   UNL     1      16.862  49.800  36.831  0.00  0.00    -0.245 NA
ATOM      8  C   UNL     1      15.865  50.941  38.806  0.00  0.00    +0.067 A 
ATOM      9 CL   UNL     1      14.713  49.632  39.153  0.00  0.00    -0.081 Cl
ATOM     10  C   UNL     1      15.928  52.085  39.583  0.00  0.00    +0.022 A 
ATOM     11  C   UNL     1      16.844  53.083  39.258  0.00  0.00    +0.002 A 
ATOM     12  C   UNL     1      17.730  52.965  38.163  0.00  0.00    +0.011 A 
ATOM     13  C   UNL     1      17.827  50.074  35.944  0.00  0.00    +0.084 A 
ATOM     14  C   UNL     1      18.208  49.216  34.902  0.00  0.00    +0.027 A 
ATOM     15  C   UNL     1      17.626  47.972  34.798  0.00  0.00    +0.026 A 
ATOM     16  C   UNL     1      17.991  47.118  33.759  0.00  0.00    +0.014 A 
ATOM     17  I   UNL     1      17.076  45.267  33.559  0.00  0.00    -0.044 I 
ATOM     18  C   UNL     1      18.955  47.479  32.840  0.00  0.00    +0.016 A 
ATOM     19  C   UNL     1      19.537  48.725  32.948  0.00  0.00    +0.029 A 
ATOM     20  C   UNL     1      19.170  49.585  33.979  0.00  0.00    +0.074 A 
ATOM     21  N   UNL     1      19.718  50.827  34.104  0.00  0.00    -0.245 NA
ENDROOT
BRANCH   3   2
ATOM      1  O   UNL     1      20.780  52.851  34.134  0.00  0.00    -0.543 OA
ATOM      2  C   UNL     1      20.114  52.697  35.230  0.00  0.00    +0.090 C 
ATOM     22  OXT UNL     1      20.157  53.163  36.398  0.00  0.00    -0.543 OA
ENDBRANCH   3   2
TORSDOF 1
