REMARK  Name = 5M55
REMARK  7 active torsions:
REMARK  status: ('A' for Active; 'I' for Inactive)
REMARK    1  A    between atoms: C_3  and  N_14
REMARK    2  A    between atoms: C_5  and  C_6
REMARK    3  A    between atoms: C_6  and  N_7
REMARK    4  A    between atoms: N_7  and  C_8
REMARK    5  A    between atoms: N_7  and  C_10
REMARK    6  A    between atoms: C_8  and  C_9
REMARK    7  A    between atoms: C_11  and  C_12
REMARK                            x       y       z     vdW  Elec       q    Type
REMARK                         _______ _______ _______ _____ _____    ______ ____
ROOT
ATOM      6  N   UNL     1      26.171   7.778 -21.802  0.00  0.00    -0.284 N 
ATOM      7  H   UNL     1      25.243   7.670 -22.323  0.00  0.00    +0.155 HD
ATOM      8  C   UNL     1      25.800   7.700 -20.386  0.00  0.00    +0.222 A 
ATOM      9  N   UNL     1      25.119   6.571 -20.104  0.00  0.00    -0.195 NA
ATOM     10  C   UNL     1      24.671   6.294 -18.844  0.00  0.00    +0.163 A 
ATOM     11  N   UNL     1      23.969   5.275 -18.280  0.00  0.00    -0.329 N 
ATOM     12  H   UNL     1      23.602   4.412 -18.796  0.00  0.00    +0.168 HD
ATOM     13  C   UNL     1      23.812   5.526 -16.977  0.00  0.00    +0.198 A 
ATOM     14  N   UNL     1      24.408   6.708 -16.690  0.00  0.00    -0.232 NA
ATOM     15  C   UNL     1      24.945   7.203 -17.842  0.00  0.00    +0.133 A 
ATOM     16  C   UNL     1      25.687   8.409 -18.159  0.00  0.00    +0.098 A 
ATOM     24  N   UNL     1      26.092   8.610 -19.474  0.00  0.00    -0.212 NA
ENDROOT
BRANCH   6   5
ATOM      1  C   UNL     1      27.846  11.032 -22.733  0.00  0.00    +0.002 A 
ATOM      2  C   UNL     1      28.174  10.773 -24.058  0.00  0.00    +0.000 A 
ATOM      3  C   UNL     1      27.845   9.548 -24.631  0.00  0.00    +0.002 A 
ATOM      4  C   UNL     1      27.187   8.580 -23.854  0.00  0.00    +0.023 A 
ATOM      5  C   UNL     1      26.865   8.835 -22.524  0.00  0.00    +0.034 A 
ATOM     25  C   UNL     1      27.183  10.057 -21.955  0.00  0.00    +0.023 A 
ENDBRANCH   6   5
BRANCH  16  17
ATOM     17  C   UNL     1      25.910   9.331 -16.911  0.00  0.00    +0.045 C 
ATOM     18  C   UNL     1      26.410  10.630 -16.655  0.00  0.00    +0.072 C 
BRANCH  18  19
ATOM     19  N   UNL     1      26.975  11.641 -17.473  0.00  0.00    -0.336 N 
BRANCH  19  20
ATOM     20  C   UNL     1      28.032  12.381 -16.832  0.00  0.00    +0.101 C 
ATOM     21  C   UNL     1      27.716  12.633 -15.358  0.00  0.00    +0.024 C 
ENDBRANCH  19  20
BRANCH  19  22
ATOM     22  C   UNL     1      26.118  12.403 -18.320  0.00  0.00    +0.101 C 
ATOM     23  C   UNL     1      26.869  13.528 -18.961  0.00  0.00    +0.024 C 
ENDBRANCH  19  22
ENDBRANCH  18  19
ENDBRANCH  16  17
TORSDOF 5
