REMARK  Name = 3A7I
REMARK  1 active torsions:
REMARK  status: ('A' for Active; 'I' for Inactive)
REMARK    1  A    between atoms: C_5  and  N_6
REMARK                            x       y       z     vdW  Elec       q    Type
REMARK                         _______ _______ _______ _____ _____    ______ ____
ROOT
ATOM      1  N   UNL     1      -1.391  27.326  15.384  0.00  0.00    -0.329 N 
ATOM      2  H   UNL     1      -1.526  28.279  14.916  0.00  0.00    +0.168 HD
ATOM      3  C   UNL     1      -2.228  26.256  15.331  0.00  0.00    +0.163 A 
ATOM      4  N   UNL     1      -3.450  26.164  14.660  0.00  0.00    -0.216 NA
ATOM      5  C   UNL     1      -4.060  24.980  14.780  0.00  0.00    +0.225 A 
ATOM      6  N   UNL     1      -3.544  23.922  15.501  0.00  0.00    -0.219 NA
ATOM      7  C   UNL     1      -2.303  24.048  16.166  0.00  0.00    +0.147 A 
ATOM     11  C   UNL     1      -1.602  25.253  16.096  0.00  0.00    +0.147 A 
ATOM     12  N   UNL     1      -0.376  25.686  16.638  0.00  0.00    -0.231 NA
ATOM     13  C   UNL     1      -0.314  26.917  16.181  0.00  0.00    +0.198 A 
ENDROOT
BRANCH   7   8
ATOM      8  N   UNL     1      -1.753  23.048  16.874  0.00  0.00    -0.341 N 
ATOM      9  H   UNL     1      -2.258  22.108  16.953  0.00  0.00    +0.144 HD
ATOM     10  H   UNL     1      -0.810  23.192  17.359  0.00  0.00    +0.144 HD
ENDBRANCH   7   8
TORSDOF 1
