REMARK  Name = 4u45_ligand
REMARK  2 active torsions:
REMARK  status: ('A' for Active; 'I' for Inactive)
REMARK    1  A    between atoms: C6_3  and  N7_12
REMARK    2  A    between atoms: C11_4  and  C17_17
REMARK                            x       y       z     vdW  Elec       q    Type
REMARK                         _______ _______ _______ _____ _____    ______ ____
ROOT
ATOM      6  N   UNL     1     -23.374   5.798 -16.958  0.00  0.00    -0.237 N 
ATOM      7  H   UNL     1     -23.267   5.112 -17.719  0.00  0.00    +0.224 HD
ATOM      8  C   UNL     1     -24.323   5.461 -16.029  0.00  0.00    +0.176 A 
ATOM      9  N   UNL     1     -24.557   6.296 -15.020  0.00  0.00    -0.270 NA
ATOM     10  C   UNL     1     -25.506   5.974 -14.139  0.00  0.00    +0.185 A 
ATOM     11  N   UNL     1     -26.280   4.886 -14.120  0.00  0.00    -0.165 NA
ATOM     12  N   UNL     1     -26.041   4.028 -15.173  0.00  0.00    -0.166 N 
ATOM     13  C   UNL     1     -26.748   2.874 -15.443  0.00  0.00    +0.136 A 
ATOM     14  C   UNL     1     -26.242   2.354 -16.619  0.00  0.00    -0.046 A 
ATOM     21  C   UNL     1     -25.176   3.189 -17.088  0.00  0.00    -0.028 A 
ATOM     22  C   UNL     1     -25.051   4.244 -16.196  0.00  0.00    +0.148 A 
ENDROOT
BRANCH   6   5
ATOM      1  C   UNL     1     -21.357   8.804 -16.180  0.00  0.00    +0.078 A 
ATOM      2  N   UNL     1     -20.730   9.041 -17.335  0.00  0.00    -0.314 NA
ATOM      3  C   UNL     1     -21.000   8.219 -18.354  0.00  0.00    +0.078 A 
ATOM      4  C   UNL     1     -21.881   7.157 -18.276  0.00  0.00    +0.053 A 
ATOM      5  C   UNL     1     -22.514   6.918 -17.062  0.00  0.00    +0.087 A 
ATOM     23  C   UNL     1     -22.248   7.762 -15.989  0.00  0.00    +0.053 A 
ENDBRANCH   6   5
BRANCH  14  15
ATOM     15  C   UNL     1     -26.764   1.174 -17.252  0.00  0.00    -0.020 A 
ATOM     16  C   UNL     1     -26.344   0.555 -18.444  0.00  0.00    +0.065 A 
ATOM     17  N   UNL     1     -27.062  -0.531 -18.704  0.00  0.00    -0.219 NA
ATOM     18  N   UNL     1     -27.950  -0.618 -17.692  0.00  0.00    -0.222 N 
ATOM     19  H   UNL     1     -28.659  -1.361 -17.611  0.00  0.00    +0.257 HD
ATOM     20  C   UNL     1     -27.802   0.371 -16.807  0.00  0.00    +0.148 A 
ENDBRANCH  14  15
TORSDOF 2
