REMARK  Name = 5ITA
REMARK  9 active torsions:
REMARK  status: ('A' for Active; 'I' for Inactive)
REMARK    1  A    between atoms: C_1  and  C_2
REMARK    2  A    between atoms: C_2  and  C_3
REMARK    3  A    between atoms: C_3  and  S_4
REMARK    4  A    between atoms: S_4  and  N_7
REMARK    5  A    between atoms: N_7  and  C_8
REMARK    6  A    between atoms: C_9  and  C_10
REMARK    7  A    between atoms: C_15  and  N_16
REMARK    8  A    between atoms: N_16  and  C_17
REMARK    9  A    between atoms: N_22  and  C_23
REMARK                            x       y       z     vdW  Elec       q    Type
REMARK                         _______ _______ _______ _____ _____    ______ ____
ROOT
ATOM      7  C   UNL     1      23.273  -2.744 -20.991  0.00  0.00    +0.067 A 
ATOM      8  C   UNL     1      22.900  -1.398 -20.887  0.00  0.00    +0.026 A 
ATOM      9  C   UNL     1      23.902  -0.431 -20.812  0.00  0.00    +0.004 A 
ATOM     10  C   UNL     1      25.263  -0.741 -20.874  0.00  0.00    +0.024 A 
ATOM     11  C   UNL     1      25.620  -2.096 -20.990  0.00  0.00    +0.051 A 
ATOM     26  C   UNL     1      24.624  -3.077 -21.053  0.00  0.00    +0.095 A 
ENDROOT
BRANCH   7   5
ATOM      5  N   UNL     1      22.421  -3.787 -21.059  0.00  0.00    -0.219 N 
ATOM      6  H   UNL     1      22.811  -4.762 -21.267  0.00  0.00    +0.173 HD
BRANCH   5   4
ATOM      4  S   UNL     1      20.806  -3.609 -20.833  0.00  0.00    +0.043 S 
ATOM     29  O   UNL     1      20.056  -4.918 -21.025  0.00  0.00    -0.155 OA
ATOM     30  O   UNL     1      20.216  -2.541 -21.712  0.00  0.00    -0.155 OA
BRANCH   4   3
ATOM      3  C   UNL     1      20.469  -3.037 -19.125  0.00  0.00    +0.188 C 
BRANCH   3   2
ATOM      1  C   UNL     1      20.669  -3.510 -16.703  0.00  0.00    +0.005 C 
ATOM      2  C   UNL     1      20.837  -4.122 -18.117  0.00  0.00    +0.021 C 
ENDBRANCH   3   2
ENDBRANCH   4   3
ENDBRANCH   5   4
ENDBRANCH   7   5
BRANCH  11  12
ATOM     12  N   UNL     1      26.897  -2.548 -21.103  0.00  0.00    -0.313 N 
ATOM     13  H   UNL     1      27.120  -3.229 -21.897  0.00  0.00    +0.152 HD
BRANCH  12  14
ATOM     14  C   UNL     1      27.901  -2.190 -20.275  0.00  0.00    +0.032 A 
ATOM     15  C   UNL     1      27.637  -1.657 -19.011  0.00  0.00    +0.025 A 
ATOM     16  C   UNL     1      28.703  -1.322 -18.172  0.00  0.00    +0.030 A 
ATOM     17  C   UNL     1      30.013  -1.499 -18.577  0.00  0.00    +0.078 A 
ATOM     18  N   UNL     1      31.008  -1.172 -17.739  0.00  0.00    -0.237 NA
ATOM     19  C   UNL     1      32.341  -1.330 -18.127  0.00  0.00    +0.202 C 
ATOM     20  N   UNL     1      32.627  -1.860 -19.394  0.00  0.00    -0.302 N 
ATOM     21  C   UNL     1      34.033  -2.047 -19.813  0.00  0.00    +0.153 C 
ATOM     22  C   UNL     1      31.635  -2.196 -20.233  0.00  0.00    +0.261 C 
ATOM     23  O   UNL     1      31.956  -2.655 -21.337  0.00  0.00    -0.267 OA
ATOM     24  C   UNL     1      30.300  -2.026 -19.847  0.00  0.00    +0.067 A 
ATOM     25  C   UNL     1      29.232  -2.370 -20.689  0.00  0.00    +0.038 A 
ENDBRANCH  12  14
ENDBRANCH  11  12
BRANCH  26  27
ATOM     27  C   UNL     1      25.001  -4.469 -21.159  0.00  0.00    +0.103 C 
ATOM     28  N   UNL     1      25.324  -5.538 -21.239  0.00  0.00    -0.191 NA
ENDBRANCH  26  27
TORSDOF 7
