REMARK  Name = 4jg6_ligand
REMARK  4 active torsions:
REMARK  status: ('A' for Active; 'I' for Inactive)
REMARK    1  A    between atoms: C01_1  and  C02_2
REMARK    2  A    between atoms: C01_1  and  C04_4
REMARK    3  A    between atoms: C01_1  and  C07_7
REMARK    4  A    between atoms: C07_7  and  C08_8
REMARK                            x       y       z     vdW  Elec       q    Type
REMARK                         _______ _______ _______ _____ _____    ______ ____
ROOT
ATOM      3  C   UNL     1      12.625 -29.812  21.259  0.00  0.00    -0.049 A 
ATOM      4  C   UNL     1      13.462 -30.177  22.304  0.00  0.00    -0.013 A 
ATOM      5  C   UNL     1      14.414 -31.154  22.108  0.00  0.00    +0.002 A 
ATOM      6  C   UNL     1      15.418 -31.770  22.927  0.00  0.00    +0.090 A 
ATOM      7  N   UNL     1      16.069 -32.688  22.172  0.00  0.00    -0.207 NA
ATOM      8  N   UNL     1      15.567 -32.700  20.965  0.00  0.00    -0.216 N 
ATOM      9  H   UNL     1      15.888 -33.310  20.200  0.00  0.00    +0.244 HD
ATOM     10  C   UNL     1      14.540 -31.774  20.862  0.00  0.00    +0.082 A 
ATOM     11  C   UNL     1      13.710 -31.416  19.807  0.00  0.00    +0.015 A 
ATOM     12  C   UNL     1      12.746 -30.428  20.011  0.00  0.00    -0.013 A 
ENDROOT
BRANCH   3   2
ATOM      2  C   UNL     1      11.591 -28.756  21.468  0.00  0.00    +0.111 C 
BRANCH   2   1
ATOM      1  C   UNL     1      11.917 -27.332  21.163  0.00  0.00    +0.265 C 
BRANCH   1  13
ATOM     13  C   UNL     1      12.826 -27.281  19.980  0.00  0.00    +0.205 C 
ATOM     14  O   UNL     1      14.036 -27.346  20.133  0.00  0.00    -0.395 OA
ATOM     15  N   UNL     1      12.279 -27.169  18.664  0.00  0.00    -0.299 N 
ATOM     16  H   UNL     1      11.288 -27.125  18.537  0.00  0.00    +0.181 HD
ATOM     17  H   UNL     1      12.887 -27.135  17.871  0.00  0.00    +0.181 HD
ENDBRANCH   1  13
BRANCH   1  18
ATOM     18  C   UNL     1      12.592 -26.701  22.332  0.00  0.00    +0.117 C 
ATOM     19  N   UNL     1      13.113 -26.217  23.227  0.00  0.00    -0.300 NA
ENDBRANCH   1  18
ENDBRANCH   2   1
ENDBRANCH   3   2
TORSDOF 4
