REMARK  Name = 4EK5
REMARK  5 active torsions:
REMARK  status: ('A' for Active; 'I' for Inactive)
REMARK    1  A    between atoms: N_1  and  C_18
REMARK    2  A    between atoms: O_5  and  C_14
REMARK    3  A    between atoms: C_14  and  C_16
REMARK    4  A    between atoms: C_15  and  C_17
REMARK    5  A    between atoms: C_19  and  C_20
REMARK                            x       y       z     vdW  Elec       q    Type
REMARK                         _______ _______ _______ _____ _____    ______ ____
ROOT
ATOM      1  N   UNL     1      -2.904  -6.248  29.440  0.00  0.00    -0.267 N 
ATOM      2  H   UNL     1      -3.575  -5.903  30.198  0.00  0.00    +0.157 HD
ATOM     12  C   UNL     1      -3.137  -7.454  28.894  0.00  0.00    +0.249 C 
ATOM     24  O   UNL     1      -2.421  -7.986  28.045  0.00  0.00    -0.270 OA
ENDROOT
BRANCH   1   3
ATOM      3  C   UNL     1      -1.870  -5.439  29.090  0.00  0.00    +0.121 A 
ATOM      4  C   UNL     1      -0.750  -5.655  28.364  0.00  0.00    +0.068 A 
ATOM      5  C   UNL     1      -0.127  -4.458  28.350  0.00  0.00    +0.068 A 
ATOM      9  N   UNL     1      -0.871  -3.571  29.029  0.00  0.00    -0.177 NA
ATOM     10  N   UNL     1      -1.879  -4.165  29.477  0.00  0.00    -0.264 N 
ATOM     11  H   UNL     1      -2.637  -3.714  30.083  0.00  0.00    +0.190 HD
BRANCH   5   6
ATOM      6  C   UNL     1       1.210  -3.995  27.723  0.00  0.00    +0.040 C 
ATOM      7  C   UNL     1       2.348  -5.019  27.646  0.00  0.00    +0.010 C 
ATOM      8  C   UNL     1       1.607  -4.601  26.364  0.00  0.00    +0.010 C 
ENDBRANCH   5   6
ENDBRANCH   1   3
BRANCH  12  13
ATOM     13  C   UNL     1      -4.345  -8.222  29.420  0.00  0.00    +0.037 A 
ATOM     14  C   UNL     1      -4.747  -8.125  30.748  0.00  0.00    +0.014 A 
ATOM     15  C   UNL     1      -5.814  -8.883  31.206  0.00  0.00    +0.014 A 
ATOM     16  C   UNL     1      -6.523  -9.707  30.346  0.00  0.00    +0.036 A 
ATOM     22  C   UNL     1      -6.112  -9.837  29.021  0.00  0.00    +0.014 A 
ATOM     23  C   UNL     1      -5.043  -9.068  28.552  0.00  0.00    +0.014 A 
BRANCH  16  17
ATOM     17  C   UNL     1      -7.685 -10.523  30.938  0.00  0.00    +0.212 C 
ATOM     20  N   UNL     1      -8.693 -10.793  30.123  0.00  0.00    -0.267 NA
ATOM     21  H   UNL     1      -8.671 -10.444  29.112  0.00  0.00    +0.190 HD
BRANCH  17  18
ATOM     18  O   UNL     1      -7.638 -10.890  32.115  0.00  0.00    -0.492 OA
ATOM     19  H   UNL     1      -8.454 -10.489  32.640  0.00  0.00    +0.294 HD
ENDBRANCH  17  18
ENDBRANCH  16  17
ENDBRANCH  12  13
TORSDOF 5
