REMARK  Name = 4qtc_ligand
REMARK  7 active torsions:
REMARK  status: ('A' for Active; 'I' for Inactive)
REMARK    1  A    between atoms: C20_2  and  C19_19
REMARK    2  A    between atoms: N5_3  and  C21_4
REMARK    3  A    between atoms: C27_7  and  C28_8
REMARK    4  A    between atoms: N_22  and  C2_24
REMARK    5  A    between atoms: C2_24  and  C3_25
REMARK    6  A    between atoms: N2_30  and  C8_33
REMARK    7  A    between atoms: C11_36  and  C14_39
REMARK                            x       y       z     vdW  Elec       q    Type
REMARK                         _______ _______ _______ _____ _____    ______ ____
ROOT
ATOM      3  C   UNL     1      60.844  33.799  13.488  0.00  0.00    +0.159 C 
ATOM      4  C   UNL     1      60.550  35.288  13.153  0.00  0.00    +0.159 C 
ATOM      5  N   UNL     1      59.080  35.241  13.081  0.00  0.00    +0.254 N 
ATOM      6  H   UNL     1      59.005  35.564  14.033  0.00  0.00    +0.205 HD
ATOM     28  C   UNL     1      58.548  33.918  13.422  0.00  0.00    +0.136 C 
ATOM     29  C   UNL     1      59.639  33.187  14.128  0.00  0.00    +0.082 C 
ENDROOT
BRANCH   3   2
ATOM      1  O   UNL     1      60.611  33.028  11.218  0.00  0.00    -0.384 OA
ATOM      2  C   UNL     1      61.117  32.872  12.324  0.00  0.00    +0.212 C 
ATOM     30  N   UNL     1      62.100  31.970  12.608  0.00  0.00    -0.234 N 
ATOM     31  H   UNL     1      62.224  31.723  13.569  0.00  0.00    +0.226 HD
BRANCH  30  32
ATOM     32  C   UNL     1      62.961  31.350  11.671  0.00  0.00    +0.067 A 
ATOM     33  C   UNL     1      63.212  31.853  10.410  0.00  0.00    +0.009 A 
ATOM     34  C   UNL     1      64.179  31.292   9.598  0.00  0.00    -0.009 A 
ATOM     35  C   UNL     1      64.872  30.185  10.066  0.00  0.00    -0.002 A 
ATOM     36  N   UNL     1      65.889  29.464   9.514  0.00  0.00    -0.282 NA
ATOM     37  N   UNL     1      66.301  28.481  10.346  0.00  0.00    -0.224 N 
ATOM     38  H   UNL     1      67.062  27.813  10.155  0.00  0.00    +0.295 HD
ATOM     39  C   UNL     1      65.578  28.517  11.429  0.00  0.00    +0.141 A 
ATOM     46  C   UNL     1      64.609  29.629  11.322  0.00  0.00    +0.021 A 
ATOM     47  C   UNL     1      63.626  30.220  12.131  0.00  0.00    +0.023 A 
BRANCH  39  40
ATOM     40  C   UNL     1      65.809  27.557  12.534  0.00  0.00    +0.038 A 
ATOM     41  C   UNL     1      66.835  26.623  12.420  0.00  0.00    +0.041 A 
ATOM     42  C   UNL     1      67.097  25.793  13.492  0.00  0.00    +0.084 A 
ATOM     43  N   UNL     1      66.432  25.813  14.644  0.00  0.00    -0.307 NA
ATOM     44  C   UNL     1      65.427  26.717  14.730  0.00  0.00    +0.084 A 
ATOM     45  C   UNL     1      65.090  27.591  13.708  0.00  0.00    +0.041 A 
ENDBRANCH  39  40
ENDBRANCH  30  32
ENDBRANCH   3   2
BRANCH   5   7
ATOM      7  C   UNL     1      58.181  36.317  12.659  0.00  0.00    +0.271 C 
BRANCH   7   8
ATOM      8  C   UNL     1      56.851  35.795  12.114  0.00  0.00    +0.224 C 
ATOM      9  N   UNL     1      55.758  36.571  12.242  0.00  0.00    -0.265 N 
ATOM     10  C   UNL     1      54.453  36.028  11.843  0.00  0.00    +0.162 C 
ATOM     11  C   UNL     1      53.369  37.061  12.063  0.00  0.00    +0.156 C 
ATOM     12  N   UNL     1      53.692  38.307  11.362  0.00  0.00    -0.302 N 
ATOM     25  C   UNL     1      55.006  38.855  11.712  0.00  0.00    +0.156 C 
ATOM     26  C   UNL     1      55.713  37.964  12.727  0.00  0.00    +0.162 C 
ATOM     27  O   UNL     1      56.786  34.677  11.614  0.00  0.00    -0.391 OA
BRANCH  12  13
ATOM     13  C   UNL     1      52.812  38.837  10.396  0.00  0.00    +0.046 A 
ATOM     14  C   UNL     1      51.436  38.646  10.519  0.00  0.00    +0.015 A 
ATOM     15  C   UNL     1      50.582  38.975   9.484  0.00  0.00    +0.006 A 
ATOM     16  C   UNL     1      51.060  39.515   8.292  0.00  0.00    +0.009 A 
ATOM     23  C   UNL     1      52.425  39.790   8.208  0.00  0.00    +0.006 A 
ATOM     24  C   UNL     1      53.292  39.453   9.236  0.00  0.00    +0.015 A 
BRANCH  16  17
ATOM     17  C   UNL     1      50.173  39.619   7.092  0.00  0.00    +0.119 A 
ATOM     18  N   UNL     1      48.921  39.150   7.215  0.00  0.00    -0.263 NA
ATOM     19  C   UNL     1      48.188  39.137   6.091  0.00  0.00    +0.118 A 
ATOM     20  C   UNL     1      48.652  39.583   4.878  0.00  0.00    +0.063 A 
ATOM     21  C   UNL     1      49.937  40.065   4.874  0.00  0.00    +0.118 A 
ATOM     22  N   UNL     1      50.719  40.100   5.965  0.00  0.00    -0.263 NA
ENDBRANCH  16  17
ENDBRANCH  12  13
ENDBRANCH   7   8
ENDBRANCH   5   7
TORSDOF 7
