REMARK  Name = 6HKM
REMARK  6 active torsions:
REMARK  status: ('A' for Active; 'I' for Inactive)
REMARK    1  A    between atoms: C6_3  and  O7_16
REMARK    2  A    between atoms: C8_4  and  O7_16
REMARK    3  A    between atoms: C17_7  and  C20_8
REMARK    4  A    between atoms: C26_11  and  O27_28
REMARK    5  A    between atoms: C2_14  and  C3_15
REMARK    6  A    between atoms: C29_29  and  O30_30
REMARK                            x       y       z     vdW  Elec       q    Type
REMARK                         _______ _______ _______ _____ _____    ______ ____
ROOT
ATOM      3  C   UNL     1       1.317 -36.914  -8.764  0.00  0.00    +0.600 C 
ATOM      4  N   UNL     1       1.274 -38.243  -8.477  0.00  0.00    -0.250 N 
ATOM      5  C   UNL     1       0.065 -39.083  -8.642  0.00  0.00    +0.000 C 
ATOM      6  C   UNL     1       0.431 -40.112  -9.717  0.00  0.00    -0.100 C 
ATOM      7  C   UNL     1       1.509 -41.024  -9.140  0.00  0.00    -0.050 C 
ATOM      8  C   UNL     1       2.757 -40.178  -8.885  0.00  0.00    -0.100 C 
ATOM     23  C   UNL     1       2.456 -38.979  -7.981  0.00  0.00    +0.000 C 
ATOM     24  O   UNL     1       2.339 -36.269  -8.628  0.00  0.00    -0.550 OA
ENDROOT
BRANCH   7   9
ATOM      9  C   UNL     1       1.960 -42.105 -10.092  0.00  0.00    +0.380 A 
ATOM     10  C   UNL     1       2.375 -43.412  -9.686  0.00  0.00    +0.000 A 
ATOM     11  C   UNL     1       2.384 -43.886  -8.348  0.00  0.00    -0.130 A 
ATOM     12  C   UNL     1       2.806 -45.173  -8.051  0.00  0.00    +0.185 A 
ATOM     15  C   UNL     1       3.228 -46.044  -9.084  0.00  0.00    +0.185 A 
ATOM     18  C   UNL     1       3.226 -45.614 -10.393  0.00  0.00    -0.130 A 
ATOM     19  C   UNL     1       2.808 -44.314 -10.719  0.00  0.00    +0.000 A 
ATOM     20  N   UNL     1       2.808 -43.895 -11.990  0.00  0.00    -0.380 NA
ATOM     21  C   UNL     1       2.430 -42.668 -12.292  0.00  0.00    +0.630 A 
ATOM     22  N   UNL     1       2.025 -41.796 -11.383  0.00  0.00    -0.760 NA
BRANCH  12  13
ATOM     13  O   UNL     1       2.844 -45.661  -6.769  0.00  0.00    -0.365 OA
ATOM     14  C   UNL     1       2.265 -44.971  -5.650  0.00  0.00    +0.030 C 
ENDBRANCH  12  13
BRANCH  15  16
ATOM     16  O   UNL     1       3.651 -47.296  -8.733  0.00  0.00    -0.365 OA
ATOM     17  C   UNL     1       3.347 -48.485  -9.481  0.00  0.00    +0.030 C 
ENDBRANCH  15  16
ENDBRANCH   7   9
BRANCH   3   2
ATOM      1  C   UNL     1      -0.903 -35.947  -8.302  0.00  0.00    -0.130 A 
ATOM      2  C   UNL     1       0.111 -36.212  -9.230  0.00  0.00    +0.000 A 
ATOM     25  C   UNL     1      -0.042 -35.818 -10.554  0.00  0.00    -0.130 A 
ATOM     26  C   UNL     1      -1.194 -35.173 -10.949  0.00  0.00    -0.130 A 
ATOM     27  C   UNL     1      -2.197 -34.906 -10.026  0.00  0.00    +0.185 A 
ATOM     33  C   UNL     1      -2.049 -35.305  -8.701  0.00  0.00    -0.130 A 
BRANCH  27  28
ATOM     28  O   UNL     1      -3.328 -34.287 -10.432  0.00  0.00    -0.185 OA
BRANCH  28  29
ATOM     29  C   UNL     1      -3.561 -32.939 -10.107  0.00  0.00    +0.900 C 
ATOM     30  F   UNL     1      -2.674 -32.164 -10.830  0.00  0.00    -0.300 F 
ATOM     31  F   UNL     1      -3.415 -32.705  -8.739  0.00  0.00    -0.300 F 
ATOM     32  F   UNL     1      -4.867 -32.656 -10.473  0.00  0.00    -0.300 F 
ENDBRANCH  28  29
ENDBRANCH  27  28
ENDBRANCH   3   2
TORSDOF 6
