REMARK  Name = 8VB
REMARK  8 active torsions:
REMARK  status: ('A' for Active; 'I' for Inactive)
REMARK    1  A    between atoms: CAU_2  and  CBE_4
REMARK    2  A    between atoms: CBE_4  and  CAV_5
REMARK    3  A    between atoms: CBE_4  and  CAR_8
REMARK    4  A    between atoms: CAR_8  and  CAZ_9
REMARK    5  A    between atoms: CBA_14  and  NAS_15
REMARK    6  A    between atoms: CAW_16  and  CBC_18
REMARK    7  A    between atoms: CBD_22  and  CAX_23
REMARK    8  A    between atoms: CAX_23  and  CBB_25
REMARK                            x       y       z     vdW  Elec       q    Type
REMARK                         _______ _______ _______ _____ _____    ______ ____
ROOT
ATOM     12  N   UNL     1       9.813  22.225   2.092  0.00  0.00    -0.178 NA
ATOM     13  C   UNL     1       8.615  21.863   1.673  0.00  0.00    +0.256 C 
ATOM     28  O   UNL     1       8.389  21.131   0.704  0.00  0.00    -0.272 OA
ENDROOT
BRANCH  12  11
ATOM      9  C   UNL     1      13.086  22.762   0.756  0.00  0.00    -0.020 A 
ATOM     10  C   UNL     1      11.994  22.673   1.593  0.00  0.00    +0.012 A 
ATOM     11  C   UNL     1      10.772  22.320   1.175  0.00  0.00    +0.073 A 
ATOM     29  C   UNL     1      10.513  22.583  -0.182  0.00  0.00    +0.017 A 
ATOM     30  C   UNL     1      11.541  22.785  -1.076  0.00  0.00    +0.001 A 
ATOM     31  C   UNL     1      12.848  22.870  -0.618  0.00  0.00    -0.004 A 
BRANCH   9   8
ATOM      8  C   UNL     1      14.374  22.774   1.254  0.00  0.00    +0.049 C 
BRANCH   8   4
ATOM      4  C   UNL     1      14.623  21.324   1.861  0.00  0.00    +0.210 C 
BRANCH   4   2
ATOM      1  O   UNL     1      12.896  20.065   3.041  0.00  0.00    -0.245 OA
ATOM      2  C   UNL     1      13.770  20.964   3.125  0.00  0.00    +0.376 C 
ATOM      3  O   UNL     1      14.013  21.655   4.148  0.00  0.00    -0.245 OA
ENDBRANCH   4   2
BRANCH   4   5
ATOM      5  C   UNL     1      16.093  21.033   2.138  0.00  0.00    +0.376 C 
ATOM      6  O   UNL     1      16.738  21.940   2.700  0.00  0.00    -0.245 OA
ATOM      7  O   UNL     1      16.521  19.900   1.810  0.00  0.00    -0.245 OA
ENDBRANCH   4   5
ENDBRANCH   8   4
ENDBRANCH   9   8
ENDBRANCH  12  11
BRANCH  13  14
ATOM     14  C   UNL     1       7.745  21.803   2.660  0.00  0.00    +0.134 C 
ATOM     15  S   UNL     1       7.618  22.798   3.924  0.00  0.00    -0.102 S 
ATOM     16  C   UNL     1       6.436  22.054   4.618  0.00  0.00    +0.060 C 
ATOM     26  C   UNL     1       5.943  21.249   3.674  0.00  0.00    -0.015 C 
ATOM     27  C   UNL     1       6.651  21.115   2.566  0.00  0.00    +0.047 C 
BRANCH  16  17
ATOM     17  C   UNL     1       5.607  22.354   5.599  0.00  0.00    +0.201 C 
ATOM     25  O   UNL     1       5.297  23.515   5.866  0.00  0.00    -0.286 OA
BRANCH  17  18
ATOM     18  C   UNL     1       5.092  21.265   6.296  0.00  0.00    +0.040 A 
ATOM     19  C   UNL     1       4.015  21.323   7.147  0.00  0.00    +0.003 A 
ATOM     20  C   UNL     1       3.659  20.205   7.908  0.00  0.00    +0.001 A 
ATOM     21  C   UNL     1       4.478  19.068   7.984  0.00  0.00    +0.006 A 
ATOM     22  C   UNL     1       5.668  19.075   7.226  0.00  0.00    +0.030 A 
ATOM     23  I   UNL     1       7.180  17.595   7.057  0.00  0.00    -0.043 I 
ATOM     24  C   UNL     1       5.942  20.181   6.460  0.00  0.00    +0.009 A 
ENDBRANCH  17  18
ENDBRANCH  16  17
ENDBRANCH  13  14
TORSDOF 8
