REMARK  Name = 3TUD
REMARK  7 active torsions:
REMARK  status: ('A' for Active; 'I' for Inactive)
REMARK    1  A    between atoms: C_1  and  C_2
REMARK    2  A    between atoms: C_5  and  N_6
REMARK    3  A    between atoms: C_7  and  C_9
REMARK    4  A    between atoms: C_13  and  C_15
REMARK    5  A    between atoms: C_20  and  C_21
REMARK    6  A    between atoms: N_27  and  C_28
REMARK    7  A    between atoms: N_36  and  C_37
REMARK                            x       y       z     vdW  Elec       q    Type
REMARK                         _______ _______ _______ _____ _____    ______ ____
ROOT
ATOM      1  C   UNL     1     -25.662  -5.809   5.380  0.00  0.00    +0.044 C 
ATOM      2  C   UNL     1     -25.662  -5.156   6.738  0.00  0.00    -0.043 A 
ATOM      3  C   UNL     1     -24.468  -4.588   7.300  0.00  0.00    -0.008 A 
ATOM     24  C   UNL     1     -24.521  -3.977   8.565  0.00  0.00    +0.032 A 
ATOM     25  C   UNL     1     -25.727  -3.904   9.289  0.00  0.00    +0.034 A 
ATOM     40  C   UNL     1     -26.902  -4.423   8.716  0.00  0.00    +0.023 A 
ATOM     41  C   UNL     1     -26.873  -5.077   7.474  0.00  0.00    +0.006 A 
ENDROOT
BRANCH   3   4
ATOM      4  C   UNL     1     -23.152  -4.681   6.565  0.00  0.00    +0.048 C 
ATOM      5  C   UNL     1     -22.463  -6.002   6.588  0.00  0.00    +0.260 C 
ATOM      6  O   UNL     1     -22.959  -6.935   7.191  0.00  0.00    -0.267 OA
ATOM      7  N   UNL     1     -21.274  -6.199   5.940  0.00  0.00    -0.295 N 
ATOM      8  C   UNL     1     -20.615  -7.558   5.997  0.00  0.00    +0.154 C 
ATOM      9  C   UNL     1     -20.686  -5.148   5.260  0.00  0.00    +0.148 A 
ATOM     10  N   UNL     1     -19.528  -5.342   4.653  0.00  0.00    -0.196 NA
ATOM     11  C   UNL     1     -18.891  -4.387   4.014  0.00  0.00    +0.221 A 
ATOM     12  N   UNL     1     -17.663  -4.631   3.415  0.00  0.00    -0.284 N 
ATOM     13  H   UNL     1     -17.232  -3.803   2.892  0.00  0.00    +0.155 HD
ATOM     20  N   UNL     1     -19.426  -3.149   3.924  0.00  0.00    -0.222 NA
ATOM     21  C   UNL     1     -20.608  -2.847   4.499  0.00  0.00    +0.126 A 
ATOM     22  C   UNL     1     -21.302  -3.858   5.213  0.00  0.00    +0.036 A 
ATOM     23  C   UNL     1     -22.597  -3.626   5.869  0.00  0.00    +0.027 C 
BRANCH  12  14
ATOM     14  C   UNL     1     -16.904  -5.823   3.401  0.00  0.00    +0.034 A 
ATOM     15  C   UNL     1     -15.902  -5.918   2.427  0.00  0.00    +0.023 A 
ATOM     16  C   UNL     1     -15.010  -7.049   2.419  0.00  0.00    +0.002 A 
ATOM     17  C   UNL     1     -15.178  -8.092   3.296  0.00  0.00    +0.000 A 
ATOM     18  C   UNL     1     -16.222  -8.016   4.294  0.00  0.00    +0.002 A 
ATOM     19  C   UNL     1     -17.090  -6.893   4.356  0.00  0.00    +0.023 A 
ENDBRANCH  12  14
ENDBRANCH   3   4
BRANCH  25  26
ATOM     26  N   UNL     1     -25.876  -3.292  10.570  0.00  0.00    -0.281 N 
ATOM     27  H   UNL     1     -26.668  -3.676  11.178  0.00  0.00    +0.155 HD
ATOM     28  C   UNL     1     -25.139  -2.278  11.125  0.00  0.00    +0.248 C 
ATOM     39  O   UNL     1     -24.187  -1.771  10.576  0.00  0.00    -0.270 OA
BRANCH  28  29
ATOM     29  C   UNL     1     -25.490  -1.728  12.431  0.00  0.00    +0.038 A 
ATOM     30  C   UNL     1     -24.705  -0.649  12.882  0.00  0.00    +0.025 A 
ATOM     31  C   UNL     1     -24.967  -0.040  14.097  0.00  0.00    +0.056 A 
ATOM     36  C   UNL     1     -26.026  -0.506  14.887  0.00  0.00    +0.012 A 
ATOM     37  C   UNL     1     -26.846  -1.593  14.443  0.00  0.00    +0.001 A 
ATOM     38  C   UNL     1     -26.576  -2.215  13.223  0.00  0.00    +0.013 A 
BRANCH  31  32
ATOM     32  C   UNL     1     -24.137   1.127  14.515  0.00  0.00    +0.417 C 
ATOM     33  F   UNL     1     -24.996   2.193  14.538  0.00  0.00    -0.166 F 
ATOM     34  F   UNL     1     -23.223   1.507  13.552  0.00  0.00    -0.166 F 
ATOM     35  F   UNL     1     -23.547   0.987  15.764  0.00  0.00    -0.166 F 
ENDBRANCH  31  32
ENDBRANCH  28  29
ENDBRANCH  25  26
TORSDOF 5
