REMARK  Name = 1E2E
REMARK  7 active torsions:
REMARK  status: ('A' for Active; 'I' for Inactive)
REMARK    1  A    between atoms: P_1  and  O_5
REMARK    2  A    between atoms: O_5  and  C_6
REMARK    3  A    between atoms: C_6  and  C_7
REMARK    4  A    between atoms: C_9  and  O_10
REMARK    5  A    between atoms: C_12  and  N_13
REMARK    6  A    between atoms: C_17  and  O_18
REMARK    7  A    between atoms: C_19  and  C_20
REMARK                            x       y       z     vdW  Elec       q    Type
REMARK                         _______ _______ _______ _____ _____    ______ ____
ROOT
ATOM      4  C   UNL     1      14.696  75.588  26.133  0.00  0.00    +0.175 C 
ATOM      5  C   UNL     1      13.728  76.085  27.207  0.00  0.00    +0.150 C 
ATOM      6  C   UNL     1      12.815  77.031  26.383  0.00  0.00    +0.085 C 
ATOM      7  C   UNL     1      13.726  77.539  25.298  0.00  0.00    +0.213 C 
ATOM     21  O   UNL     1      14.745  76.563  25.095  0.00  0.00    -0.350 OA
ENDROOT
BRANCH   7   8
ATOM      8  N   UNL     1      13.395  78.070  23.998  0.00  0.00    -0.255 N 
ATOM      9  C   UNL     1      12.736  77.146  23.248  0.00  0.00    +0.147 C 
ATOM     10  C   UNL     1      12.322  77.525  21.996  0.00  0.00    +0.002 C 
ATOM     11  C   UNL     1      11.550  76.594  21.115  0.00  0.00    +0.046 C 
ATOM     12  C   UNL     1      12.750  78.873  21.500  0.00  0.00    +0.185 C 
ATOM     15  N   UNL     1      13.482  79.706  22.318  0.00  0.00    -0.240 N 
ATOM     16  H   UNL     1      13.776  80.663  21.941  0.00  0.00    +0.159 HD
ATOM     17  C   UNL     1      13.851  79.361  23.598  0.00  0.00    +0.311 C 
ATOM     18  O   UNL     1      14.551  80.087  24.340  0.00  0.00    -0.252 OA
BRANCH  12  13
ATOM     13  O   UNL     1      12.380  79.193  20.221  0.00  0.00    -0.495 OA
ATOM     14  H   UNL     1      11.786  80.059  20.234  0.00  0.00    +0.293 HD
ENDBRANCH  12  13
ENDBRANCH   7   8
BRANCH   5  19
ATOM     19  O   UNL     1      14.471  76.819  28.166  0.00  0.00    -0.389 OA
ATOM     20  H   UNL     1      15.199  76.197  28.596  0.00  0.00    +0.210 HD
ENDBRANCH   5  19
BRANCH   4   3
ATOM      3  C   UNL     1      14.544  74.112  25.746  0.00  0.00    +0.197 C 
BRANCH   3   2
ATOM      2  O   UNL     1      13.995  73.298  26.771  0.00  0.00    -0.365 OA
BRANCH   2   1
ATOM      1  P   UNL     1      13.330  71.878  26.865  0.00  0.00    -0.015 P 
ATOM     22  O   UNL     1      12.085  71.935  25.792  0.00  0.00    -0.577 OA
ATOM     23  O   UNL     1      12.668  71.953  28.238  0.00  0.00    -0.577 OA
ATOM     24  O   UNL     1      14.246  70.762  26.647  0.00  0.00    -0.638 OA
ENDBRANCH   2   1
ENDBRANCH   3   2
ENDBRANCH   4   3
TORSDOF 6
