REMARK  Name = EB3
REMARK  4 active torsions:
REMARK  status: ('A' for Active; 'I' for Inactive)
REMARK    1  A    between atoms: CAT_6  and  NAS_7
REMARK    2  A    between atoms: NAS_7  and  SAP_8
REMARK    3  A    between atoms: SAP_8  and  CAH_11
REMARK    4  A    between atoms: NAD_23  and  CAM_24
REMARK                            x       y       z     vdW  Elec       q    Type
REMARK                         _______ _______ _______ _____ _____    ______ ____
ROOT
ATOM      5  C   UNL     1       5.554  10.207   1.610  0.00  0.00    +0.124 A 
ATOM      6  C   UNL     1       4.315   9.953   2.241  0.00  0.00    +0.020 A 
ATOM      7  C   UNL     1       4.312   9.194   3.356  0.00  0.00    +0.022 A 
ATOM      8  C   UNL     1       3.239   8.817   4.068  0.00  0.00    +0.058 A 
ATOM      9  C   UNL     1       3.730   8.072   5.109  0.00  0.00    +0.261 A 
ATOM     10  O   UNL     1       3.118   7.401   5.946  0.00  0.00    -0.267 OA
ATOM     11  N   UNL     1       5.051   7.975   5.018  0.00  0.00    -0.295 N 
ATOM     14  C   UNL     1       2.028   9.245   3.657  0.00  0.00    +0.005 A 
ATOM     15  C   UNL     1       1.896  10.038   2.490  0.00  0.00    +0.000 A 
ATOM     16  C   UNL     1       5.424   8.684   3.943  0.00  0.00    +0.063 A 
ATOM     17  C   UNL     1       6.619   8.912   3.377  0.00  0.00    +0.019 A 
ATOM     18  C   UNL     1       3.052  10.395   1.767  0.00  0.00    +0.001 A 
ATOM     19  C   UNL     1       6.716   9.682   2.207  0.00  0.00    +0.021 A 
ENDROOT
BRANCH   5   4
ATOM      4  S   UNL     1       5.750  11.184   0.157  0.00  0.00    +0.077 S 
ATOM     20  O   UNL     1       5.173  12.527   0.536  0.00  0.00    -0.152 OA
ATOM     21  O   UNL     1       7.170  11.167  -0.343  0.00  0.00    -0.152 OA
BRANCH   4   3
ATOM      3  N   UNL     1       4.646  10.656  -1.062  0.00  0.00    -0.079 NA
BRANCH   3   2
ATOM      1  C   UNL     1       5.690   9.234  -2.933  0.00  0.00    +0.019 C 
ATOM      2  C   UNL     1       4.565   9.453  -1.944  0.00  0.00    +0.098 C 
ATOM     22  C   UNL     1       3.956   8.260  -1.197  0.00  0.00    +0.019 C 
ATOM     23  C   UNL     1       3.935   6.999  -2.000  0.00  0.00    +0.002 C 
ATOM     24  C   UNL     1       4.417   7.142  -3.450  0.00  0.00    +0.000 C 
ATOM     25  C   UNL     1       5.791   7.879  -3.559  0.00  0.00    +0.002 C 
ENDBRANCH   3   2
ENDBRANCH   4   3
ENDBRANCH   5   4
BRANCH  11  12
ATOM     12  C   UNL     1       5.940   7.285   5.923  0.00  0.00    +0.109 C 
ATOM     13  C   UNL     1       6.112   5.830   5.418  0.00  0.00    +0.027 C 
ENDBRANCH  11  12
TORSDOF 4
