REMARK  Name = 1NXK
REMARK  5 active torsions:
REMARK  status: ('A' for Active; 'I' for Inactive)
REMARK    1  A    between atoms: C_4  and  N_34
REMARK    2  A    between atoms: C_5  and  O_32
REMARK    3  A    between atoms: C_6  and  C_7
REMARK    4  A    between atoms: O_32  and  C_33
REMARK    5  A    between atoms: N_34  and  C_35
REMARK                            x       y       z     vdW  Elec       q    Type
REMARK                         _______ _______ _______ _____ _____    ______ ____
ROOT
ATOM      1  O   UNL     1     114.475  21.270  64.179  0.00  0.00    -0.328 OA
ATOM      2  C   UNL     1     113.966  21.569  62.895  0.00  0.00    +0.174 C 
ATOM      3  N   UNL     1     113.395  20.313  62.257  0.00  0.00    -0.307 N 
ATOM      4  C   UNL     1     112.296  20.148  61.388  0.00  0.00    +0.053 A 
ATOM      5  C   UNL     1     111.362  21.018  60.842  0.00  0.00    +0.026 A 
ATOM      6  C   UNL     1     110.391  20.559  59.994  0.00  0.00    +0.002 A 
ATOM      7  C   UNL     1     110.317  19.150  59.639  0.00  0.00    +0.001 A 
ATOM      8  C   UNL     1     111.250  18.276  60.189  0.00  0.00    +0.010 A 
ATOM      9  C   UNL     1     112.240  18.725  61.057  0.00  0.00    +0.008 A 
ATOM     10  C   UNL     1     113.281  18.058  61.733  0.00  0.00    +0.015 A 
ATOM     11  C   UNL     1     113.741  16.707  61.811  0.00  0.00    -0.008 A 
ATOM     12  C   UNL     1     113.161  15.501  61.113  0.00  0.00    +0.141 C 
ATOM     13  N   UNL     1     114.086  14.499  61.605  0.00  0.00    -0.307 N 
ATOM     14  H   UNL     1     114.000  13.472  61.319  0.00  0.00    +0.149 HD
ATOM     15  C   UNL     1     115.036  14.908  62.419  0.00  0.00    +0.245 C 
ATOM     16  O   UNL     1     115.906  14.254  62.941  0.00  0.00    -0.270 OA
ATOM     17  C   UNL     1     114.777  16.355  62.532  0.00  0.00    +0.052 A 
ATOM     18  C   UNL     1     115.567  17.303  63.332  0.00  0.00    +0.022 A 
ATOM     19  C   UNL     1     116.671  17.224  64.159  0.00  0.00    +0.009 A 
ATOM     20  C   UNL     1     117.523  16.193  64.605  0.00  0.00    +0.010 A 
ATOM     21  C   UNL     1     118.570  16.465  65.477  0.00  0.00    +0.001 A 
ATOM     22  C   UNL     1     118.807  17.801  65.944  0.00  0.00    +0.002 A 
ATOM     23  C   UNL     1     117.996  18.861  65.523  0.00  0.00    +0.026 A 
ATOM     24  C   UNL     1     116.923  18.567  64.625  0.00  0.00    +0.052 A 
ATOM     25  N   UNL     1     115.995  19.407  64.082  0.00  0.00    -0.312 N 
ATOM     26  C   UNL     1     115.110  18.672  63.263  0.00  0.00    +0.077 A 
ATOM     27  C   UNL     1     114.034  19.045  62.511  0.00  0.00    +0.077 A 
ATOM     28  C   UNL     1     112.886  22.627  63.165  0.00  0.00    +0.069 C 
ATOM     29  C   UNL     1     115.081  22.169  61.924  0.00  0.00    +0.187 C 
ATOM     32  C   UNL     1     116.150  22.795  62.882  0.00  0.00    +0.091 C 
ATOM     36  C   UNL     1     116.831  21.701  63.756  0.00  0.00    +0.076 C 
ATOM     37  C   UNL     1     115.790  20.811  64.523  0.00  0.00    +0.224 C 
ENDROOT
BRANCH  32  33
ATOM     33  N   UNL     1     117.297  23.529  62.085  0.00  0.00    -0.314 NA
ATOM     34  H   UNL     1     117.869  22.807  61.540  0.00  0.00    +0.122 HD
ATOM     35  C   UNL     1     116.690  24.528  61.116  0.00  0.00    +0.101 C 
ENDBRANCH  32  33
BRANCH  29  30
ATOM     30  O   UNL     1     115.781  21.120  61.197  0.00  0.00    -0.374 OA
ATOM     31  C   UNL     1     115.411  21.064  59.841  0.00  0.00    +0.194 C 
ENDBRANCH  29  30
TORSDOF 2
