REMARK  Name = 3zlx_ligand
REMARK  4 active torsions:
REMARK  status: ('A' for Active; 'I' for Inactive)
REMARK    1  A    between atoms: C4_4  and  C6_6
REMARK    2  A    between atoms: C6_6  and  O7_7
REMARK    3  A    between atoms: O7_7  and  C11_10
REMARK    4  A    between atoms: C19_17  and  O21_18
REMARK                            x       y       z     vdW  Elec       q    Type
REMARK                         _______ _______ _______ _____ _____    ______ ____
ROOT
ATOM      9  C   UNL     1     -18.375  26.732  -3.467  0.00  0.00    +0.178 C 
ATOM     10  C   UNL     1     -18.227  28.183  -3.114  0.00  0.00    -0.015 C 
ATOM     11  C   UNL     1     -19.365  28.950  -2.970  0.00  0.00    -0.065 C 
ATOM     12  C   UNL     1     -19.328  30.368  -2.736  0.00  0.00    -0.048 C 
ATOM     13  C   UNL     1     -20.472  31.081  -2.640  0.00  0.00    +0.099 C 
ATOM     14  N   UNL     1     -21.766  30.526  -2.767  0.00  0.00    -0.291 N 
ATOM     15  H   UNL     1     -22.593  31.128  -2.644  0.00  0.00    +0.188 HD
ATOM     16  C   UNL     1     -21.941  29.128  -3.066  0.00  0.00    +0.260 C 
ATOM     19  C   UNL     1     -20.699  28.264  -2.935  0.00  0.00    -0.017 C 
ATOM     20  C   UNL     1     -20.802  26.937  -2.890  0.00  0.00    -0.021 C 
ATOM     21  C   UNL     1     -19.543  26.145  -2.710  0.00  0.00    +0.150 C 
ATOM     22 CL   UNL     1     -19.805  24.416  -3.295  0.00  0.00    -0.104 Cl
ENDROOT
BRANCH  16  17
ATOM     17  O   UNL     1     -22.978  28.522  -2.424  0.00  0.00    -0.361 OA
ATOM     18  H   UNL     1     -23.017  27.608  -2.680  0.00  0.00    +0.215 HD
ENDBRANCH  16  17
BRANCH   9   8
ATOM      8  O   UNL     1     -17.207  25.985  -3.095  0.00  0.00    -0.362 OA
BRANCH   8   7
ATOM      7  C   UNL     1     -15.981  26.286  -3.771  0.00  0.00    +0.172 C 
BRANCH   7   6
ATOM      1  N   UNL     1     -14.169  23.080  -4.485  0.00  0.00    +0.227 N 
ATOM      2  H   UNL     1     -14.173  22.456  -3.693  0.00  0.00    +0.201 HD
ATOM      3  H   UNL     1     -14.085  22.544  -5.335  0.00  0.00    +0.201 HD
ATOM      4  C   UNL     1     -13.053  24.064  -4.372  0.00  0.00    +0.130 C 
ATOM      5  C   UNL     1     -13.642  25.356  -3.729  0.00  0.00    +0.062 C 
ATOM      6  C   UNL     1     -15.125  25.065  -3.501  0.00  0.00    +0.065 C 
ATOM     23  C   UNL     1     -15.414  23.913  -4.507  0.00  0.00    +0.135 C 
ENDBRANCH   7   6
ENDBRANCH   8   7
ENDBRANCH   9   8
TORSDOF 4
