REMARK  Name = 4YLL
REMARK  2 active torsions:
REMARK  status: ('A' for Active; 'I' for Inactive)
REMARK    1  A    between atoms: O_1  and  C_2
REMARK    2  A    between atoms: C_2  and  CA_4
REMARK                            x       y       z     vdW  Elec       q    Type
REMARK                         _______ _______ _______ _____ _____    ______ ____
ROOT
ATOM      4  CA  UNL     1      19.495  51.584  35.081  0.00  0.00    +0.158 A 
ATOM      5  C   UNL     1      18.500  51.308  36.147  0.00  0.00    +0.043 A 
ATOM      6  C   UNL     1      17.845  51.795  37.321  0.00  0.00    +0.013 A 
ATOM      7  C   UNL     1      16.848  50.843  37.688  0.00  0.00    +0.086 A 
ATOM      8  N   UNL     1      16.938  49.842  36.741  0.00  0.00    -0.245 NA
ATOM      9  C   UNL     1      16.015  50.954  38.802  0.00  0.00    +0.044 A 
ATOM     10 BR   UNL     1      14.762  49.544  39.189  0.00  0.00    -0.048 Br
ATOM     11  C   UNL     1      16.109  52.096  39.575  0.00  0.00    +0.017 A 
ATOM     12  C   UNL     1      17.048  53.078  39.226  0.00  0.00    +0.002 A 
ATOM     13  C   UNL     1      17.949  52.951  38.144  0.00  0.00    +0.011 A 
ATOM     14  C   UNL     1      17.893  50.122  35.850  0.00  0.00    +0.084 A 
ATOM     15  C   UNL     1      18.253  49.265  34.791  0.00  0.00    +0.027 A 
ATOM     16  C   UNL     1      17.650  48.014  34.714  0.00  0.00    +0.026 A 
ATOM     17  C   UNL     1      17.931  47.151  33.659  0.00  0.00    +0.014 A 
ATOM     18  I   UNL     1      17.086  45.201  33.588  0.00  0.00    -0.044 I 
ATOM     19  C   UNL     1      18.873  47.473  32.689  0.00  0.00    +0.016 A 
ATOM     20  C   UNL     1      19.472  48.706  32.755  0.00  0.00    +0.029 A 
ATOM     21  C   UNL     1      19.172  49.602  33.796  0.00  0.00    +0.074 A 
ATOM     22  N   UNL     1      19.771  50.846  33.854  0.00  0.00    -0.239 NA
ENDROOT
BRANCH   4   3
ATOM      3  C   UNL     1      20.268  52.600  35.090  0.00  0.00    +0.356 C 
ATOM     23  OXT UNL     1      20.311  52.990  36.315  0.00  0.00    -0.243 OA
BRANCH   3   1
ATOM      1  O   UNL     1      20.968  52.700  33.980  0.00  0.00    -0.476 OA
ATOM      2  H   UNL     1      21.055  53.711  33.711  0.00  0.00    +0.295 HD
ENDBRANCH   3   1
ENDBRANCH   4   3
TORSDOF 2
