REMARK  Name = 2w0j_ligand
REMARK  14 active torsions:
REMARK  status: ('A' for Active; 'I' for Inactive)
REMARK    1  A    between atoms: NAA_1  and  CAK_2
REMARK    2  A    between atoms: CAK_2  and  NAB_3
REMARK    3  A    between atoms: CAK_2  and  NAC_4
REMARK    4  A    between atoms: NAD_5  and  CAL_6
REMARK    5  A    between atoms: CAL_6  and  CAM_7
REMARK    6  A    between atoms: CAL_6  and  CAN_8
REMARK    7  A    between atoms: CAQ_13  and  NAE_14
REMARK    8  A    between atoms: NAF_17  and  CAU_18
REMARK    9  A    between atoms: CAX_23  and  CBA_24
REMARK   10  A    between atoms: CBA_24  and  CBB_25
REMARK   11  A    between atoms: NAG_26  and  NAH_27
REMARK   12  A    between atoms: NAH_27  and  CBC_28
REMARK   13  A    between atoms: CBC_28  and  NAJ_29
REMARK   14  A    between atoms: CBC_28  and  NAI_30
REMARK                            x       y       z     vdW  Elec       q    Type
REMARK                         _______ _______ _______ _____ _____    ______ ____
ROOT
ATOM     12  N   UNL     1      37.645 -31.564   7.703  0.00  0.00    -0.209 N 
ATOM     13  H   UNL     1      37.587 -30.677   8.160  0.00  0.00    +0.226 HD
ATOM     14  C   UNL     1      37.069 -32.601   8.347  0.00  0.00    +0.356 C 
ATOM     15  N   UNL     1      36.504 -32.221   9.530  0.00  0.00    -0.168 N 
ATOM     16  H   UNL     1      36.529 -31.242   9.732  0.00  0.00    +0.278 HD
ATOM     35  O   UNL     1      37.027 -33.756   7.875  0.00  0.00    -0.362 OA
ENDROOT
BRANCH  12  11
ATOM      8  C   UNL     1      39.736 -31.432   4.126  0.00  0.00    -0.031 A 
ATOM      9  C   UNL     1      38.826 -32.469   4.351  0.00  0.00    -0.018 A 
ATOM     10  C   UNL     1      38.112 -32.560   5.547  0.00  0.00    +0.003 A 
ATOM     11  C   UNL     1      38.288 -31.578   6.521  0.00  0.00    +0.063 A 
ATOM     36  C   UNL     1      39.181 -30.517   6.282  0.00  0.00    +0.003 A 
ATOM     37  C   UNL     1      39.894 -30.440   5.091  0.00  0.00    -0.018 A 
BRANCH   8   7
ATOM      7  C   UNL     1      40.407 -31.332   2.909  0.00  0.00    +0.165 C 
ATOM     38  C   UNL     1      40.899 -32.541   2.106  0.00  0.00    +0.048 C 
BRANCH   7   6
ATOM      5  N   UNL     1      40.914 -29.735   1.335  0.00  0.00    -0.118 NA
ATOM      6  N   UNL     1      40.460 -30.095   2.422  0.00  0.00    -0.177 NA
BRANCH   5   4
ATOM      4  C   UNL     1      40.892 -28.431   1.004  0.00  0.00    +0.349 C 
BRANCH   4   1
ATOM      1  N   UNL     1      41.416 -28.048  -0.166  0.00  0.00    -0.254 NA
ATOM      2  H   UNL     1      41.829 -28.748  -0.799  0.00  0.00    +0.320 HD
ATOM      3  H   UNL     1      41.407 -27.053  -0.434  0.00  0.00    +0.320 HD
ENDBRANCH   4   1
BRANCH   4  39
ATOM     39  N   UNL     1      40.383 -27.506   1.827  0.00  0.00    -0.254 NA
ATOM     40  H   UNL     1      40.398 -26.512   1.557  0.00  0.00    +0.320 HD
ATOM     41  H   UNL     1      39.977 -27.788   2.731  0.00  0.00    +0.320 HD
ENDBRANCH   4  39
ENDBRANCH   5   4
ENDBRANCH   7   6
ENDBRANCH   8   7
ENDBRANCH  12  11
BRANCH  15  17
ATOM     17  C   UNL     1      35.909 -33.009  10.471  0.00  0.00    +0.142 A 
ATOM     18  C   UNL     1      35.641 -32.394  11.697  0.00  0.00    +0.087 A 
ATOM     19  C   UNL     1      35.063 -33.091  12.756  0.00  0.00    +0.063 A 
ATOM     20  C   UNL     1      34.718 -34.439  12.621  0.00  0.00    +0.052 A 
ATOM     33  C   UNL     1      34.996 -35.063  11.389  0.00  0.00    +0.063 A 
ATOM     34  C   UNL     1      35.581 -34.367  10.328  0.00  0.00    +0.087 A 
BRANCH  20  21
ATOM     21  C   UNL     1      34.127 -35.111  13.732  0.00  0.00    +0.128 C 
ATOM     22  N   UNL     1      34.336 -34.568  14.936  0.00  0.00    -0.112 NA
ATOM     32  C   UNL     1      33.330 -36.418  13.625  0.00  0.00    +0.154 C 
BRANCH  22  23
ATOM     23  N   UNL     1      33.946 -35.011  16.028  0.00  0.00    -0.196 N 
ATOM     24  H   UNL     1      33.402 -35.885  16.060  0.00  0.00    +0.246 HD
BRANCH  23  25
ATOM     25  C   UNL     1      34.230 -34.356  17.174  0.00  0.00    +0.165 C 
BRANCH  25  26
ATOM     26  N   UNL     1      34.956 -33.245  17.182  0.00  0.00    -0.352 NA
ATOM     27  H   UNL     1      35.151 -32.764  18.072  0.00  0.00    +0.166 HD
ATOM     28  H   UNL     1      35.324 -32.864  16.299  0.00  0.00    +0.166 HD
ENDBRANCH  25  26
BRANCH  25  29
ATOM     29  N   UNL     1      33.791 -34.787  18.339  0.00  0.00    -0.352 NA
ATOM     30  H   UNL     1      33.218 -35.641  18.389  0.00  0.00    +0.166 HD
ATOM     31  H   UNL     1      34.021 -34.270  19.200  0.00  0.00    +0.166 HD
ENDBRANCH  25  29
ENDBRANCH  23  25
ENDBRANCH  22  23
ENDBRANCH  20  21
ENDBRANCH  15  17
TORSDOF 12
