REMARK  Name = 8F9
REMARK  4 active torsions:
REMARK  status: ('A' for Active; 'I' for Inactive)
REMARK    1  A    between atoms: C02_9  and  N15_25
REMARK    2  A    between atoms: C14_17  and  N07_23
REMARK    3  A    between atoms: C16_18  and  C19_20
REMARK    4  A    between atoms: C16_18  and  N15_25
REMARK                            x       y       z     vdW  Elec       q    Type
REMARK                         _______ _______ _______ _____ _____    ______ ____
ROOT
ATOM      1  C   UNL     1     -14.901  -7.912  -0.433  0.00  0.00    +0.031 C 
ATOM      2  C   UNL     1     -14.849  -6.754   0.610  0.00  0.00    +0.150 C 
ATOM      3  N   UNL     1     -13.739  -6.974   1.494  0.00  0.00    -0.302 N 
ATOM      7  C   UNL     1     -12.423  -6.863   0.841  0.00  0.00    +0.063 A 
ATOM      8  C   UNL     1     -11.188  -7.698   1.225  0.00  0.00    +0.032 A 
ATOM      9  C   UNL     1      -9.843  -7.516   0.496  0.00  0.00    +0.067 A 
ATOM     20  C   UNL     1      -9.721  -6.503  -0.666  0.00  0.00    +0.018 A 
ATOM     21  C   UNL     1     -10.957  -5.665  -1.056  0.00  0.00    +0.018 A 
ATOM     22  C   UNL     1     -12.297  -5.854  -0.319  0.00  0.00    +0.067 A 
ATOM     23  N   UNL     1     -13.480  -5.038  -0.655  0.00  0.00    -0.254 N 
ATOM     24  C   UNL     1     -13.300  -3.797  -1.413  0.00  0.00    +0.120 C 
ATOM     25  C   UNL     1     -14.784  -5.445  -0.160  0.00  0.00    +0.247 C 
ATOM     26  O   UNL     1     -15.758  -4.814  -0.389  0.00  0.00    -0.273 OA
ENDROOT
BRANCH   3   4
ATOM      4  C   UNL     1     -13.999  -7.765   2.723  0.00  0.00    +0.073 C 
ATOM      5  C   UNL     1     -13.240  -7.893   4.045  0.00  0.00    +0.021 C 
ATOM      6  C   UNL     1     -13.432  -9.116   3.144  0.00  0.00    +0.021 C 
ENDBRANCH   3   4
BRANCH   9  10
ATOM     10  N   UNL     1      -8.697  -8.320   0.912  0.00  0.00    -0.235 NA
BRANCH  10  11
ATOM     11  C   UNL     1      -8.782  -9.004   2.198  0.00  0.00    +0.115 C 
ATOM     19  C   UNL     1      -7.456  -9.711   2.429  0.00  0.00    +0.028 C 
BRANCH  11  12
ATOM     12  C   UNL     1      -8.999  -8.038   3.356  0.00  0.00    -0.003 A 
ATOM     13  C   UNL     1      -9.820  -8.473   4.581  0.00  0.00    -0.003 A 
ATOM     14  C   UNL     1     -10.041  -7.510   5.747  0.00  0.00    -0.004 A 
ATOM     15  C   UNL     1      -9.442  -6.100   5.683  0.00  0.00    -0.022 A 
ATOM     16  C   UNL     1      -9.639  -5.114   6.842  0.00  0.00    +0.031 C 
ATOM     17  C   UNL     1      -8.622  -5.669   4.463  0.00  0.00    -0.004 A 
ATOM     18  C   UNL     1      -8.408  -6.627   3.291  0.00  0.00    -0.003 A 
ENDBRANCH  11  12
ENDBRANCH  10  11
ENDBRANCH   9  10
TORSDOF 4
