REMARK  Name = 4lm5_ligand
REMARK  7 active torsions:
REMARK  status: ('A' for Active; 'I' for Inactive)
REMARK    1  A    between atoms: C5_5  and  C8_8
REMARK    2  A    between atoms: C6_6  and  O7_7
REMARK    3  A    between atoms: C10_10  and  N18_18
REMARK    4  A    between atoms: N18_18  and  C19_19
REMARK    5  A    between atoms: C19_19  and  C20_20
REMARK    6  A    between atoms: C20_20  and  C21_21
REMARK    7  A    between atoms: C21_21  and  N22_22
REMARK                            x       y       z     vdW  Elec       q    Type
REMARK                         _______ _______ _______ _____ _____    ______ ____
ROOT
ATOM      6  C   UNL     1      40.565   2.240  -1.710  0.00  0.00    +0.093 A 
ATOM      7  N   UNL     1      41.511   2.164  -2.672  0.00  0.00    -0.296 NA
ATOM      8  C   UNL     1      42.793   1.844  -2.245  0.00  0.00    +0.039 A 
ATOM      9  C   UNL     1      43.809   1.767  -3.256  0.00  0.00    +0.020 A 
ATOM     10  C   UNL     1      45.083   1.464  -2.868  0.00  0.00    +0.011 A 
ATOM     11  C   UNL     1      45.400   1.240  -1.494  0.00  0.00    +0.006 A 
ATOM     12  C   UNL     1      44.435   1.312  -0.522  0.00  0.00    +0.027 A 
ATOM     13  C   UNL     1      43.112   1.612  -0.891  0.00  0.00    +0.052 A 
ATOM     14  C   UNL     1      42.021   1.730   0.043  0.00  0.00    +0.140 A 
ATOM     24  N   UNL     1      40.748   2.036  -0.335  0.00  0.00    -0.255 NA
ENDROOT
BRANCH   6   5
ATOM      1  C   UNL     1      37.506   3.239  -3.886  0.00  0.00    +0.028 A 
ATOM      2  C   UNL     1      38.816   2.898  -3.544  0.00  0.00    +0.107 A 
ATOM      5  C   UNL     1      39.179   2.604  -2.158  0.00  0.00    +0.045 A 
ATOM     25  C   UNL     1      38.180   2.728  -1.191  0.00  0.00    +0.009 A 
ATOM     26  C   UNL     1      36.880   3.093  -1.552  0.00  0.00    -0.014 A 
ATOM     27  C   UNL     1      36.552   3.339  -2.883  0.00  0.00    -0.004 A 
BRANCH   2   3
ATOM      3  O   UNL     1      39.775   2.824  -4.504  0.00  0.00    -0.327 OA
ATOM      4  H   UNL     1      39.395   3.039  -5.347  0.00  0.00    +0.251 HD
ENDBRANCH   2   3
ENDBRANCH   6   5
BRANCH  14  15
ATOM     15  N   UNL     1      42.247   1.521   1.354  0.00  0.00    -0.293 N 
ATOM     16  H   UNL     1      43.178   1.192   1.649  0.00  0.00    +0.191 HD
BRANCH  15  17
ATOM     17  C   UNL     1      41.215   1.744   2.386  0.00  0.00    +0.145 C 
BRANCH  17  18
ATOM     18  C   UNL     1      41.052   3.307   2.562  0.00  0.00    +0.076 C 
BRANCH  18  19
ATOM     19  C   UNL     1      39.896   3.715   3.491  0.00  0.00    +0.129 C 
BRANCH  19  20
ATOM     20  N   UNL     1      40.154   5.074   3.994  0.00  0.00    +0.219 N 
ATOM     21  H   UNL     1      41.023   5.084   4.504  0.00  0.00    +0.199 HD
ATOM     22  H   UNL     1      40.212   5.714   3.218  0.00  0.00    +0.199 HD
ATOM     23  H   UNL     1      39.403   5.354   4.605  0.00  0.00    +0.199 HD
ENDBRANCH  19  20
ENDBRANCH  18  19
ENDBRANCH  17  18
ENDBRANCH  15  17
ENDBRANCH  14  15
TORSDOF 7
