REMARK  Name = 4QMU
REMARK  4 active torsions:
REMARK  status: ('A' for Active; 'I' for Inactive)
REMARK    1  A    between atoms: S_1  and  N_14
REMARK    2  A    between atoms: S_1  and  C_17
REMARK    3  A    between atoms: C_6  and  N_11
REMARK    4  A    between atoms: C_21  and  C_22
REMARK                            x       y       z     vdW  Elec       q    Type
REMARK                         _______ _______ _______ _____ _____    ______ ____
ROOT
ATOM      8  C   UNL     1      -3.799   1.588  14.373  0.00  0.00    +0.375 C 
ATOM      9  N   UNL     1      -2.996   0.946  15.226  0.00  0.00    -0.113 NA
ATOM     10  H   UNL     1      -3.035  -0.102  15.437  0.00  0.00    +0.168 HD
ATOM     11  N   UNL     1      -2.167   1.779  15.757  0.00  0.00    -0.075 N 
ATOM     12  C   UNL     1      -1.196   1.416  16.665  0.00  0.00    +0.331 C 
ATOM     21  O   UNL     1      -0.517   2.361  17.141  0.00  0.00    -0.250 OA
ATOM     22  C   UNL     1      -2.446   2.995  15.225  0.00  0.00    +0.393 C 
ATOM     23  N   UNL     1      -1.850   4.181  15.451  0.00  0.00    -0.250 N 
ATOM     24  H   UNL     1      -1.038   4.248  16.144  0.00  0.00    +0.241 HD
ATOM     25  H   UNL     1      -2.189   5.056  14.937  0.00  0.00    +0.241 HD
ATOM     26  N   UNL     1      -3.463   2.882  14.364  0.00  0.00    -0.058 NA
ENDROOT
BRANCH  12  13
ATOM     13  C   UNL     1      -0.933   0.043  17.046  0.00  0.00    +0.125 A 
ATOM     14  C   UNL     1      -1.886  -0.803  17.681  0.00  0.00    +0.140 A 
ATOM     15  C   UNL     1      -1.593  -2.143  18.004  0.00  0.00    +0.039 A 
ATOM     16  C   UNL     1      -0.343  -2.682  17.678  0.00  0.00    +0.006 A 
ATOM     17  C   UNL     1       0.618  -1.891  17.032  0.00  0.00    +0.039 A 
ATOM     18  F   UNL     1      -3.077  -0.425  18.034  0.00  0.00    -0.205 F 
ATOM     19  C   UNL     1       0.320  -0.552  16.715  0.00  0.00    +0.140 A 
ATOM     20  F   UNL     1       1.273   0.105  16.112  0.00  0.00    -0.205 F 
ENDBRANCH  12  13
BRANCH   8   7
ATOM      2  C   UNL     1      -6.124  -2.920  13.216  0.00  0.00    +0.173 C 
ATOM      3  C   UNL     1      -4.948  -2.724  13.961  0.00  0.00    +0.013 C 
ATOM      4  C   UNL     1      -4.462  -1.423  14.146  0.00  0.00    +0.026 C 
ATOM      5  C   UNL     1      -5.150  -0.324  13.573  0.00  0.00    +0.064 C 
ATOM      6  C   UNL     1      -6.326  -0.546  12.827  0.00  0.00    +0.026 C 
ATOM      7  N   UNL     1      -4.790   0.988  13.670  0.00  0.00    -0.217 NA
ATOM     27  C   UNL     1      -6.813  -1.841  12.644  0.00  0.00    +0.013 C 
BRANCH   2   1
ATOM      1  S   UNL     1      -6.756  -4.545  12.961  0.00  0.00    +0.043 S 
ATOM     31  O   UNL     1      -8.351  -4.550  12.818  0.00  0.00    -0.157 OA
ATOM     32  O   UNL     1      -6.283  -5.481  14.173  0.00  0.00    -0.157 OA
BRANCH   1  28
ATOM     28  N   UNL     1      -6.096  -5.142  11.451  0.00  0.00    -0.207 NA
ATOM     29  H   UNL     1      -5.027  -5.138  11.502  0.00  0.00    +0.144 HD
ATOM     30  H   UNL     1      -6.441  -6.140  11.280  0.00  0.00    +0.144 HD
ENDBRANCH   1  28
ENDBRANCH   2   1
ENDBRANCH   8   7
TORSDOF 4
