REMARK  Name = 919
REMARK  7 active torsions:
REMARK  status: ('A' for Active; 'I' for Inactive)
REMARK    1  A    between atoms: C1_1  and  N49_26
REMARK    2  A    between atoms: C24_13  and  C70_34
REMARK    3  A    between atoms: C26_15  and  O65_32
REMARK    4  A    between atoms: C36_19  and  O65_32
REMARK    5  A    between atoms: C39_22  and  N60_30
REMARK    6  A    between atoms: C46_23  and  C79_38
REMARK    7  A    between atoms: C48_25  and  N56_28
REMARK                            x       y       z     vdW  Elec       q    Type
REMARK                         _______ _______ _______ _____ _____    ______ ____
ROOT
ATOM     11  N   UNL     1     109.577  -6.845   7.993  0.00  0.00    -0.142 NA
ATOM     12  C   UNL     1     109.189  -5.602   7.588  0.00  0.00    +0.349 C 
ATOM     13  O   UNL     1     109.276  -4.636   8.333  0.00  0.00    -0.248 OA
ATOM     14  N   UNL     1     108.707  -5.544   6.312  0.00  0.00    -0.158 NA
ENDROOT
BRANCH  14  15
ATOM     15  C   UNL     1     108.152  -4.417   5.679  0.00  0.00    +0.102 A 
ATOM     16  C   UNL     1     108.100  -3.134   6.216  0.00  0.00    +0.022 A 
ATOM     17  C   UNL     1     107.530  -2.090   5.516  0.00  0.00    +0.039 A 
ATOM     18  C   UNL     1     107.022  -2.309   4.256  0.00  0.00    +0.148 A 
ATOM     19  C   UNL     1     107.072  -3.568   3.683  0.00  0.00    +0.068 A 
ATOM     31  C   UNL     1     107.627  -4.590   4.416  0.00  0.00    +0.158 A 
ATOM     32  F   UNL     1     107.703  -5.831   3.900  0.00  0.00    -0.203 F 
BRANCH  18  20
ATOM     20  O   UNL     1     106.480  -1.266   3.531  0.00  0.00    -0.453 OA
BRANCH  20  21
ATOM     21  C   UNL     1     105.379  -0.565   3.960  0.00  0.00    +0.148 A 
ATOM     22  C   UNL     1     104.563  -0.952   5.004  0.00  0.00    +0.058 A 
ATOM     23  C   UNL     1     103.481  -0.157   5.312  0.00  0.00    +0.102 A 
ATOM     24  N   UNL     1     103.170   0.970   4.651  0.00  0.00    -0.239 NA
ATOM     25  C   UNL     1     103.977   1.318   3.633  0.00  0.00    +0.139 A 
ATOM     30  C   UNL     1     105.098   0.592   3.263  0.00  0.00    +0.061 A 
BRANCH  25  26
ATOM     26  C   UNL     1     103.624   2.575   2.860  0.00  0.00    +0.283 C 
ATOM     27  N   UNL     1     102.325   2.887   2.821  0.00  0.00    -0.199 NA
ATOM     28  C   UNL     1     101.789   4.005   2.057  0.00  0.00    +0.139 C 
ATOM     29  O   UNL     1     104.497   3.216   2.271  0.00  0.00    -0.267 OA
ENDBRANCH  25  26
ENDBRANCH  20  21
ENDBRANCH  18  20
ENDBRANCH  14  15
BRANCH  11  10
ATOM      2  N   UNL     1     111.177  -7.896   9.540  0.00  0.00    -0.215 N 
ATOM      3  N   UNL     1     111.445  -7.877  10.885  0.00  0.00    -0.168 NA
ATOM      4  C   UNL     1     110.546  -7.055  11.412  0.00  0.00    +0.081 A 
ATOM      9  C   UNL     1     109.698  -6.511  10.432  0.00  0.00    +0.053 A 
ATOM     10  C   UNL     1     110.092  -7.082   9.254  0.00  0.00    +0.159 A 
BRANCH   2   1
ATOM      1  C   UNL     1     111.976  -8.727   8.709  0.00  0.00    +0.084 A 
ATOM     33  C   UNL     1     112.307 -10.026   9.147  0.00  0.00    +0.021 A 
ATOM     34  C   UNL     1     113.093 -10.865   8.338  0.00  0.00    +0.019 A 
ATOM     35  C   UNL     1     113.457 -12.168   8.742  0.00  0.00    +0.003 A 
ATOM     36  C   UNL     1     114.216 -12.928   7.911  0.00  0.00    +0.021 A 
ATOM     37  C   UNL     1     114.611 -12.380   6.675  0.00  0.00    +0.099 A 
ATOM     38  N   UNL     1     114.296 -11.165   6.253  0.00  0.00    -0.244 NA
ATOM     39  C   UNL     1     113.529 -10.389   7.081  0.00  0.00    +0.081 A 
ATOM     40  C   UNL     1     113.170  -9.083   6.669  0.00  0.00    +0.021 A 
ATOM     41  C   UNL     1     112.408  -8.284   7.470  0.00  0.00    +0.021 A 
ENDBRANCH   2   1
BRANCH   4   5
ATOM      5  C   UNL     1     110.548  -6.769  12.896  0.00  0.00    +0.037 C 
ATOM      6  C   UNL     1     111.145  -7.968  13.652  0.00  0.00    +0.006 C 
ATOM      7  C   UNL     1     109.113  -6.515  13.378  0.00  0.00    +0.006 C 
ATOM      8  C   UNL     1     111.400  -5.518  13.152  0.00  0.00    +0.006 C 
ENDBRANCH   4   5
ENDBRANCH  11  10
TORSDOF 7
