REMARK  Name = 4obo_ligand
REMARK  1 active torsions:
REMARK  status: ('A' for Active; 'I' for Inactive)
REMARK    1  A    between atoms: C3_4  and  C8_8
REMARK                            x       y       z     vdW  Elec       q    Type
REMARK                         _______ _______ _______ _____ _____    ______ ____
ROOT
ATOM      7  C   UNL     1     -17.172  -6.284  29.857  0.00  0.00    -0.011 A 
ATOM      8  C   UNL     1     -16.350  -6.484  30.944  0.00  0.00    +0.037 A 
ATOM      9  C   UNL     1     -15.453  -5.493  31.262  0.00  0.00    +0.056 A 
ATOM     10  C   UNL     1     -14.517  -5.528  32.322  0.00  0.00    +0.142 A 
ATOM     11  N   UNL     1     -14.442  -6.527  33.107  0.00  0.00    -0.306 N 
ATOM     12  H   UNL     1     -15.071  -7.332  32.977  0.00  0.00    +0.188 HD
ATOM     13  H   UNL     1     -13.752  -6.530  33.872  0.00  0.00    +0.188 HD
ATOM     14  N   UNL     1     -13.682  -4.460  32.521  0.00  0.00    -0.254 NA
ATOM     15  C   UNL     1     -13.632  -3.362  31.842  0.00  0.00    +0.166 A 
ATOM     16  N   UNL     1     -14.445  -3.213  30.784  0.00  0.00    -0.293 NA
ATOM     17  C   UNL     1     -15.349  -4.161  30.437  0.00  0.00    +0.045 A 
ATOM     18  C   UNL     1     -16.196  -3.986  29.330  0.00  0.00    +0.023 A 
ATOM     19  C   UNL     1     -17.111  -5.027  29.025  0.00  0.00    +0.020 A 
ENDROOT
BRANCH   7   6
ATOM      1 CL   UNL     1     -20.237 -10.106  31.096  0.00  0.00    -0.071 Cl
ATOM      2  C   UNL     1     -19.628  -9.038  29.959  0.00  0.00    +0.041 A 
ATOM      3  C   UNL     1     -20.094  -9.109  28.616  0.00  0.00    +0.014 A 
ATOM      4  C   UNL     1     -19.595  -8.225  27.531  0.00  0.00    +0.001 A 
ATOM      5  C   UNL     1     -18.619  -7.319  27.957  0.00  0.00    +0.008 A 
ATOM      6  C   UNL     1     -18.159  -7.264  29.449  0.00  0.00    -0.017 A 
ATOM     20  C   UNL     1     -18.682  -8.133  30.382  0.00  0.00    +0.022 A 
ENDBRANCH   7   6
TORSDOF 1
