REMARK  Name = 3QXO
REMARK  5 active torsions:
REMARK  status: ('A' for Active; 'I' for Inactive)
REMARK    1  A    between atoms: C_3  and  N_8
REMARK    2  A    between atoms: C_5  and  C_11
REMARK    3  A    between atoms: N_7  and  C_14
REMARK    4  A    between atoms: C_14  and  C_18
REMARK    5  A    between atoms: C_15  and  S_21
REMARK                            x       y       z     vdW  Elec       q    Type
REMARK                         _______ _______ _______ _____ _____    ______ ____
ROOT
ATOM      1  C   UNL     1     -38.754 -45.047 -10.564  0.00  0.00    +0.085 C 
ATOM      2  C   UNL     1     -38.465 -45.708 -11.837  0.00  0.00    +0.052 C 
ATOM      3  N   UNL     1     -37.230 -46.069 -12.198  0.00  0.00    -0.282 NA
ATOM     16  C   UNL     1     -39.572 -45.866 -12.793  0.00  0.00    +0.060 C 
ATOM     22  C   UNL     1     -40.877 -45.392 -12.417  0.00  0.00    +0.047 C 
ATOM     23  C   UNL     1     -41.144 -44.759 -11.166  0.00  0.00    +0.123 C 
ATOM     27  C   UNL     1     -40.053 -44.595 -10.244  0.00  0.00    +0.012 C 
ENDROOT
BRANCH  16  17
ATOM     17  C   UNL     1     -39.403 -46.368 -14.072  0.00  0.00    +0.243 C 
ATOM     18  O   UNL     1     -38.439 -47.266 -14.326  0.00  0.00    -0.270 OA
ATOM     19  N   UNL     1     -40.172 -45.979 -15.123  0.00  0.00    -0.325 N 
ATOM     20  H   UNL     1     -40.002 -46.397 -16.093  0.00  0.00    +0.145 HD
ATOM     21  H   UNL     1     -40.947 -45.255 -14.980  0.00  0.00    +0.145 HD
ENDBRANCH  16  17
BRANCH  23  24
ATOM     24  N   UNL     1     -42.376 -44.342 -10.879  0.00  0.00    +0.056 N 
ATOM     25  O   UNL     1     -42.635 -43.798  -9.817  0.00  0.00    -0.126 OA
ATOM     26  O   UNL     1     -43.385 -44.505 -11.745  0.00  0.00    -0.126 OA
ENDBRANCH  23  24
BRANCH   3   4
ATOM      4  C   UNL     1     -35.995 -45.859 -11.458  0.00  0.00    +0.177 C 
BRANCH   4   5
ATOM      5  C   UNL     1     -35.754 -46.876 -10.374  0.00  0.00    -0.026 A 
ATOM      6  C   UNL     1     -36.025 -48.278 -10.578  0.00  0.00    +0.007 A 
ATOM      7  C   UNL     1     -35.784 -49.202  -9.526  0.00  0.00    +0.025 A 
ATOM      8  C   UNL     1     -35.272 -48.732  -8.281  0.00  0.00    +0.057 A 
ATOM     14  C   UNL     1     -35.007 -47.351  -8.085  0.00  0.00    +0.025 A 
ATOM     15  C   UNL     1     -35.246 -46.430  -9.125  0.00  0.00    +0.007 A 
BRANCH   8   9
ATOM      9  S   UNL     1     -34.965 -49.850  -6.981  0.00  0.00    -0.152 S 
ATOM     10  N   UNL     1     -36.179 -50.596  -6.525  0.00  0.00    -0.229 NA
ATOM     11  H   UNL     1     -36.102 -51.309  -5.731  0.00  0.00    +0.206 HD
ATOM     12  O   UNL     1     -34.418 -49.170  -5.768  0.00  0.00    -0.198 OA
ATOM     13  O   UNL     1     -33.930 -51.035  -7.415  0.00  0.00    -0.736 OA
ENDBRANCH   8   9
ENDBRANCH   4   5
ENDBRANCH   3   4
TORSDOF 5
