REMARK  Name = 5KBQ
REMARK  10 active torsions:
REMARK  status: ('A' for Active; 'I' for Inactive)
REMARK    1  A    between atoms: C_1  and  C_30
REMARK    2  A    between atoms: C_4  and  N_28
REMARK    3  A    between atoms: C_5  and  N_28
REMARK    4  A    between atoms: C_9  and  N_25
REMARK    5  A    between atoms: C_11  and  N_22
REMARK    6  A    between atoms: C_13  and  S_19
REMARK    7  A    between atoms: S_19  and  C_21
REMARK    8  A    between atoms: N_28  and  C_29
REMARK    9  A    between atoms: C_32  and  C_33
REMARK   10  A    between atoms: C_33  and  O_34
REMARK                            x       y       z     vdW  Elec       q    Type
REMARK                         _______ _______ _______ _____ _____    ______ ____
ROOT
ATOM     11  C   UNL     1       4.217 -32.887  16.813  0.00  0.00    +0.131 A 
ATOM     12  N   UNL     1       5.424 -32.664  16.277  0.00  0.00    -0.197 NA
ATOM     13  C   UNL     1       5.662 -33.233  15.081  0.00  0.00    +0.230 A 
ATOM     14  N   UNL     1       4.813 -34.020  14.399  0.00  0.00    -0.331 N 
ATOM     15  H   UNL     1       5.075 -34.463  13.461  0.00  0.00    +0.168 HD
ATOM     16  C   UNL     1       3.614 -34.214  14.972  0.00  0.00    +0.089 A 
ATOM     17  N   UNL     1       6.856 -32.975  14.487  0.00  0.00    -0.213 NA
ATOM     34  C   UNL     1       3.252 -33.671  16.188  0.00  0.00    +0.061 A 
ENDROOT
BRANCH  17  18
ATOM     18  C   UNL     1       8.001 -32.210  14.795  0.00  0.00    +0.071 A 
ATOM     19  C   UNL     1       9.139 -32.314  13.997  0.00  0.00    +0.055 A 
ATOM     20  C   UNL     1      10.299 -31.653  14.368  0.00  0.00    +0.092 A 
ATOM     25  C   UNL     1      10.317 -30.862  15.504  0.00  0.00    +0.050 A 
ATOM     26  C   UNL     1       9.171 -30.716  16.287  0.00  0.00    +0.034 A 
ATOM     33  C   UNL     1       8.012 -31.414  15.938  0.00  0.00    +0.051 A 
BRANCH  26  27
ATOM     27  N   UNL     1       9.162 -29.845  17.352  0.00  0.00    -0.325 N 
ATOM     28  C   UNL     1       8.114 -28.822  17.428  0.00  0.00    +0.133 C 
ATOM     29  C   UNL     1       8.567 -27.693  18.328  0.00  0.00    +0.178 C 
ATOM     30  O   UNL     1       8.957 -28.167  19.625  0.00  0.00    -0.377 OA
ATOM     31  C   UNL     1      10.014 -29.129  19.514  0.00  0.00    +0.178 C 
ATOM     32  C   UNL     1       9.606 -30.315  18.666  0.00  0.00    +0.133 C 
ENDBRANCH  26  27
BRANCH  20  21
ATOM     21  S   UNL     1      11.776 -31.850  13.414  0.00  0.00    -0.006 S 
ATOM     22  C   UNL     1      12.133 -30.241  12.823  0.00  0.00    +0.200 C 
ATOM     23  O   UNL     1      11.480 -32.693  12.292  0.00  0.00    -0.170 OA
ATOM     24  O   UNL     1      12.832 -32.254  14.298  0.00  0.00    -0.170 OA
ENDBRANCH  20  21
ENDBRANCH  17  18
BRANCH  11  10
ATOM     10  N   UNL     1       3.992 -32.236  18.037  0.00  0.00    -0.288 N 
ATOM     35  C   UNL     1       4.886 -31.175  18.513  0.00  0.00    +0.137 C 
BRANCH  10   3
ATOM      1  C   UNL     1       2.806 -33.725  19.659  0.00  0.00    -0.029 A 
ATOM      2  C   UNL     1       3.950 -34.708  19.702  0.00  0.00    +0.045 C 
ATOM      3  C   UNL     1       2.842 -32.545  18.896  0.00  0.00    +0.038 A 
ATOM      4  C   UNL     1       1.786 -31.633  18.969  0.00  0.00    +0.029 A 
ATOM      5  C   UNL     1       0.698 -31.852  19.810  0.00  0.00    -0.020 A 
ATOM      9  C   UNL     1       0.657 -33.028  20.537  0.00  0.00    +0.006 A 
ATOM     36  C   UNL     1       1.684 -33.947  20.455  0.00  0.00    +0.005 A 
BRANCH   5   6
ATOM      6  C   UNL     1      -0.348 -30.790  20.003  0.00  0.00    +0.191 C 
BRANCH   6   7
ATOM      7  O   UNL     1       0.156 -29.647  20.677  0.00  0.00    -0.390 OA
ATOM      8  H   UNL     1       0.511 -29.927  21.625  0.00  0.00    +0.210 HD
ENDBRANCH   6   7
ENDBRANCH   5   6
ENDBRANCH  10   3
ENDBRANCH  11  10
TORSDOF 7
