REMARK  Name = 4Z16
REMARK  11 active torsions:
REMARK  status: ('A' for Active; 'I' for Inactive)
REMARK    1  A    between atoms: C_2  and  N_17
REMARK    2  A    between atoms: C_5  and  C_6
REMARK    3  A    between atoms: C_6  and  C_7
REMARK    4  A    between atoms: C_7  and  N_9
REMARK    5  A    between atoms: C_15  and  C_16
REMARK    6  A    between atoms: C_16  and  N_17
REMARK    7  A    between atoms: N_21  and  C_22
REMARK    8  A    between atoms: C_23  and  O_25
REMARK    9  A    between atoms: O_25  and  C_26
REMARK   10  A    between atoms: C_29  and  N_30
REMARK   11  A    between atoms: N_33  and  C_34
REMARK                            x       y       z     vdW  Elec       q    Type
REMARK                         _______ _______ _______ _____ _____    ______ ____
ROOT
ATOM      1  C   UNL     1      -7.406 -17.972   3.414  0.00  0.00    +0.221 A 
ATOM      2  N   UNL     1      -8.114 -17.778   2.280  0.00  0.00    -0.281 N 
ATOM      3  H   UNL     1      -8.898 -18.467   2.043  0.00  0.00    +0.155 HD
ATOM     19  N   UNL     1      -7.781 -18.941   4.275  0.00  0.00    -0.221 NA
ATOM     20  C   UNL     1      -7.061 -19.177   5.466  0.00  0.00    +0.138 A 
ATOM     21  C   UNL     1      -5.945 -18.384   5.752  0.00  0.00    +0.099 A 
ATOM     22 CL   UNL     1      -5.016 -18.642   7.228  0.00  0.00    -0.078 Cl
ATOM     23  C   UNL     1      -5.602 -17.389   4.833  0.00  0.00    +0.143 A 
ATOM     38  N   UNL     1      -6.321 -17.227   3.707  0.00  0.00    -0.198 NA
ENDROOT
BRANCH   2   4
ATOM      4  C   UNL     1      -7.876 -16.750   1.429  0.00  0.00    +0.076 A 
ATOM      5  C   UNL     1      -7.498 -15.464   1.829  0.00  0.00    +0.029 A 
ATOM      6  C   UNL     1      -7.290 -14.464   0.882  0.00  0.00    +0.025 A 
ATOM      7  C   UNL     1      -7.479 -14.718  -0.481  0.00  0.00    +0.033 A 
ATOM     15  C   UNL     1      -7.873 -15.994  -0.888  0.00  0.00    +0.070 A 
ATOM     16  C   UNL     1      -8.123 -16.991   0.067  0.00  0.00    +0.143 A 
BRANCH   7   8
ATOM      8  N   UNL     1      -7.311 -13.740  -1.391  0.00  0.00    -0.327 N 
ATOM      9  C   UNL     1      -5.974 -13.085  -1.583  0.00  0.00    +0.120 C 
ATOM     10  C   UNL     1      -5.915 -12.209  -2.852  0.00  0.00    +0.103 C 
ATOM     11  N   UNL     1      -6.736 -12.732  -3.974  0.00  0.00    -0.302 NA
ATOM     12  C   UNL     1      -6.010 -13.702  -4.814  0.00  0.00    +0.105 C 
ATOM     13  C   UNL     1      -8.132 -13.167  -3.691  0.00  0.00    +0.103 C 
ATOM     14  C   UNL     1      -8.484 -13.284  -2.191  0.00  0.00    +0.120 C 
ENDBRANCH   7   8
BRANCH  16  17
ATOM     17  O   UNL     1      -8.478 -18.268  -0.285  0.00  0.00    -0.493 OA
ATOM     18  C   UNL     1      -9.656 -18.366  -1.092  0.00  0.00    +0.277 C 
ENDBRANCH  16  17
ENDBRANCH   2   4
BRANCH  23  24
ATOM     24  N   UNL     1      -4.546 -16.617   5.107  0.00  0.00    -0.324 N 
ATOM     25  H   UNL     1      -3.909 -16.888   5.923  0.00  0.00    +0.148 HD
BRANCH  24  26
ATOM     26  C   UNL     1      -4.221 -15.398   4.324  0.00  0.00    +0.134 C 
BRANCH  26  27
ATOM     27  C   UNL     1      -4.913 -14.253   4.740  0.00  0.00    -0.047 C 
ATOM     28  C   UNL     1      -5.218 -14.066   6.085  0.00  0.00    +0.059 C 
ATOM     29  C   UNL     1      -5.879 -12.912   6.491  0.00  0.00    -0.021 C 
ATOM     30  C   UNL     1      -6.230 -11.941   5.553  0.00  0.00    +0.021 C 
ATOM     31  C   UNL     1      -5.932 -12.091   4.195  0.00  0.00    +0.056 C 
ATOM     32  N   UNL     1      -6.318 -11.075   3.378  0.00  0.00    -0.181 NA
ATOM     37  C   UNL     1      -5.262 -13.265   3.808  0.00  0.00    +0.026 C 
BRANCH  32  33
ATOM     33  C   UNL     1      -6.130 -11.040   2.032  0.00  0.00    +0.236 C 
ATOM     34  O   UNL     1      -5.520 -11.885   1.385  0.00  0.00    -0.274 OA
BRANCH  33  35
ATOM     35  C   UNL     1      -6.660  -9.789   1.289  0.00  0.00    +0.094 C 
ATOM     36  C   UNL     1      -7.885  -9.150   1.948  0.00  0.00    +0.013 C 
ENDBRANCH  33  35
ENDBRANCH  32  33
ENDBRANCH  26  27
ENDBRANCH  24  26
ENDBRANCH  23  24
TORSDOF 8
