REMARK  Name = 4X2F
REMARK  3 active torsions:
REMARK  status: ('A' for Active; 'I' for Inactive)
REMARK    1  A    between atoms: C_2  and  N_12
REMARK    2  A    between atoms: C_8  and  N_17
REMARK    3  A    between atoms: C_18  and  N_19
REMARK                            x       y       z     vdW  Elec       q    Type
REMARK                         _______ _______ _______ _____ _____    ______ ____
ROOT
ATOM      1  C   UNL     1      18.635  70.191   4.235  0.00  0.00    +0.154 A 
ATOM      2  C   UNL     1      17.299  69.838   3.953  0.00  0.00    +0.104 A 
ATOM      3  C   UNL     1      16.783  70.091   2.681  0.00  0.00    +0.132 A 
ATOM      7  N   UNL     1      17.591  70.647   1.787  0.00  0.00    -0.220 NA
ATOM      8  C   UNL     1      18.838  70.950   2.097  0.00  0.00    +0.225 A 
ATOM      9  C   UNL     1      16.479  69.225   4.999  0.00  0.00    +0.194 A 
ATOM     10  O   UNL     1      15.336  68.886   4.801  0.00  0.00    -0.287 OA
ATOM     11  C   UNL     1      17.085  69.035   6.253  0.00  0.00    +0.070 A 
ATOM     12  C   UNL     1      18.359  69.403   6.446  0.00  0.00    +0.097 A 
ATOM     13  N   UNL     1      19.133  69.958   5.479  0.00  0.00    -0.301 N 
ATOM     23  N   UNL     1      19.368  70.744   3.275  0.00  0.00    -0.217 NA
ENDROOT
BRANCH  13  14
ATOM     14  C   UNL     1      20.452  70.318   5.796  0.00  0.00    +0.048 A 
ATOM     15  C   UNL     1      21.463  69.372   5.822  0.00  0.00    +0.028 A 
ATOM     16  C   UNL     1      22.750  69.749   6.143  0.00  0.00    +0.025 A 
ATOM     17  C   UNL     1      23.032  71.073   6.450  0.00  0.00    +0.025 A 
ATOM     21  C   UNL     1      22.019  72.018   6.430  0.00  0.00    +0.025 A 
ATOM     22  C   UNL     1      20.737  71.636   6.105  0.00  0.00    +0.028 A 
BRANCH  17  18
ATOM     18  N   UNL     1      24.336  71.468   6.772  0.00  0.00    -0.358 N 
ATOM     19  H   UNL     1      25.125  70.745   6.790  0.00  0.00    +0.142 HD
ATOM     20  H   UNL     1      24.544  72.493   7.000  0.00  0.00    +0.142 HD
ENDBRANCH  17  18
ENDBRANCH  13  14
BRANCH   3   4
ATOM      4  N   UNL     1      15.479  69.751   2.384  0.00  0.00    -0.342 N 
ATOM      5  H   UNL     1      15.084  69.945   1.409  0.00  0.00    +0.144 HD
ATOM      6  H   UNL     1      14.863  69.293   3.129  0.00  0.00    +0.144 HD
ENDBRANCH   3   4
TORSDOF 3
