REMARK  Name = 4TA
REMARK  10 active torsions:
REMARK  status: ('A' for Active; 'I' for Inactive)
REMARK    1  A    between atoms: N1_4  and  C1B_5
REMARK    2  A    between atoms: C4B_9  and  C5B_10
REMARK    3  A    between atoms: C5B_10  and  O5'_11
REMARK    4  A    between atoms: O5'_11  and  PD_12
REMARK    5  A    between atoms: PD_12  and  OCD_15
REMARK    6  A    between atoms: OCD_15  and  PC_16
REMARK    7  A    between atoms: PC_16  and  OBC_19
REMARK    8  A    between atoms: OBC_19  and  PB_20
REMARK    9  A    between atoms: PB_20  and  OAB_23
REMARK   10  A    between atoms: OAB_23  and  PA_24
REMARK                            x       y       z     vdW  Elec       q    Type
REMARK                         _______ _______ _______ _____ _____    ______ ____
ROOT
ATOM     11  O   UNL     1      37.147  15.760  67.264  0.00  0.00    -0.311 OA
ENDROOT
BRANCH  11  12
ATOM     12  P   UNL     1      37.703  14.292  66.847  0.00  0.00    +0.219 P 
ATOM     26  O   UNL     1      39.063  14.596  66.043  0.00  0.00    -0.437 OA
ATOM     27  O   UNL     1      36.463  13.432  66.007  0.00  0.00    -0.517 OA
BRANCH  12  13
ATOM     13  O   UNL     1      37.979  13.573  68.250  0.00  0.00    -0.270 OA
BRANCH  13  14
ATOM     14  P   UNL     1      38.723  12.170  68.483  0.00  0.00    +0.224 P 
ATOM     15  O   UNL     1      38.371  11.685  69.929  0.00  0.00    -0.437 OA
ATOM     16  O   UNL     1      40.486  12.248  68.342  0.00  0.00    -0.517 OA
BRANCH  14  17
ATOM     17  O   UNL     1      37.995  11.310  67.310  0.00  0.00    -0.270 OA
BRANCH  17  18
ATOM     18  P   UNL     1      37.648   9.747  67.306  0.00  0.00    +0.228 P 
ATOM     24  O   UNL     1      38.993   9.068  67.871  0.00  0.00    -0.437 OA
ATOM     25  O   UNL     1      37.119   9.255  65.705  0.00  0.00    -0.517 OA
BRANCH  18  19
ATOM     19  O   UNL     1      36.374   9.614  68.273  0.00  0.00    -0.226 OA
BRANCH  19  20
ATOM     20  P   UNL     1      35.869   8.229  68.953  0.00  0.00    +0.537 P 
ATOM     21  O   UNL     1      37.000   7.549  69.884  0.00  0.00    -0.114 OA
ATOM     22  O   UNL     1      34.356   8.538  69.871  0.00  0.00    -0.114 OA
ATOM     23  O   UNL     1      35.447   7.294  67.732  0.00  0.00    -0.222 OA
ENDBRANCH  19  20
ENDBRANCH  18  19
ENDBRANCH  17  18
ENDBRANCH  14  17
ENDBRANCH  13  14
ENDBRANCH  12  13
ENDBRANCH  11  12
BRANCH  11  10
ATOM     10  C   UNL     1      36.268  15.945  68.351  0.00  0.00    +0.181 C 
BRANCH  10   9
ATOM      5  C   UNL     1      35.042  19.223  68.117  0.00  0.00    +0.211 C 
ATOM      6  C   UNL     1      34.044  18.376  68.891  0.00  0.00    +0.089 C 
ATOM      7  C   UNL     1      34.986  17.484  69.661  0.00  0.00    +0.186 C 
ATOM      8  O   UNL     1      35.330  18.044  70.923  0.00  0.00    -0.220 OA
ATOM      9  C   UNL     1      36.268  17.385  68.860  0.00  0.00    +0.177 C 
ATOM     28  O   UNL     1      36.188  18.401  67.855  0.00  0.00    -0.333 OA
BRANCH   5   4
ATOM      1  C   UNL     1      32.585  18.968  63.815  0.00  0.00    +0.038 C 
ATOM      2  C   UNL     1      33.270  19.788  64.880  0.00  0.00    +0.053 C 
ATOM      3  C   UNL     1      33.824  19.155  65.979  0.00  0.00    +0.082 C 
ATOM      4  N   UNL     1      34.427  19.867  66.932  0.00  0.00    -0.256 N 
ATOM     29  C   UNL     1      34.509  21.278  66.833  0.00  0.00    +0.354 C 
ATOM     30  O   UNL     1      35.110  21.921  67.726  0.00  0.00    -0.244 OA
ATOM     31  N   UNL     1      33.979  21.930  65.787  0.00  0.00    -0.153 NA
ATOM     32  C   UNL     1      33.360  21.275  64.788  0.00  0.00    +0.280 C 
ATOM     33  O   UNL     1      32.846  21.907  63.817  0.00  0.00    -0.265 OA
ENDBRANCH   5   4
ENDBRANCH  10   9
ENDBRANCH  11  10
TORSDOF 10
