REMARK  Name = 4eop_ligand
REMARK  3 active torsions:
REMARK  status: ('A' for Active; 'I' for Inactive)
REMARK    1  A    between atoms: N3_5  and  C18_6
REMARK    2  A    between atoms: C18_6  and  C19_7
REMARK    3  A    between atoms: C11_14  and  C1_15
REMARK                            x       y       z     vdW  Elec       q    Type
REMARK                         _______ _______ _______ _____ _____    ______ ____
ROOT
ATOM      1  O   UNL     1       7.290  22.700  21.421  0.00  0.00    -0.384 OA
ATOM      2  C   UNL     1       7.152  21.616  20.757  0.00  0.00    +0.181 C 
ATOM      3  C   UNL     1       8.071  20.452  20.810  0.00  0.00    +0.107 C 
ATOM      4  C   UNL     1       9.298  20.313  21.642  0.00  0.00    +0.039 C 
ATOM     15  S   UNL     1       7.410  19.274  19.708  0.00  0.00    +0.047 S 
ATOM     16  C   UNL     1       6.096  20.362  19.323  0.00  0.00    +0.197 C 
ATOM     17  N   UNL     1       5.056  20.175  18.493  0.00  0.00    -0.259 N 
ATOM     18  H   UNL     1       5.056  19.399  17.816  0.00  0.00    +0.201 HD
ATOM     25  N   UNL     1       6.113  21.545  19.950  0.00  0.00    -0.267 NA
ENDROOT
BRANCH   4   5
ATOM      5  C   UNL     1       9.637  21.483  22.499  0.00  0.00    -0.018 A 
ATOM      6  C   UNL     1       8.586  22.248  23.020  0.00  0.00    +0.025 A 
ATOM      7  C   UNL     1       8.820  23.366  23.808  0.00  0.00    +0.007 A 
ATOM      8  C   UNL     1       7.784  24.140  24.322  0.00  0.00    +0.042 A 
ATOM      9  C   UNL     1       8.109  25.243  25.112  0.00  0.00    +0.037 A 
ATOM     10  C   UNL     1       9.447  25.557  25.372  0.00  0.00    +0.096 A 
ATOM     11  N   UNL     1      10.461  24.819  24.883  0.00  0.00    -0.295 NA
ATOM     12  C   UNL     1      10.224  23.734  24.108  0.00  0.00    +0.047 A 
ATOM     13  C   UNL     1      11.250  22.947  23.586  0.00  0.00    +0.026 A 
ATOM     14  C   UNL     1      10.960  21.833  22.787  0.00  0.00    +0.017 A 
ENDBRANCH   4   5
BRANCH  17  19
ATOM     19  C   UNL     1       3.921  21.100  18.573  0.00  0.00    +0.229 C 
BRANCH  19  20
ATOM     20  C   UNL     1       3.692  21.716  19.948  0.00  0.00    +0.036 A 
ATOM     21  S   UNL     1       3.209  20.660  21.230  0.00  0.00    -0.042 S 
ATOM     22  C   UNL     1       3.129  21.888  22.452  0.00  0.00    +0.040 A 
ATOM     23  C   UNL     1       3.482  23.088  21.833  0.00  0.00    -0.056 A 
ATOM     24  C   UNL     1       3.790  23.008  20.466  0.00  0.00    -0.052 A 
ENDBRANCH  19  20
ENDBRANCH  17  19
TORSDOF 3
