REMARK  Name = 2WMQ
REMARK  1 active torsions:
REMARK  status: ('A' for Active; 'I' for Inactive)
REMARK    1  A    between atoms: C_1  and  C_2
REMARK                            x       y       z     vdW  Elec       q    Type
REMARK                         _______ _______ _______ _____ _____    ______ ____
ROOT
ATOM      1  C   UNL     1      17.947  -3.226   8.067  0.00  0.00    +0.109 C 
ATOM      2  C   UNL     1      16.647  -2.542   7.726  0.00  0.00    +0.216 C 
ATOM      3  N   UNL     1      15.608  -2.943   8.438  0.00  0.00    -0.265 N 
ATOM      4  H   UNL     1      15.713  -3.692   9.195  0.00  0.00    +0.157 HD
ATOM      5  C   UNL     1      14.443  -2.393   8.186  0.00  0.00    +0.165 A 
ATOM      6  S   UNL     1      14.280  -1.084   7.279  0.00  0.00    -0.047 S 
ATOM      7  C   UNL     1      12.672  -1.000   7.401  0.00  0.00    +0.098 A 
ATOM      8  C   UNL     1      11.876   0.076   6.755  0.00  0.00    +0.253 C 
ATOM      9  O   UNL     1      12.409   0.678   5.829  0.00  0.00    -0.270 OA
ATOM     10  N   UNL     1      10.698   0.581   7.127  0.00  0.00    -0.311 N 
ATOM     11  H   UNL     1      10.402   1.456   6.588  0.00  0.00    +0.149 HD
ATOM     12  C   UNL     1       9.740   0.144   8.146  0.00  0.00    +0.105 C 
ATOM     13  C   UNL     1      10.151  -0.996   9.076  0.00  0.00    +0.025 C 
ATOM     14  C   UNL     1      10.761  -2.234   8.431  0.00  0.00    +0.058 C 
ATOM     15  C   UNL     1      12.244  -2.041   8.161  0.00  0.00    +0.063 A 
ATOM     16  N   UNL     1      13.257  -2.805   8.594  0.00  0.00    -0.229 NA
ATOM     17  O   UNL     1      16.589  -1.700   6.838  0.00  0.00    -0.276 OA
ENDROOT
TORSDOF 0
