REMARK  Name = 3ug2_ligand
REMARK  8 active torsions:
REMARK  status: ('A' for Active; 'I' for Inactive)
REMARK    1  A    between atoms: NBE_6  and  CAN_7
REMARK    2  A    between atoms: CAN_7  and  CAJ_8
REMARK    3  A    between atoms: CAJ_8  and  CAK_9
REMARK    4  A    between atoms: CAK_9  and  OAV_10
REMARK    5  A    between atoms: OAV_10  and  CBA_11
REMARK    6  A    between atoms: CAZ_12  and  OAT_14
REMARK    7  A    between atoms: OAT_14  and  CAA_15
REMARK    8  A    between atoms: NAS_23  and  CAY_24
REMARK                            x       y       z     vdW  Elec       q    Type
REMARK                         _______ _______ _______ _____ _____    ______ ____
ROOT
ATOM      8  C   UNL     1      -0.546  49.884  18.370  0.00  0.00    +0.132 A 
ATOM      9  C   UNL     1      -0.516  50.031  19.778  0.00  0.00    +0.037 A 
ATOM     10  C   UNL     1      -1.130  51.141  20.356  0.00  0.00    +0.039 A 
ATOM     11  C   UNL     1      -1.137  51.383  21.725  0.00  0.00    +0.150 A 
ATOM     12  N   UNL     1      -0.550  50.516  22.568  0.00  0.00    -0.251 N 
ATOM     13  H   UNL     1       0.166  49.900  22.158  0.00  0.00    +0.220 HD
ATOM     22  N   UNL     1      -1.723  52.505  22.196  0.00  0.00    -0.261 NA
ATOM     23  C   UNL     1      -2.313  53.388  21.393  0.00  0.00    +0.154 A 
ATOM     24  N   UNL     1      -2.344  53.166  20.086  0.00  0.00    -0.305 NA
ATOM     25  C   UNL     1      -1.747  52.088  19.548  0.00  0.00    +0.026 A 
ATOM     26  C   UNL     1      -1.749  51.943  18.178  0.00  0.00    +0.033 A 
ATOM     27  C   UNL     1      -1.175  50.829  17.581  0.00  0.00    +0.132 A 
ENDROOT
BRANCH  12  14
ATOM     14  C   UNL     1      -0.789  50.354  23.905  0.00  0.00    +0.065 A 
ATOM     15  C   UNL     1       0.267  49.966  24.734  0.00  0.00    +0.015 A 
ATOM     16  C   UNL     1       0.043  49.802  26.087  0.00  0.00    +0.021 A 
ATOM     17  C   UNL     1      -1.248  49.996  26.611  0.00  0.00    +0.135 A 
ATOM     18  F   UNL     1      -1.549  49.841  27.924  0.00  0.00    -0.192 F 
ATOM     19  C   UNL     1      -2.286  50.336  25.807  0.00  0.00    +0.065 A 
ATOM     20 CL   UNL     1      -3.877  50.528  26.605  0.00  0.00    -0.075 Cl
ATOM     21  C   UNL     1      -2.068  50.503  24.445  0.00  0.00    +0.029 A 
ENDBRANCH  12  14
BRANCH  27  28
ATOM     28  O   UNL     1      -1.217  50.679  16.220  0.00  0.00    -0.316 OA
ATOM     29  C   UNL     1      -2.338  51.260  15.508  0.00  0.00    +0.234 C 
ENDBRANCH  27  28
BRANCH   8   7
ATOM      7  O   UNL     1      -0.001  48.827  17.686  0.00  0.00    -0.316 OA
BRANCH   7   6
ATOM      6  C   UNL     1       0.793  47.788  18.291  0.00  0.00    +0.197 C 
BRANCH   6   5
ATOM      5  C   UNL     1       1.986  47.451  17.389  0.00  0.00    +0.084 C 
BRANCH   5   4
ATOM      4  C   UNL     1       1.556  46.855  16.041  0.00  0.00    +0.134 C 
BRANCH   4   2
ATOM      1  C   UNL     1       3.404  46.117  14.507  0.00  0.00    +0.160 C 
ATOM      2  N   UNL     1       2.595  45.887  15.723  0.00  0.00    +0.238 N 
ATOM      3  H   UNL     1       1.943  45.340  15.183  0.00  0.00    +0.203 HD
ATOM     30  C   UNL     1       2.794  44.730  16.644  0.00  0.00    +0.160 C 
ATOM     31  C   UNL     1       3.080  43.444  15.849  0.00  0.00    +0.210 C 
ATOM     32  O   UNL     1       3.690  43.688  14.554  0.00  0.00    -0.369 OA
ATOM     33  C   UNL     1       4.386  44.938  14.375  0.00  0.00    +0.210 C 
ENDBRANCH   4   2
ENDBRANCH   5   4
ENDBRANCH   6   5
ENDBRANCH   7   6
ENDBRANCH   8   7
TORSDOF 7
