REMARK  Name = 2rku_ligand
REMARK  10 active torsions:
REMARK  status: ('A' for Active; 'I' for Inactive)
REMARK    1  A    between atoms: N3_2  and  C8_7
REMARK    2  A    between atoms: C5_4  and  C9_34
REMARK    3  A    between atoms: C7_6  and  N5_28
REMARK    4  A    between atoms: C10_8  and  C9_34
REMARK    5  A    between atoms: C21_13  and  C18_23
REMARK    6  A    between atoms: C22_14  and  N6_18
REMARK    7  A    between atoms: N7_20  and  C30_21
REMARK    8  A    between atoms: C16_24  and  O3_25
REMARK    9  A    between atoms: O3_25  and  C31_26
REMARK   10  A    between atoms: N4_36  and  C11_37
REMARK                            x       y       z     vdW  Elec       q    Type
REMARK                         _______ _______ _______ _____ _____    ______ ____
ROOT
ATOM      1  N   UNL     1     -42.799  11.946  18.089  0.00  0.00    -0.288 NA
ATOM      2  C   UNL     1     -44.115  12.047  17.824  0.00  0.00    +0.178 A 
ATOM      3  N   UNL     1     -44.537  12.678  16.725  0.00  0.00    -0.251 NA
ATOM      4  C   UNL     1     -43.626  13.212  15.872  0.00  0.00    +0.146 A 
ATOM      5  C   UNL     1     -42.267  13.088  16.113  0.00  0.00    +0.127 A 
ATOM      6  N   UNL     1     -41.299  13.661  15.235  0.00  0.00    -0.221 N 
ATOM      7  C   UNL     1     -39.881  13.523  15.624  0.00  0.00    +0.205 C 
ATOM      8  C   UNL     1     -41.676  14.291  14.116  0.00  0.00    +0.228 C 
ATOM      9  O   UNL     1     -40.835  14.806  13.336  0.00  0.00    -0.384 OA
ATOM     10  C   UNL     1     -43.096  14.370  13.723  0.00  0.00    +0.216 C 
ATOM     13  N   UNL     1     -44.066  13.857  14.715  0.00  0.00    -0.269 N 
ATOM     19  N   UNL     1     -44.955  11.536  18.739  0.00  0.00    -0.253 N 
ATOM     20  H   UNL     1     -44.511  11.107  19.563  0.00  0.00    +0.212 HD
ATOM     41  C   UNL     1     -41.864  12.424  17.247  0.00  0.00    +0.090 A 
ENDROOT
BRANCH  19  21
ATOM     21  C   UNL     1     -46.323  11.511  18.720  0.00  0.00    +0.098 A 
ATOM     22  C   UNL     1     -46.890  10.625  19.633  0.00  0.00    +0.120 A 
ATOM     25  C   UNL     1     -48.269  10.524  19.709  0.00  0.00    +0.032 A 
ATOM     26  C   UNL     1     -49.075  11.281  18.871  0.00  0.00    +0.029 A 
ATOM     27  C   UNL     1     -48.523  12.172  17.939  0.00  0.00    -0.008 A 
ATOM     40  C   UNL     1     -47.118  12.296  17.889  0.00  0.00    +0.011 A 
BRANCH  26  28
ATOM     28  C   UNL     1     -50.558  11.055  19.015  0.00  0.00    +0.194 C 
ATOM     29  N   UNL     1     -51.346  11.234  17.972  0.00  0.00    -0.285 N 
ATOM     30  H   UNL     1     -50.968  11.540  17.098  0.00  0.00    +0.184 HD
ATOM     39  O   UNL     1     -50.980  10.651  20.097  0.00  0.00    -0.390 OA
BRANCH  29  31
ATOM     31  C   UNL     1     -52.779  10.979  18.112  0.00  0.00    +0.107 C 
ATOM     32  C   UNL     1     -53.454  12.260  17.662  0.00  0.00    +0.078 C 
ATOM     33  C   UNL     1     -54.958  12.016  17.568  0.00  0.00    +0.133 C 
ATOM     34  N   UNL     1     -55.215  11.044  16.488  0.00  0.00    +0.233 N 
ATOM     35  H   UNL     1     -54.848  11.388  15.615  0.00  0.00    +0.203 HD
ATOM     36  C   UNL     1     -56.679  10.890  16.405  0.00  0.00    +0.190 C 
ATOM     37  C   UNL     1     -54.593   9.741  16.807  0.00  0.00    +0.133 C 
ATOM     38  C   UNL     1     -53.094   9.863  17.120  0.00  0.00    +0.078 C 
ENDBRANCH  29  31
ENDBRANCH  26  28
BRANCH  22  23
ATOM     23  O   UNL     1     -46.052   9.869  20.433  0.00  0.00    -0.324 OA
ATOM     24  C   UNL     1     -46.485   8.779  21.267  0.00  0.00    +0.229 C 
ENDBRANCH  22  23
ENDBRANCH  19  21
BRANCH  13  14
ATOM     14  C   UNL     1     -45.535  13.959  14.560  0.00  0.00    +0.100 C 
ATOM     15  C   UNL     1     -45.918  15.195  13.766  0.00  0.00    +0.028 C 
ATOM     16  C   UNL     1     -47.345  14.939  13.303  0.00  0.00    +0.002 C 
ATOM     17  C   UNL     1     -47.560  13.439  13.415  0.00  0.00    +0.002 C 
ATOM     18  C   UNL     1     -46.339  12.777  14.034  0.00  0.00    +0.028 C 
ENDBRANCH  13  14
BRANCH  10  11
ATOM     11  C   UNL     1     -43.150  13.344  12.547  0.00  0.00    +0.047 C 
ATOM     12  C   UNL     1     -42.855  11.855  12.869  0.00  0.00    +0.009 C 
ENDBRANCH  10  11
TORSDOF 6
