REMARK  Name = 4jps_ligand
REMARK  7 active torsions:
REMARK  status: ('A' for Active; 'I' for Inactive)
REMARK    1  A    between atoms: C1_1  and  C_19
REMARK    2  A    between atoms: C13_7  and  C15_9
REMARK    3  A    between atoms: C15_9  and  C16_10
REMARK    4  A    between atoms: C15_9  and  C17_11
REMARK    5  A    between atoms: C15_9  and  C18_12
REMARK    6  A    between atoms: C10_17  and  C9_18
REMARK    7  A    between atoms: C7_25  and  C8_26
REMARK                            x       y       z     vdW  Elec       q    Type
REMARK                         _______ _______ _______ _____ _____    ______ ____
ROOT
ATOM      1  C   UNL     1      -3.080 -11.729  15.773  0.00  0.00    -0.004 A 
ATOM      2  N   UNL     1      -2.419 -11.429  14.599  0.00  0.00    -0.297 NA
ATOM      3  C   UNL     1      -1.603 -10.421  14.772  0.00  0.00    +0.214 A 
ATOM      4  N   UNL     1      -0.829  -9.958  13.725  0.00  0.00    -0.174 N 
ATOM      5  H   UNL     1      -0.896 -10.436  12.849  0.00  0.00    +0.246 HD
ATOM      6  C   UNL     1       0.044  -8.863  13.808  0.00  0.00    +0.308 C 
ATOM      7  N   UNL     1       0.739  -8.517  12.665  0.00  0.00    -0.230 N 
ATOM      8  C   UNL     1       0.676  -9.166  11.346  0.00  0.00    +0.143 C 
ATOM      9  C   UNL     1       1.328  -8.159  10.424  0.00  0.00    +0.029 C 
ATOM     10  C   UNL     1       2.307  -7.399  11.288  0.00  0.00    +0.052 C 
ATOM     11  C   UNL     1       1.680  -7.385  12.691  0.00  0.00    +0.215 C 
ATOM     17  O   UNL     1       0.190  -8.235  14.846  0.00  0.00    -0.384 OA
ATOM     18  S   UNL     1      -1.577  -9.746  16.362  0.00  0.00    +0.016 S 
ATOM     19  C   UNL     1      -4.052 -12.864  15.772  0.00  0.00    +0.094 C 
ATOM     20  C   UNL     1      -2.750 -10.938  16.869  0.00  0.00    +0.052 A 
ENDROOT
BRANCH  20  21
ATOM     21  C   UNL     1      -3.184 -10.890  18.283  0.00  0.00    +0.014 A 
ATOM     22  C   UNL     1      -2.478 -10.114  19.197  0.00  0.00    +0.074 A 
ATOM     23  C   UNL     1      -2.916 -10.090  20.529  0.00  0.00    +0.022 A 
ATOM     24  N   UNL     1      -3.991 -10.769  20.952  0.00  0.00    -0.292 NA
ATOM     25  C   UNL     1      -4.639 -11.527  20.056  0.00  0.00    +0.110 A 
ATOM     33  C   UNL     1      -4.273 -11.629  18.732  0.00  0.00    +0.065 A 
BRANCH  23  26
ATOM     26  C   UNL     1      -2.140  -9.303  21.613  0.00  0.00    +0.067 C 
ATOM     31  C   UNL     1      -3.111  -8.446  22.444  0.00  0.00    -0.025 C 
ATOM     32  C   UNL     1      -1.064  -8.403  20.984  0.00  0.00    -0.025 C 
BRANCH  26  27
ATOM     27  C   UNL     1      -1.381 -10.337  22.622  0.00  0.00    +0.376 C 
ATOM     28  F   UNL     1      -0.536 -11.132  21.975  0.00  0.00    -0.178 F 
ATOM     29  F   UNL     1      -2.219 -11.132  23.277  0.00  0.00    -0.178 F 
ATOM     30  F   UNL     1      -0.682  -9.668  23.538  0.00  0.00    -0.178 F 
ENDBRANCH  26  27
ENDBRANCH  23  26
ENDBRANCH  20  21
BRANCH  11  12
ATOM     12  C   UNL     1       1.016  -6.045  13.014  0.00  0.00    +0.199 C 
ATOM     13  N   UNL     1      -0.227  -5.881  12.591  0.00  0.00    -0.299 N 
ATOM     14  H   UNL     1      -0.728  -5.047  12.822  0.00  0.00    +0.181 HD
ATOM     15  H   UNL     1      -0.666  -6.591  12.040  0.00  0.00    +0.181 HD
ATOM     16  O   UNL     1       1.610  -5.205  13.696  0.00  0.00    -0.395 OA
ENDBRANCH  11  12
TORSDOF 4
