REMARK  Name = 3zmm_ligand
REMARK  7 active torsions:
REMARK  status: ('A' for Active; 'I' for Inactive)
REMARK    1  A    between atoms: C1_1  and  C2_2
REMARK    2  A    between atoms: C4_4  and  N3_7
REMARK    3  A    between atoms: C6_10  and  N8_25
REMARK    4  A    between atoms: C8_12  and  O1_14
REMARK    5  A    between atoms: O1_14  and  C9_15
REMARK    6  A    between atoms: C9_15  and  C10_16
REMARK    7  A    between atoms: C9_15  and  C11_17
REMARK                            x       y       z     vdW  Elec       q    Type
REMARK                         _______ _______ _______ _____ _____    ______ ____
ROOT
ATOM      7  N   UNL     1      -0.052   2.349  27.805  0.00  0.00    -0.223 N 
ATOM      8  H   UNL     1      -0.062   2.204  28.825  0.00  0.00    +0.222 HD
ATOM      9  C   UNL     1      -1.213   2.917  27.273  0.00  0.00    +0.182 A 
ATOM     10  N   UNL     1      -1.268   3.281  25.981  0.00  0.00    -0.246 NA
ATOM     11  C   UNL     1      -2.424   3.821  25.577  0.00  0.00    +0.192 A 
ATOM     22  C   UNL     1      -3.479   3.993  26.447  0.00  0.00    +0.210 A 
ATOM     23  F   UNL     1      -4.603   4.539  25.993  0.00  0.00    -0.196 F 
ATOM     24  C   UNL     1      -3.371   3.603  27.766  0.00  0.00    +0.140 A 
ATOM     31  N   UNL     1      -2.212   3.059  28.159  0.00  0.00    -0.255 NA
ENDROOT
BRANCH   7   6
ATOM      1  C   UNL     1       3.412   1.331  24.374  0.00  0.00    +0.079 C 
ATOM      2  C   UNL     1       2.589   1.526  25.587  0.00  0.00    -0.016 A 
ATOM      3  N   UNL     1       3.050   1.180  26.821  0.00  0.00    -0.253 NA
ATOM      4  N   UNL     1       2.165   1.432  27.787  0.00  0.00    -0.211 N 
ATOM      5  H   UNL     1       2.279   1.259  28.796  0.00  0.00    +0.247 HD
ATOM      6  C   UNL     1       1.096   1.957  27.172  0.00  0.00    +0.173 A 
ATOM     32  C   UNL     1       1.326   2.031  25.777  0.00  0.00    -0.010 A 
ENDBRANCH   7   6
BRANCH  24  25
ATOM     25  N   UNL     1      -4.431   3.760  28.720  0.00  0.00    -0.288 N 
ATOM     26  C   UNL     1      -5.660   4.482  28.435  0.00  0.00    +0.163 C 
ATOM     27  C   UNL     1      -6.800   3.513  28.706  0.00  0.00    +0.184 C 
ATOM     28  O   UNL     1      -6.748   3.132  30.084  0.00  0.00    -0.376 OA
ATOM     29  C   UNL     1      -5.589   2.319  30.355  0.00  0.00    +0.184 C 
ATOM     30  C   UNL     1      -4.310   3.070  30.005  0.00  0.00    +0.163 C 
ENDBRANCH  24  25
BRANCH  11  12
ATOM     12  O   UNL     1      -2.627   4.255  24.252  0.00  0.00    -0.277 OA
BRANCH  12  13
ATOM     13  C   UNL     1      -1.595   3.852  23.303  0.00  0.00    +0.238 C 
ATOM     21  C   UNL     1      -2.187   3.843  21.911  0.00  0.00    +0.068 C 
BRANCH  13  14
ATOM     14  C   UNL     1      -0.403   4.767  23.366  0.00  0.00    +0.135 A 
ATOM     15  N   UNL     1       0.776   4.229  23.038  0.00  0.00    -0.263 NA
ATOM     16  C   UNL     1       1.844   5.039  23.118  0.00  0.00    +0.146 A 
ATOM     17  C   UNL     1       1.727   6.347  23.523  0.00  0.00    +0.178 A 
ATOM     18  F   UNL     1       2.791   7.141  23.601  0.00  0.00    -0.173 F 
ATOM     19  C   UNL     1       0.479   6.822  23.841  0.00  0.00    +0.146 A 
ATOM     20  N   UNL     1      -0.604   6.035  23.761  0.00  0.00    -0.263 NA
ENDBRANCH  13  14
ENDBRANCH  12  13
ENDBRANCH  11  12
TORSDOF 5
