REMARK  Name = 5FRI
REMARK  3 active torsions:
REMARK  status: ('A' for Active; 'I' for Inactive)
REMARK    1  A    between atoms: C_5  and  N_18
REMARK    2  A    between atoms: C_6  and  N_18
REMARK    3  A    between atoms: C_11  and  C_15
REMARK                            x       y       z     vdW  Elec       q    Type
REMARK                         _______ _______ _______ _____ _____    ______ ____
ROOT
ATOM      1  C   UNL     1       5.015   7.209   2.897  0.00  0.00    +0.043 A 
ATOM      2  C   UNL     1       3.899   7.294   3.709  0.00  0.00    +0.036 A 
ATOM     15  C   UNL     1       2.684   6.864   3.200  0.00  0.00    +0.067 A 
ATOM     16  C   UNL     1       2.620   6.366   1.916  0.00  0.00    +0.127 A 
ATOM     17  N   UNL     1       1.415   5.890   1.303  0.00  0.00    -0.270 N 
ATOM     18  H   UNL     1       1.530   5.433   0.342  0.00  0.00    +0.156 HD
ATOM     19  C   UNL     1       0.151   5.944   1.782  0.00  0.00    +0.221 C 
ATOM     20  O   UNL     1      -0.160   6.487   2.827  0.00  0.00    -0.275 OA
ATOM     24  N   UNL     1       3.696   6.276   1.126  0.00  0.00    -0.240 NA
ATOM     25  C   UNL     1       4.855   6.698   1.640  0.00  0.00    +0.114 A 
ENDROOT
BRANCH  19  21
ATOM     21  C   UNL     1      -0.890   5.290   0.900  0.00  0.00    +0.075 C 
ATOM     22  C   UNL     1      -2.182   6.038   0.676  0.00  0.00    +0.013 C 
ATOM     23  C   UNL     1      -2.162   4.823   1.561  0.00  0.00    +0.013 C 
ENDBRANCH  19  21
BRANCH   2   3
ATOM      3  N   UNL     1       3.943   7.804   5.032  0.00  0.00    -0.310 N 
ATOM      4  H   UNL     1       3.060   7.680   5.623  0.00  0.00    +0.152 HD
BRANCH   3   5
ATOM      5  C   UNL     1       5.022   8.453   5.645  0.00  0.00    +0.099 A 
ATOM      6  C   UNL     1       5.442   8.087   6.909  0.00  0.00    +0.084 A 
ATOM      7 CL   UNL     1       4.631   6.811   7.753  0.00  0.00    -0.080 Cl
ATOM      8  C   UNL     1       6.505   8.716   7.524  0.00  0.00    +0.136 A 
ATOM      9  N   UNL     1       7.195   9.716   6.945  0.00  0.00    -0.217 NA
ATOM     10  C   UNL     1       6.751  10.034   5.725  0.00  0.00    +0.263 A 
ATOM     11  O   UNL     1       7.354  11.027   5.013  0.00  0.00    -0.437 OA
ATOM     12  C   UNL     1       6.606  11.092   3.784  0.00  0.00    +0.468 C 
ATOM     13  O   UNL     1       5.580  10.092   3.815  0.00  0.00    -0.449 OA
ATOM     14  C   UNL     1       5.719   9.477   5.042  0.00  0.00    +0.208 A 
ENDBRANCH   3   5
ENDBRANCH   2   3
TORSDOF 3
