REMARK  Name = 1E9F
REMARK  7 active torsions:
REMARK  status: ('A' for Active; 'I' for Inactive)
REMARK    1  A    between atoms: P_1  and  O_5
REMARK    2  A    between atoms: O_5  and  C_6
REMARK    3  A    between atoms: C_6  and  C_7
REMARK    4  A    between atoms: C_9  and  O_10
REMARK    5  A    between atoms: C_12  and  N_13
REMARK    6  A    between atoms: C_17  and  O_18
REMARK    7  A    between atoms: C_19  and  C_20
REMARK                            x       y       z     vdW  Elec       q    Type
REMARK                         _______ _______ _______ _____ _____    ______ ____
ROOT
ATOM      4  C   UNL     1      14.273  74.906  26.208  0.00  0.00    +0.175 C 
ATOM      5  C   UNL     1      13.322  75.453  27.252  0.00  0.00    +0.150 C 
ATOM      6  C   UNL     1      12.464  76.437  26.411  0.00  0.00    +0.085 C 
ATOM      7  C   UNL     1      13.386  76.789  25.236  0.00  0.00    +0.213 C 
ATOM     21  O   UNL     1      14.238  75.709  25.023  0.00  0.00    -0.350 OA
ENDROOT
BRANCH   7   8
ATOM      8  N   UNL     1      12.903  77.353  24.003  0.00  0.00    -0.255 N 
ATOM      9  C   UNL     1      12.150  76.514  23.278  0.00  0.00    +0.147 C 
ATOM     10  C   UNL     1      11.708  76.826  22.051  0.00  0.00    +0.002 C 
ATOM     11  C   UNL     1      10.862  75.941  21.202  0.00  0.00    +0.046 C 
ATOM     12  C   UNL     1      12.154  78.177  21.500  0.00  0.00    +0.185 C 
ATOM     15  N   UNL     1      12.906  78.977  22.327  0.00  0.00    -0.240 N 
ATOM     16  H   UNL     1      13.162  79.951  21.965  0.00  0.00    +0.159 HD
ATOM     17  C   UNL     1      13.355  78.634  23.573  0.00  0.00    +0.311 C 
ATOM     18  O   UNL     1      14.041  79.328  24.329  0.00  0.00    -0.252 OA
BRANCH  12  13
ATOM     13  O   UNL     1      11.675  78.482  20.232  0.00  0.00    -0.495 OA
ATOM     14  H   UNL     1      11.047  79.322  20.287  0.00  0.00    +0.293 HD
ENDBRANCH  12  13
ENDBRANCH   7   8
BRANCH   5  19
ATOM     19  O   UNL     1      13.971  76.141  28.302  0.00  0.00    -0.389 OA
ATOM     20  H   UNL     1      14.633  75.489  28.792  0.00  0.00    +0.210 HD
ENDBRANCH   5  19
BRANCH   4   3
ATOM      3  C   UNL     1      14.248  73.372  26.070  0.00  0.00    +0.197 C 
BRANCH   3   2
ATOM      2  O   UNL     1      12.886  72.980  25.734  0.00  0.00    -0.365 OA
BRANCH   2   1
ATOM      1  P   UNL     1      12.357  71.529  26.167  0.00  0.00    -0.015 P 
ATOM     22  O   UNL     1      13.340  70.626  25.255  0.00  0.00    -0.577 OA
ATOM     23  O   UNL     1      10.963  71.488  25.663  0.00  0.00    -0.638 OA
ATOM     24  O   UNL     1      12.646  71.304  27.604  0.00  0.00    -0.577 OA
ENDBRANCH   2   1
ENDBRANCH   3   2
ENDBRANCH   4   3
TORSDOF 6
