REMARK  Name = 3umw_ligand
REMARK  5 active torsions:
REMARK  status: ('A' for Active; 'I' for Inactive)
REMARK    1  A    between atoms: N3_3  and  C7_7
REMARK    2  A    between atoms: C7_7  and  C8_8
REMARK    3  A    between atoms: C13_13  and  O14_14
REMARK    4  A    between atoms: O14_14  and  C15_15
REMARK    5  A    between atoms: C20_20  and  C21_21
REMARK                            x       y       z     vdW  Elec       q    Type
REMARK                         _______ _______ _______ _____ _____    ______ ____
ROOT
ATOM      9  C   UNL     1      17.805 -34.455  -0.426  0.00  0.00    +0.006 A 
ATOM     10  C   UNL     1      17.065 -33.434  -1.044  0.00  0.00    +0.089 A 
ATOM     13  C   UNL     1      16.099 -32.719  -0.326  0.00  0.00    +0.003 A 
ATOM     14  C   UNL     1      15.839 -32.965   1.015  0.00  0.00    -0.011 A 
ATOM     15  C   UNL     1      16.562 -33.971   1.614  0.00  0.00    +0.051 A 
ATOM     16  C   UNL     1      16.624 -34.560   2.975  0.00  0.00    +0.183 C 
ATOM     17  O   UNL     1      15.932 -34.248   4.022  0.00  0.00    -0.376 OA
ATOM     18  C   UNL     1      17.641 -35.616   2.977  0.00  0.00    +0.184 C 
ATOM     19  C   UNL     1      18.043 -36.471   4.109  0.00  0.00    +0.094 C 
ATOM     30  O   UNL     1      18.165 -35.683   1.720  0.00  0.00    -0.244 OA
ATOM     31  C   UNL     1      17.531 -34.696   0.924  0.00  0.00    +0.131 A 
ENDROOT
BRANCH  19  20
ATOM     20  C   UNL     1      19.046 -37.559   4.184  0.00  0.00    +0.124 A 
ATOM     21  C   UNL     1      19.862 -38.192   3.139  0.00  0.00    +0.030 A 
ATOM     22  C   UNL     1      19.961 -38.020   1.766  0.00  0.00    +0.014 A 
ATOM     23  C   UNL     1      20.844 -38.833   1.072  0.00  0.00    +0.001 A 
ATOM     24  C   UNL     1      21.594 -39.800   1.752  0.00  0.00    +0.000 A 
ATOM     25  C   UNL     1      21.473 -39.962   3.133  0.00  0.00    +0.006 A 
ATOM     26  C   UNL     1      20.590 -39.147   3.831  0.00  0.00    -0.003 A 
ATOM     27  N   UNL     1      20.262 -39.099   5.143  0.00  0.00    -0.314 NA
ATOM     28  N   UNL     1      19.309 -38.103   5.385  0.00  0.00    -0.244 N 
ATOM     29  H   UNL     1      18.900 -37.844   6.283  0.00  0.00    +0.277 HD
ENDBRANCH  19  20
BRANCH  10  11
ATOM     11  O   UNL     1      17.279 -33.132  -2.370  0.00  0.00    -0.325 OA
ATOM     12  C   UNL     1      16.454 -32.214  -3.125  0.00  0.00    +0.231 C 
ENDBRANCH  10  11
BRANCH   9   8
ATOM      8  C   UNL     1      18.853 -35.284  -1.181  0.00  0.00    -0.050 C 
BRANCH   8   7
ATOM      1  C   UNL     1      16.862 -37.129  -3.879  0.00  0.00    +0.106 C 
ATOM      2  N   UNL     1      16.299 -38.178  -3.022  0.00  0.00    +0.224 N 
ATOM      3  H   UNL     1      15.427 -37.799  -2.653  0.00  0.00    +0.201 HD
ATOM      4  H   UNL     1      16.230 -39.010  -3.608  0.00  0.00    +0.201 HD
ATOM      5  C   UNL     1      17.080 -38.571  -1.867  0.00  0.00    +0.106 C 
ATOM      6  C   UNL     1      17.519 -37.342  -1.076  0.00  0.00    -0.055 C 
ATOM      7  N   UNL     1      18.265 -36.421  -1.946  0.00  0.00    +0.413 NA
ATOM     32  C   UNL     1      17.412 -35.952  -3.051  0.00  0.00    -0.055 C 
ENDBRANCH   8   7
ENDBRANCH   9   8
TORSDOF 4
