REMARK  Name = 6GJO
REMARK  4 active torsions:
REMARK  status: ('A' for Active; 'I' for Inactive)
REMARK    1  A    between atoms: C7_4  and  C3_22
REMARK    2  A    between atoms: C15_6  and  N8_26
REMARK    3  A    between atoms: C17_7  and  C12_15
REMARK    4  A    between atoms: C3_22  and  N8_26
REMARK                            x       y       z     vdW  Elec       q    Type
REMARK                         _______ _______ _______ _____ _____    ______ ____
ROOT
ATOM      1  C   UNL     1       0.187  15.403  12.723  0.00  0.00    +0.600 C 
ATOM      2  C   UNL     1       0.002  14.225  11.818  0.00  0.00    +0.000 C 
ATOM      3  C   UNL     1      -0.725  14.275  10.633  0.00  0.00    +0.100 C 
ATOM     18  C   UNL     1       0.713  13.127  12.465  0.00  0.00    +0.000 A 
ATOM     19  C   UNL     1       0.923  11.783  12.150  0.00  0.00    -0.130 A 
ATOM     20  C   UNL     1       1.667  10.968  13.003  0.00  0.00    +0.000 A 
ATOM     21  C   UNL     1       2.213  11.506  14.176  0.00  0.00    -0.130 A 
ATOM     22  C   UNL     1       2.020  12.839  14.513  0.00  0.00    -0.130 A 
ATOM     26  C   UNL     1       1.271  13.639  13.653  0.00  0.00    +0.050 A 
ATOM     27  O   UNL     1      -0.242  16.546  12.565  0.00  0.00    -0.550 OA
ATOM     28  N   UNL     1       0.932  14.981  13.774  0.00  0.00    -0.350 NA
ENDROOT
BRANCH   3  12
ATOM     12  C   UNL     1      -0.854  13.096   9.750  0.00  0.00    +0.000 A 
ATOM     13  C   UNL     1      -1.899  12.186   9.925  0.00  0.00    -0.130 A 
ATOM     14  C   UNL     1      -2.004  11.070   9.106  0.00  0.00    -0.130 A 
ATOM     15  C   UNL     1      -1.058  10.835   8.121  0.00  0.00    -0.130 A 
ATOM     16  C   UNL     1      -0.007  11.720   7.952  0.00  0.00    -0.130 A 
ATOM     17  C   UNL     1       0.106  12.837   8.770  0.00  0.00    -0.130 A 
ENDBRANCH   3  12
BRANCH  20  23
ATOM     23  C   UNL     1       1.892   9.532  12.652  0.00  0.00    +0.550 C 
ATOM     24  O   UNL     1       2.565   8.815  13.381  0.00  0.00    -0.550 OA
ATOM     25  C   UNL     1       1.297   8.979  11.395  0.00  0.00    -0.150 C 
ENDBRANCH  20  23
BRANCH   3   4
ATOM      4  N   UNL     1      -1.269  15.430  10.247  0.00  0.00    -0.450 NA
BRANCH   4   5
ATOM      5  C   UNL     1      -2.087  15.726   9.070  0.00  0.00    +0.050 C 
ATOM      6  C   UNL     1      -1.356  16.680   8.136  0.00  0.00    -0.100 C 
ATOM      7  C   UNL     1      -2.236  17.085   6.950  0.00  0.00    +0.100 C 
ATOM      8  N   UNL     1      -3.507  17.703   7.442  0.00  0.00    -0.600 NA
ATOM      9  C   UNL     1      -4.270  16.723   8.276  0.00  0.00    +0.100 C 
ATOM     10  C   UNL     1      -4.333  18.223   6.317  0.00  0.00    +0.050 C 
ATOM     11  C   UNL     1      -3.434  16.301   9.487  0.00  0.00    -0.100 C 
ENDBRANCH   4   5
ENDBRANCH   3   4
TORSDOF 4
