REMARK  Name = 3bx5_ligand
REMARK  9 active torsions:
REMARK  status: ('A' for Active; 'I' for Inactive)
REMARK    1  A    between atoms: C5_5  and  C10_10
REMARK    2  A    between atoms: C6_6  and  C12_12
REMARK    3  A    between atoms: C7_7  and  N19_19
REMARK    4  A    between atoms: C8_8  and  C11_11
REMARK    5  A    between atoms: C13_13  and  C16_16
REMARK    6  A    between atoms: C14_14  and  C17_17
REMARK    7  A    between atoms: C15_15  and  N21_21
REMARK    8  A    between atoms: C16_16  and  C17_17
REMARK    9  A    between atoms: C17_17  and  N20_20
REMARK                            x       y       z     vdW  Elec       q    Type
REMARK                         _______ _______ _______ _____ _____    ______ ____
ROOT
ATOM     10  N   UNL     1      -3.601  37.407  20.165  0.00  0.00    -0.239 N 
ATOM     11  H   UNL     1      -3.970  38.334  20.231  0.00  0.00    +0.222 HD
ATOM     12  C   UNL     1      -2.953  37.009  19.005  0.00  0.00    +0.224 C 
ATOM     13  O   UNL     1      -2.509  35.874  18.835  0.00  0.00    -0.387 OA
ENDROOT
BRANCH  10   9
ATOM      1  C   UNL     1      -3.956  34.772  23.439  0.00  0.00    -0.011 A 
ATOM      2  C   UNL     1      -2.685  35.140  23.000  0.00  0.00    +0.029 A 
ATOM      8  C   UNL     1      -2.592  36.023  21.912  0.00  0.00    +0.025 A 
ATOM      9  C   UNL     1      -3.747  36.513  21.262  0.00  0.00    +0.073 A 
ATOM     25  C   UNL     1      -5.032  36.131  21.710  0.00  0.00    -0.019 A 
ATOM     26  C   UNL     1      -6.304  36.629  21.081  0.00  0.00    +0.079 C 
ATOM     27  C   UNL     1      -5.110  35.255  22.803  0.00  0.00    -0.015 A 
BRANCH   2   3
ATOM      3  C   UNL     1      -1.420  34.656  23.662  0.00  0.00    +0.196 C 
ATOM      4  O   UNL     1      -0.344  35.194  23.406  0.00  0.00    -0.388 OA
ATOM      5  N   UNL     1      -1.522  33.610  24.564  0.00  0.00    -0.290 N 
ATOM      6  H   UNL     1      -2.367  33.076  24.593  0.00  0.00    +0.184 HD
ATOM      7  C   UNL     1      -0.442  33.266  25.466  0.00  0.00    +0.164 C 
ENDBRANCH   2   3
ENDBRANCH  10   9
BRANCH  12  14
ATOM     14  C   UNL     1      -2.828  38.029  17.998  0.00  0.00    +0.110 A 
ATOM     15  S   UNL     1      -2.385  37.582  16.413  0.00  0.00    +0.030 S 
ATOM     16  C   UNL     1      -2.440  39.251  15.913  0.00  0.00    +0.188 A 
ATOM     17  N   UNL     1      -2.191  39.725  14.650  0.00  0.00    -0.278 N 
ATOM     18  H   UNL     1      -2.668  40.607  14.413  0.00  0.00    +0.193 HD
ATOM     23  N   UNL     1      -2.783  40.072  16.893  0.00  0.00    -0.306 NA
ATOM     24  C   UNL     1      -2.996  39.386  18.062  0.00  0.00    +0.050 A 
BRANCH  17  19
ATOM     19  C   UNL     1      -1.350  39.169  13.585  0.00  0.00    +0.099 C 
ATOM     22  C   UNL     1      -2.166  38.407  12.531  0.00  0.00    +0.035 C 
BRANCH  19  20
ATOM     20  C   UNL     1      -0.270  38.290  14.185  0.00  0.00    +0.025 C 
ATOM     21  C   UNL     1       0.764  39.124  14.916  0.00  0.00    +0.006 C 
ENDBRANCH  19  20
ENDBRANCH  17  19
ENDBRANCH  12  14
TORSDOF 5
