REMARK  Name = 6NPE
REMARK  3 active torsions:
REMARK  status: ('A' for Active; 'I' for Inactive)
REMARK    1  A    between atoms: C14_3  and  C16_4
REMARK    2  A    between atoms: C16_4  and  C17_5
REMARK    3  A    between atoms: C5_9  and  C9_12
REMARK                            x       y       z     vdW  Elec       q    Type
REMARK                         _______ _______ _______ _____ _____    ______ ____
ROOT
ATOM      1  C   UNL     1      14.456   8.546 -35.013  0.00  0.00    -0.050 C 
ATOM      2  S   UNL     1      12.691   8.817 -35.239  0.00  0.00    -0.110 S 
ATOM      3  C   UNL     1      12.306   7.176 -34.763  0.00  0.00    +0.160 C 
ATOM      4  N   UNL     1      13.245   6.426 -34.291  0.00  0.00    -0.150 NA
ATOM      5  N   UNL     1      11.010   6.727 -34.904  0.00  0.00    -0.350 NA
ATOM      6  C   UNL     1       9.939   7.556 -35.105  0.00  0.00    +0.600 C 
ATOM      7  O   UNL     1      10.015   8.736 -35.408  0.00  0.00    -0.550 OA
ATOM     11  C   UNL     1      14.457   7.232 -34.275  0.00  0.00    +0.050 C 
ENDROOT
BRANCH  11  12
ATOM     12  C   UNL     1      15.698   6.636 -33.756  0.00  0.00    +0.000 A 
ATOM     13  C   UNL     1      15.599   5.383 -33.194  0.00  0.00    -0.130 A 
ATOM     14  C   UNL     1      16.711   4.765 -32.685  0.00  0.00    +0.200 A 
ATOM     15 CL   UNL     1      16.592   3.181 -31.970  0.00  0.00    -0.200 Cl
ATOM     16  C   UNL     1      17.911   5.432 -32.751  0.00  0.00    +0.200 A 
ATOM     17 CL   UNL     1      19.315   4.665 -32.120  0.00  0.00    -0.200 Cl
ATOM     18  C   UNL     1      18.018   6.688 -33.311  0.00  0.00    -0.130 A 
ATOM     19  C   UNL     1      16.898   7.306 -33.822  0.00  0.00    -0.130 A 
ENDBRANCH  11  12
BRANCH   6   8
ATOM      8  C   UNL     1       8.641   6.839 -34.888  0.00  0.00    -0.100 C 
BRANCH   8   9
ATOM      9  C   UNL     1       7.678   7.774 -34.311  0.00  0.00    +0.350 C 
ATOM     10  N   UNL     1       6.923   8.526 -33.849  0.00  0.00    -0.350 NA
ENDBRANCH   8   9
ENDBRANCH   6   8
TORSDOF 3
