REMARK  Name = 3biz_ligand
REMARK  9 active torsions:
REMARK  status: ('A' for Active; 'I' for Inactive)
REMARK    1  A    between atoms: C26_1  and  N3_2
REMARK    2  A    between atoms: N3_2  and  C25_3
REMARK    3  A    between atoms: N3_2  and  C24_4
REMARK    4  A    between atoms: C24_4  and  C23_5
REMARK    5  A    between atoms: C23_5  and  C22_6
REMARK    6  A    between atoms: C22_6  and  O4_7
REMARK    7  A    between atoms: O4_7  and  C20_8
REMARK    8  A    between atoms: N2_15  and  C21_16
REMARK    9  A    between atoms: C2_27  and  C7_28
REMARK                            x       y       z     vdW  Elec       q    Type
REMARK                         _______ _______ _______ _____ _____    ______ ____
ROOT
ATOM      7  C   UNL     1       5.641  54.733  21.295  0.00  0.00    +0.149 C 
ATOM      8  C   UNL     1       6.647  54.981  22.258  0.00  0.00    +0.161 C 
ATOM      9  C   UNL     1       6.332  54.773  23.635  0.00  0.00    +0.167 C 
ATOM     10  C   UNL     1       5.013  54.444  24.023  0.00  0.00    -0.011 A 
ATOM     11  C   UNL     1       4.405  54.254  25.255  0.00  0.00    +0.009 A 
ATOM     12  C   UNL     1       4.862  54.312  26.611  0.00  0.00    +0.060 A 
ATOM     13  C   UNL     1       3.948  53.993  27.643  0.00  0.00    +0.063 A 
ATOM     14  C   UNL     1       2.596  53.638  27.342  0.00  0.00    -0.009 A 
ATOM     22  C   UNL     1       2.170  53.541  26.018  0.00  0.00    +0.032 A 
ATOM     23  C   UNL     1       4.728  54.126  28.874  0.00  0.00    +0.229 A 
ATOM     24  O   UNL     1       4.317  53.928  30.015  0.00  0.00    -0.372 OA
ATOM     25  N   UNL     1       5.960  54.515  28.638  0.00  0.00    -0.202 N 
ATOM     26  H   UNL     1       6.686  54.709  29.327  0.00  0.00    +0.221 HD
ATOM     27  C   UNL     1       6.068  54.606  27.280  0.00  0.00    +0.229 A 
ATOM     28  O   UNL     1       7.098  55.005  26.746  0.00  0.00    -0.371 OA
ATOM     29  C   UNL     1       3.074  53.898  24.991  0.00  0.00    +0.072 A 
ATOM     30  N   UNL     1       2.885  53.859  23.686  0.00  0.00    -0.268 N 
ATOM     31  C   UNL     1       1.533  53.503  23.080  0.00  0.00    +0.202 C 
ATOM     32  C   UNL     1       4.009  54.199  23.041  0.00  0.00    +0.059 A 
ATOM     33  O   UNL     1       7.806  55.281  21.876  0.00  0.00    -0.389 OA
ATOM     34  C   UNL     1       4.319  54.337  21.671  0.00  0.00    +0.051 C 
ENDROOT
BRANCH  14  15
ATOM     15  C   UNL     1       1.638  53.376  28.358  0.00  0.00    -0.007 A 
ATOM     16  C   UNL     1       1.264  54.418  29.303  0.00  0.00    +0.047 A 
ATOM     17 CL   UNL     1       1.898  56.029  29.367  0.00  0.00    -0.070 Cl
ATOM     18  C   UNL     1       0.350  54.151  30.378  0.00  0.00    +0.014 A 
ATOM     19  C   UNL     1      -0.261  52.874  30.430  0.00  0.00    -0.001 A 
ATOM     20  C   UNL     1       0.027  51.903  29.441  0.00  0.00    -0.000 A 
ATOM     21  C   UNL     1       0.986  52.103  28.420  0.00  0.00    +0.007 A 
ENDBRANCH  14  15
BRANCH   7   6
ATOM      6  O   UNL     1       6.020  54.923  19.978  0.00  0.00    -0.308 OA
BRANCH   6   5
ATOM      5  C   UNL     1       4.999  54.779  18.903  0.00  0.00    +0.195 C 
BRANCH   5   4
ATOM      4  C   UNL     1       5.736  54.923  17.525  0.00  0.00    +0.011 C 
BRANCH   4   3
ATOM      3  C   UNL     1       7.225  54.376  17.488  0.00  0.00    -0.108 C 
BRANCH   3   2
ATOM      1  C   UNL     1       8.818  52.804  16.363  0.00  0.00    -0.132 C 
ATOM      2  N   UNL     1       7.391  53.105  16.658  0.00  0.00    +0.399 NA
ATOM     35  C   UNL     1       6.660  53.031  15.330  0.00  0.00    -0.132 C 
ENDBRANCH   3   2
ENDBRANCH   4   3
ENDBRANCH   5   4
ENDBRANCH   6   5
ENDBRANCH   7   6
TORSDOF 6
