REMARK  Name = 4V26
REMARK  9 active torsions:
REMARK  status: ('A' for Active; 'I' for Inactive)
REMARK    1  A    between atoms: C_1  and  C_2
REMARK    2  A    between atoms: C_8  and  C_9
REMARK    3  A    between atoms: C_14  and  N_15
REMARK    4  A    between atoms: N_15  and  C_26
REMARK    5  A    between atoms: C_16  and  C_18
REMARK    6  A    between atoms: C_26  and  C_27
REMARK    7  A    between atoms: C_32  and  C_33
REMARK    8  A    between atoms: C_33  and  N_34
REMARK    9  A    between atoms: C_35  and  C_37
REMARK                            x       y       z     vdW  Elec       q    Type
REMARK                         _______ _______ _______ _____ _____    ______ ____
ROOT
ATOM      8  N   UNL     1      41.175 -49.538 -10.076  0.00  0.00    -0.263 N 
ATOM     25  C   UNL     1      39.973 -49.200 -10.491  0.00  0.00    +0.254 C 
ATOM     34  O   UNL     1      39.179 -49.986 -10.899  0.00  0.00    -0.270 OA
ENDROOT
BRANCH  25  26
ATOM     26  C   UNL     1      39.586 -47.758 -10.443  0.00  0.00    +0.076 C 
ATOM     27  C   UNL     1      39.371 -46.976 -11.551  0.00  0.00    +0.175 C 
ATOM     28  O   UNL     1      39.442 -47.426 -12.756  0.00  0.00    -0.291 OA
ATOM     29  C   UNL     1      39.040 -45.671 -11.424  0.00  0.00    +0.154 C 
ATOM     30  C   UNL     1      38.938 -45.127 -10.205  0.00  0.00    +0.144 C 
ATOM     31  O   UNL     1      38.596 -43.908 -10.107  0.00  0.00    -0.297 OA
ATOM     32  C   UNL     1      39.131 -45.869  -9.096  0.00  0.00    +0.102 C 
ATOM     33  C   UNL     1      39.459 -47.181  -9.215  0.00  0.00    -0.003 C 
ENDBRANCH  25  26
BRANCH   8   7
ATOM      4  C   UNL     1      43.888 -46.711  -8.884  0.00  0.00    +0.001 A 
ATOM      5  C   UNL     1      43.333 -46.725 -10.143  0.00  0.00    +0.012 A 
ATOM      6  C   UNL     1      42.436 -47.687 -10.526  0.00  0.00    +0.024 A 
ATOM      7  C   UNL     1      42.031 -48.644  -9.654  0.00  0.00    +0.037 A 
ATOM     35  C   UNL     1      42.578 -48.658  -8.405  0.00  0.00    +0.024 A 
ATOM     36  C   UNL     1      43.498 -47.718  -8.014  0.00  0.00    +0.012 A 
BRANCH   4   3
ATOM      1  C   UNL     1      43.918 -45.326  -6.240  0.00  0.00    +0.048 C 
ATOM      2  C   UNL     1      44.842 -45.026  -7.361  0.00  0.00    -0.006 A 
ATOM      3  C   UNL     1      44.812 -45.700  -8.561  0.00  0.00    +0.079 A 
ATOM     37  N   UNL     1      45.716 -45.288  -9.446  0.00  0.00    -0.217 NA
ATOM     38  C   UNL     1      46.609 -44.344  -9.211  0.00  0.00    +0.223 A 
ATOM     39 CL   UNL     1      47.692 -43.919 -10.445  0.00  0.00    -0.041 Cl
ATOM     40  N   UNL     1      46.637 -43.728  -8.056  0.00  0.00    -0.226 NA
ATOM     41  C   UNL     1      45.777 -44.059  -7.154  0.00  0.00    +0.119 A 
ENDBRANCH   4   3
ENDBRANCH   8   7
BRANCH   8   9
ATOM      9  C   UNL     1      41.596 -50.932 -10.087  0.00  0.00    +0.149 C 
BRANCH   9  10
ATOM     10  C   UNL     1      42.680 -51.204 -11.084  0.00  0.00    -0.030 A 
ATOM     11  C   UNL     1      42.316 -51.363 -12.377  0.00  0.00    +0.005 A 
ATOM     12  C   UNL     1      43.253 -51.588 -13.315  0.00  0.00    +0.005 A 
ATOM     13  C   UNL     1      44.563 -51.663 -12.966  0.00  0.00    -0.030 A 
ATOM     23  C   UNL     1      44.939 -51.504 -11.665  0.00  0.00    +0.005 A 
ATOM     24  C   UNL     1      43.994 -51.279 -10.714  0.00  0.00    +0.005 A 
BRANCH  13  14
ATOM     14  C   UNL     1      45.580 -51.940 -14.031  0.00  0.00    +0.140 C 
BRANCH  14  15
ATOM     15  N   UNL     1      45.668 -53.356 -14.363  0.00  0.00    -0.304 N 
ATOM     16  H   UNL     1      44.915 -53.819 -14.967  0.00  0.00    +0.149 HD
ATOM     17  C   UNL     1      46.676 -54.053 -13.915  0.00  0.00    +0.318 C 
ATOM     22  O   UNL     1      47.543 -53.598 -13.211  0.00  0.00    -0.266 OA
BRANCH  17  18
ATOM     18  C   UNL     1      46.805 -55.505 -14.244  0.00  0.00    +0.469 C 
ATOM     19  F   UNL     1      47.869 -55.766 -13.663  0.00  0.00    -0.162 F 
ATOM     20  F   UNL     1      46.980 -55.682 -15.461  0.00  0.00    -0.162 F 
ATOM     21  F   UNL     1      45.923 -56.336 -13.883  0.00  0.00    -0.162 F 
ENDBRANCH  17  18
ENDBRANCH  14  15
ENDBRANCH  13  14
ENDBRANCH   9  10
ENDBRANCH   8   9
TORSDOF 8
