REMARK  Name = 4d2w_ligand
REMARK  2 active torsions:
REMARK  status: ('A' for Active; 'I' for Inactive)
REMARK    1  A    between atoms: C5_5  and  C8_8
REMARK    2  A    between atoms: N10_10  and  C11_11
REMARK                            x       y       z     vdW  Elec       q    Type
REMARK                         _______ _______ _______ _____ _____    ______ ____
ROOT
ATOM      9  C   UNL     1      -2.344  -6.324 -11.670  0.00  0.00    +0.053 A 
ATOM     10  C   UNL     1      -3.699  -6.080 -11.827  0.00  0.00    -0.004 A 
ATOM     11  C   UNL     1      -4.515  -6.957 -12.527  0.00  0.00    -0.049 A 
ATOM     12  C   UNL     1      -5.983  -6.617 -12.645  0.00  0.00    +0.108 C 
ATOM     13  C   UNL     1      -6.889  -7.689 -12.049  0.00  0.00    +0.142 C 
ATOM     14  N   UNL     1      -7.086  -8.864 -12.902  0.00  0.00    +0.230 N 
ATOM     15  H   UNL     1      -7.376  -8.543 -13.812  0.00  0.00    +0.202 HD
ATOM     16  H   UNL     1      -7.818  -9.425 -12.495  0.00  0.00    +0.202 HD
ATOM     17  C   UNL     1      -5.906  -9.717 -13.078  0.00  0.00    +0.140 C 
ATOM     18  C   UNL     1      -4.770  -9.099 -13.879  0.00  0.00    +0.099 C 
ATOM     19  C   UNL     1      -3.945  -8.103 -13.100  0.00  0.00    -0.050 A 
ATOM     20  C   UNL     1      -2.580  -8.344 -12.940  0.00  0.00    -0.029 A 
ATOM     21  C   UNL     1      -1.784  -7.464 -12.234  0.00  0.00    -0.011 A 
ENDROOT
BRANCH   9   7
ATOM      6  C   UNL     1      -0.381  -5.357 -10.451  0.00  0.00    +0.232 C 
ATOM      7  N   UNL     1      -1.633  -5.345 -10.949  0.00  0.00    -0.238 N 
ATOM      8  H   UNL     1      -2.142  -4.501 -10.778  0.00  0.00    +0.223 HD
ATOM     22  O   UNL     1       0.309  -6.364 -10.363  0.00  0.00    -0.373 OA
BRANCH   6   5
ATOM      1 BR   UNL     1       1.622   0.070  -8.427  0.00  0.00    -0.046 Br
ATOM      2  C   UNL     1       1.017  -1.596  -9.070  0.00  0.00    +0.017 A 
ATOM      3  C   UNL     1       0.110  -1.633 -10.125  0.00  0.00    +0.019 A 
ATOM      4  C   UNL     1      -0.350  -2.853 -10.576  0.00  0.00    +0.029 A 
ATOM      5  C   UNL     1       0.113  -4.030  -9.986  0.00  0.00    +0.058 A 
ATOM     23  C   UNL     1       1.016  -3.975  -8.932  0.00  0.00    +0.029 A 
ATOM     24  C   UNL     1       1.483  -2.761  -8.467  0.00  0.00    +0.019 A 
ENDBRANCH   6   5
ENDBRANCH   9   7
TORSDOF 2
