REMARK  Name = UTH
REMARK  5 active torsions:
REMARK  status: ('A' for Active; 'I' for Inactive)
REMARK    1  A    between atoms: C05_7  and  C06_8
REMARK    2  A    between atoms: C10_12  and  N02_13
REMARK    3  A    between atoms: N02_13  and  C11_14
REMARK    4  A    between atoms: C16_19  and  C17_20
REMARK    5  A    between atoms: C21_24  and  C1_28
REMARK                            x       y       z     vdW  Elec       q    Type
REMARK                         _______ _______ _______ _____ _____    ______ ____
ROOT
ATOM      8  C   UNL     1      14.059   5.118  10.801  0.00  0.00    +0.087 A 
ATOM      9  N   UNL     1      14.223   4.234  11.788  0.00  0.00    -0.226 NA
ATOM     10  C   UNL     1      14.729   3.013  11.444  0.00  0.00    +0.164 A 
ATOM     11  N   UNL     1      14.878   2.151  12.491  0.00  0.00    -0.225 NA
ATOM     12  C   UNL     1      15.370   0.972  12.214  0.00  0.00    +0.108 A 
ATOM     13  C   UNL     1      15.724   0.509  10.952  0.00  0.00    +0.114 A 
ATOM     17  C   UNL     1      15.598   1.365   9.823  0.00  0.00    +0.081 A 
ATOM     29  C   UNL     1      15.061   2.667  10.110  0.00  0.00    +0.051 A 
ATOM     30  C   UNL     1      14.854   3.655   9.123  0.00  0.00    +0.006 A 
ATOM     31  C   UNL     1      14.353   4.867   9.467  0.00  0.00    +0.019 A 
ENDROOT
BRANCH   8   7
ATOM      1  C   UNL     1      11.414   5.645  12.606  0.00  0.00    +0.056 C 
ATOM      2  C   UNL     1      12.349   6.633  11.999  0.00  0.00    +0.102 A 
ATOM      3  N   UNL     1      12.126   7.909  12.163  0.00  0.00    -0.082 NA
ATOM      4  O   UNL     1      13.170   8.585  11.477  0.00  0.00    -0.358 OA
ATOM      5  C   UNL     1      13.970   7.664  10.926  0.00  0.00    +0.156 A 
ATOM      6  C   UNL     1      15.132   8.176  10.160  0.00  0.00    +0.075 C 
ATOM      7  C   UNL     1      13.504   6.424  11.217  0.00  0.00    +0.067 A 
ENDBRANCH   8   7
BRANCH  13  14
ATOM     14  C   UNL     1      16.288  -0.868  10.876  0.00  0.00    +0.391 C 
ATOM     15  O   UNL     1      16.447  -1.557  11.876  0.00  0.00    -0.240 OA
ATOM     16  O   UNL     1      16.676  -1.226   9.691  0.00  0.00    -0.240 OA
ENDBRANCH  13  14
BRANCH  17  18
ATOM     18  N   UNL     1      15.919   0.899   8.544  0.00  0.00    -0.212 NA
BRANCH  18  19
ATOM     19  C   UNL     1      16.289   1.663   7.376  0.00  0.00    +0.067 A 
ATOM     20  C   UNL     1      17.569   2.213   7.344  0.00  0.00    +0.016 A 
ATOM     21  C   UNL     1      17.991   2.952   6.252  0.00  0.00    +0.001 A 
ATOM     22  C   UNL     1      17.154   3.154   5.179  0.00  0.00    -0.000 A 
ATOM     23  C   UNL     1      15.878   2.620   5.173  0.00  0.00    -0.003 A 
ATOM     24  C   UNL     1      15.404   1.876   6.249  0.00  0.00    -0.008 A 
BRANCH  24  25
ATOM     25  C   UNL     1      13.968   1.295   6.167  0.00  0.00    +0.020 C 
ATOM     26  C   UNL     1      13.166   1.428   7.464  0.00  0.00    +0.004 C 
ATOM     27  C   UNL     1      14.017  -0.179   5.788  0.00  0.00    +0.004 C 
ATOM     28  C   UNL     1      13.134   2.001   5.080  0.00  0.00    +0.004 C 
ENDBRANCH  24  25
ENDBRANCH  18  19
ENDBRANCH  17  18
TORSDOF 5
