REMARK  Name = 4WOV
REMARK  8 active torsions:
REMARK  status: ('A' for Active; 'I' for Inactive)
REMARK    1  A    between atoms: C_1  and  C_2
REMARK    2  A    between atoms: C_2  and  N_22
REMARK    3  A    between atoms: C_5  and  C_6
REMARK    4  A    between atoms: C_6  and  O_24
REMARK    5  A    between atoms: C_7  and  O_24
REMARK    6  A    between atoms: C_8  and  C_18
REMARK    7  A    between atoms: C_9  and  N_27
REMARK    8  A    between atoms: N_10  and  C_28
REMARK                            x       y       z     vdW  Elec       q    Type
REMARK                         _______ _______ _______ _____ _____    ______ ____
ROOT
ATOM      6  C   UNL     1      11.847  -0.223   0.843  0.00  0.00    +0.067 A 
ATOM      7  C   UNL     1      10.960  -0.954   1.582  0.00  0.00    +0.041 A 
ATOM      8  C   UNL     1      11.003  -2.303   1.113  0.00  0.00    +0.045 A 
ATOM      9  C   UNL     1      11.956  -2.328   0.083  0.00  0.00    +0.143 A 
ATOM     10  N   UNL     1      12.326  -3.418  -0.617  0.00  0.00    -0.212 NA
ATOM     11  C   UNL     1      11.759  -4.615  -0.382  0.00  0.00    +0.148 A 
ATOM     12  N   UNL     1      12.123  -5.671  -1.122  0.00  0.00    -0.330 N 
ATOM     13  H   UNL     1      11.674  -6.564  -0.947  0.00  0.00    +0.147 HD
ATOM     14  C   UNL     1      13.145  -5.611  -2.147  0.00  0.00    +0.127 C 
ATOM     15  C   UNL     1      10.760  -4.719   0.620  0.00  0.00    +0.129 A 
ATOM     16  N   UNL     1       9.988  -5.786   1.052  0.00  0.00    -0.232 NA
ATOM     17  C   UNL     1       9.210  -5.260   1.968  0.00  0.00    +0.200 A 
ATOM     18  N   UNL     1       9.409  -3.935   2.191  0.00  0.00    -0.333 N 
ATOM     19  C   UNL     1       8.727  -3.081   3.159  0.00  0.00    +0.150 C 
ATOM     20  C   UNL     1      10.415  -3.558   1.332  0.00  0.00    +0.083 A 
ATOM     21  N   UNL     1      12.439  -1.050  -0.096  0.00  0.00    -0.338 N 
ATOM     22  H   UNL     1      13.116  -0.769  -0.797  0.00  0.00    +0.167 HD
ENDROOT
BRANCH   6   5
ATOM      1  C   UNL     1      12.960   3.074  -0.204  0.00  0.00    +0.059 A 
ATOM      2  C   UNL     1      12.560   3.916   0.826  0.00  0.00    +0.025 A 
ATOM      3  C   UNL     1      11.868   3.370   1.897  0.00  0.00    +0.004 A 
ATOM      4  C   UNL     1      11.588   2.011   1.918  0.00  0.00    +0.030 A 
ATOM      5  C   UNL     1      12.071   1.228   0.883  0.00  0.00    +0.087 A 
ATOM     23  N   UNL     1      12.727   1.742  -0.170  0.00  0.00    -0.249 NA
BRANCH   1  24
ATOM     24  C   UNL     1      13.646   3.597  -1.444  0.00  0.00    +0.159 C 
BRANCH  24  25
ATOM     25  N   UNL     1      14.953   2.998  -1.671  0.00  0.00    -0.308 N 
ATOM     26  H   UNL     1      15.488   2.798  -0.832  0.00  0.00    +0.149 HD
ATOM     27  C   UNL     1      15.430   2.692  -2.884  0.00  0.00    +0.239 C 
ATOM     28  O   UNL     1      14.810   2.878  -3.930  0.00  0.00    -0.273 OA
BRANCH  27  29
ATOM     29  C   UNL     1      16.813   2.089  -2.944  0.00  0.00    +0.255 C 
BRANCH  29  30
ATOM     30  O   UNL     1      16.579   0.690  -2.961  0.00  0.00    -0.374 OA
ATOM     31  C   UNL     1      17.246  -0.024  -1.923  0.00  0.00    +0.194 C 
ENDBRANCH  29  30
ENDBRANCH  27  29
ENDBRANCH  24  25
ENDBRANCH   1  24
ENDBRANCH   6   5
TORSDOF 5
