REMARK  Name = 3lq8_ligand
REMARK  13 active torsions:
REMARK  status: ('A' for Active; 'I' for Inactive)
REMARK    1  A    between atoms: C1_1  and  O11_11
REMARK    2  A    between atoms: C2_2  and  O13_13
REMARK    3  A    between atoms: C10_10  and  O14_14
REMARK    4  A    between atoms: O11_11  and  C12_12
REMARK    5  A    between atoms: O13_13  and  C23_23
REMARK    6  A    between atoms: O14_14  and  C15_15
REMARK    7  A    between atoms: C18_18  and  N22_22
REMARK    8  A    between atoms: C23_23  and  C24_24
REMARK    9  A    between atoms: C24_24  and  C25_25
REMARK   10  A    between atoms: C25_25  and  N26_26
REMARK   11  A    between atoms: C32_32  and  C33_33
REMARK   12  A    between atoms: C33_33  and  C34_34
REMARK   13  A    between atoms: N35_35  and  C38_38
REMARK                            x       y       z     vdW  Elec       q    Type
REMARK                         _______ _______ _______ _____ _____    ______ ____
ROOT
ATOM      8  C   UNL     1       1.282   3.834  30.326  0.00  0.00    +0.142 A 
ATOM      9  C   UNL     1       2.308   4.002  31.361  0.00  0.00    +0.155 A 
ATOM     10  F   UNL     1       1.857   4.067  32.625  0.00  0.00    -0.192 F 
ATOM     11  C   UNL     1       3.653   4.091  30.998  0.00  0.00    +0.035 A 
ATOM     12  C   UNL     1       3.986   4.049  29.649  0.00  0.00    +0.057 A 
ATOM     31  C   UNL     1       2.992   3.871  28.673  0.00  0.00    -0.004 A 
ATOM     32  C   UNL     1       1.658   3.771  28.999  0.00  0.00    +0.012 A 
ENDROOT
BRANCH  12  13
ATOM     13  N   UNL     1       5.266   4.151  29.226  0.00  0.00    -0.239 N 
ATOM     14  H   UNL     1       5.381   4.497  28.295  0.00  0.00    +0.225 HD
ATOM     15  C   UNL     1       6.411   3.854  29.876  0.00  0.00    +0.230 C 
ATOM     16  O   UNL     1       6.469   3.506  31.031  0.00  0.00    -0.342 OA
BRANCH  15  17
ATOM     17  C   UNL     1       7.714   3.928  29.101  0.00  0.00    +0.139 C 
ATOM     18  C   UNL     1       8.986   4.319  29.884  0.00  0.00    +0.013 C 
ATOM     19  C   UNL     1       8.678   2.846  29.627  0.00  0.00    +0.013 C 
BRANCH  17  20
ATOM     20  C   UNL     1       7.644   4.176  27.577  0.00  0.00    +0.232 C 
ATOM     21  O   UNL     1       6.580   4.587  27.098  0.00  0.00    -0.340 OA
ATOM     22  N   UNL     1       8.774   4.373  26.871  0.00  0.00    -0.236 N 
ATOM     23  H   UNL     1       9.653   4.387  27.348  0.00  0.00    +0.226 HD
BRANCH  22  24
ATOM     24  C   UNL     1       8.745   4.555  25.510  0.00  0.00    +0.064 A 
ATOM     25  C   UNL     1       9.347   3.581  24.685  0.00  0.00    +0.008 A 
ATOM     26  C   UNL     1       9.293   3.769  23.298  0.00  0.00    +0.016 A 
ATOM     27  C   UNL     1       8.712   4.909  22.735  0.00  0.00    +0.117 A 
ATOM     28  F   UNL     1       8.723   5.043  21.391  0.00  0.00    -0.196 F 
ATOM     29  C   UNL     1       8.118   5.905  23.548  0.00  0.00    +0.016 A 
ATOM     30  C   UNL     1       8.172   5.706  24.934  0.00  0.00    +0.008 A 
ENDBRANCH  22  24
ENDBRANCH  17  20
ENDBRANCH  15  17
ENDBRANCH  12  13
BRANCH   8   7
ATOM      7  O   UNL     1      -0.010   3.751  30.761  0.00  0.00    -0.253 OA
BRANCH   7   6
ATOM      1  C   UNL     1      -4.127   3.138  30.704  0.00  0.00    +0.128 A 
ATOM      4  C   UNL     1      -2.738   3.330  30.741  0.00  0.00    +0.030 A 
ATOM      5  C   UNL     1      -2.250   4.613  30.582  0.00  0.00    +0.027 A 
ATOM      6  C   UNL     1      -0.822   4.860  30.612  0.00  0.00    +0.134 A 
ATOM     33  C   UNL     1      -0.354   6.181  30.453  0.00  0.00    +0.045 A 
ATOM     34  C   UNL     1      -1.258   7.250  30.217  0.00  0.00    +0.063 A 
ATOM     35  N   UNL     1      -2.588   7.019  30.229  0.00  0.00    -0.329 NA
ATOM     36  C   UNL     1      -3.131   5.795  30.381  0.00  0.00    +0.017 A 
ATOM     37  C   UNL     1      -4.507   5.601  30.367  0.00  0.00    +0.027 A 
ATOM     38  C   UNL     1      -5.010   4.301  30.513  0.00  0.00    +0.129 A 
BRANCH   1   2
ATOM      2  O   UNL     1      -4.766   1.909  30.815  0.00  0.00    -0.321 OA
ATOM      3  C   UNL     1      -4.097   0.665  31.033  0.00  0.00    +0.231 C 
ENDBRANCH   1   2
BRANCH  38  39
ATOM     39  O   UNL     1      -6.328   3.979  30.502  0.00  0.00    -0.315 OA
BRANCH  39  40
ATOM     40  C   UNL     1      -7.387   4.935  30.628  0.00  0.00    +0.198 C 
BRANCH  40  41
ATOM     41  C   UNL     1      -8.672   4.124  30.798  0.00  0.00    +0.084 C 
BRANCH  41  42
ATOM     42  C   UNL     1      -9.157   3.861  29.392  0.00  0.00    +0.134 C 
BRANCH  42  43
ATOM     43  N   UNL     1     -10.338   3.026  29.318  0.00  0.00    +0.238 N 
ATOM     44  H   UNL     1     -11.024   3.764  29.331  0.00  0.00    +0.203 HD
ATOM     45  C   UNL     1     -10.838   2.314  30.491  0.00  0.00    +0.160 C 
ATOM     46  C   UNL     1     -12.336   2.212  30.159  0.00  0.00    +0.210 C 
ATOM     47  O   UNL     1     -12.434   1.397  28.982  0.00  0.00    -0.369 OA
ATOM     48  C   UNL     1     -12.123   2.218  27.866  0.00  0.00    +0.210 C 
ATOM     49  C   UNL     1     -10.624   2.509  27.974  0.00  0.00    +0.160 C 
ENDBRANCH  42  43
ENDBRANCH  41  42
ENDBRANCH  40  41
ENDBRANCH  39  40
ENDBRANCH  38  39
ENDBRANCH   7   6
ENDBRANCH   8   7
TORSDOF 12
