REMARK  Name = 3qxp_ligand
REMARK  7 active torsions:
REMARK  status: ('A' for Active; 'I' for Inactive)
REMARK    1  A    between atoms: N02_2  and  C09_9
REMARK    2  A    between atoms: N03_3  and  C07_7
REMARK    3  A    between atoms: N04_4  and  S28_28
REMARK    4  A    between atoms: N05_5  and  C12_12
REMARK    5  A    between atoms: C06_6  and  C10_10
REMARK    6  A    between atoms: C10_10  and  C11_11
REMARK    7  A    between atoms: C19_19  and  S28_28
REMARK                            x       y       z     vdW  Elec       q    Type
REMARK                         _______ _______ _______ _____ _____    ______ ____
ROOT
ATOM      1  N   UNL     1     -65.611  82.336  86.682  0.00  0.00    -0.097 NA
ATOM      2  C   UNL     1     -65.328  82.211  85.402  0.00  0.00    +0.354 A 
ATOM      3  S   UNL     1     -66.322  81.083  84.553  0.00  0.00    +0.246 S 
ATOM      4  C   UNL     1     -67.177  80.714  86.017  0.00  0.00    +0.346 A 
ATOM     16  N   UNL     1     -64.362  82.920  84.876  0.00  0.00    -0.163 N 
ATOM     17  H   UNL     1     -64.180  83.824  85.336  0.00  0.00    +0.287 HD
ATOM     30  C   UNL     1     -66.655  81.499  87.037  0.00  0.00    +0.333 A 
ENDROOT
BRANCH  16  18
ATOM     18  C   UNL     1     -63.589  82.649  83.847  0.00  0.00    +0.130 A 
ATOM     19  C   UNL     1     -62.578  83.598  83.511  0.00  0.00    +0.064 A 
ATOM     20  C   UNL     1     -61.703  83.365  82.424  0.00  0.00    +0.043 A 
ATOM     21  C   UNL     1     -61.829  82.172  81.651  0.00  0.00    +0.116 A 
ATOM     28  C   UNL     1     -62.828  81.225  81.964  0.00  0.00    +0.043 A 
ATOM     29  C   UNL     1     -63.705  81.455  83.052  0.00  0.00    +0.064 A 
BRANCH  21  22
ATOM     22  S   UNL     1     -60.712  81.853  80.299  0.00  0.00    +0.070 S 
ATOM     23  O   UNL     1     -60.169  83.109  79.794  0.00  0.00    -0.149 OA
ATOM     24  O   UNL     1     -59.668  81.004  80.816  0.00  0.00    -0.149 OA
BRANCH  22  25
ATOM     25  N   UNL     1     -61.523  81.020  79.078  0.00  0.00    -0.260 NA
ATOM     26  H   UNL     1     -62.489  80.785  79.189  0.00  0.00    +0.164 HD
ATOM     27  H   UNL     1     -61.038  80.761  78.242  0.00  0.00    +0.164 HD
ENDBRANCH  22  25
ENDBRANCH  21  22
ENDBRANCH  16  18
BRANCH  30  31
ATOM     31  N   UNL     1     -67.093  81.452  88.243  0.00  0.00    -0.245 N 
ATOM     32  H   UNL     1     -66.666  82.045  88.969  0.00  0.00    +0.227 HD
ATOM     33  H   UNL     1     -67.871  80.822  88.484  0.00  0.00    +0.227 HD
ENDBRANCH  30  31
BRANCH   4   5
ATOM      5  C   UNL     1     -68.206  79.782  86.142  0.00  0.00    +0.325 C 
ATOM      6  O   UNL     1     -68.770  79.617  87.232  0.00  0.00    -0.272 OA
BRANCH   5   7
ATOM      7  C   UNL     1     -68.541  78.952  85.058  0.00  0.00    +0.101 A 
ATOM      8  C   UNL     1     -67.543  78.057  84.533  0.00  0.00    +0.035 A 
ATOM      9  C   UNL     1     -67.835  77.204  83.439  0.00  0.00    +0.016 A 
ATOM     10  C   UNL     1     -69.131  77.218  82.840  0.00  0.00    +0.017 A 
ATOM     11  C   UNL     1     -70.134  78.087  83.339  0.00  0.00    +0.047 A 
ATOM     12  C   UNL     1     -69.867  78.962  84.445  0.00  0.00    +0.105 A 
BRANCH  12  13
ATOM     13  N   UNL     1     -70.814  79.735  84.862  0.00  0.00    -0.213 N 
ATOM     14  O   UNL     1     -70.585  80.983  85.190  0.00  0.00    -0.487 OA
ATOM     15  O   UNL     1     -72.037  79.272  84.933  0.00  0.00    -0.487 OA
ENDBRANCH  12  13
ENDBRANCH   5   7
ENDBRANCH   4   5
TORSDOF 7
