REMARK  Name = 4nw6_ligand
REMARK  8 active torsions:
REMARK  status: ('A' for Active; 'I' for Inactive)
REMARK    1  A    between atoms: C23_1  and  O4_2
REMARK    2  A    between atoms: O4_2  and  C17_3
REMARK    3  A    between atoms: C18_5  and  O3_6
REMARK    4  A    between atoms: O3_6  and  C22_7
REMARK    5  A    between atoms: C19_8  and  O2_9
REMARK    6  A    between atoms: O2_9  and  C21_10
REMARK    7  A    between atoms: C15_12  and  N4_13
REMARK    8  A    between atoms: C6_21  and  C7_23
REMARK                            x       y       z     vdW  Elec       q    Type
REMARK                         _______ _______ _______ _____ _____    ______ ____
ROOT
ATOM      8  N   UNL     1     -19.471  -1.174 -23.720  0.00  0.00    -0.227 N 
ATOM      9  H   UNL     1     -19.961  -2.071 -23.848  0.00  0.00    +0.220 HD
ATOM     10  C   UNL     1     -18.118  -1.269 -23.663  0.00  0.00    +0.294 A 
ATOM     11  N   UNL     1     -17.401  -2.424 -23.677  0.00  0.00    -0.293 NA
ATOM     12  C   UNL     1     -16.101  -1.935 -23.509  0.00  0.00    +0.029 A 
ATOM     13  C   UNL     1     -16.116  -0.544 -23.407  0.00  0.00    +0.146 A 
ATOM     14  C   UNL     1     -14.958   0.204 -23.210  0.00  0.00    +0.009 A 
ATOM     25  C   UNL     1     -13.747  -0.489 -23.135  0.00  0.00    -0.018 A 
ATOM     26  C   UNL     1     -13.712  -1.875 -23.244  0.00  0.00    -0.027 A 
ATOM     27  C   UNL     1     -14.882  -2.614 -23.427  0.00  0.00    -0.015 A 
ATOM     28  O   UNL     1     -17.418  -0.110 -23.516  0.00  0.00    -0.195 OA
ENDROOT
BRANCH  14  15
ATOM     15  C   UNL     1     -15.028   1.691 -23.020  0.00  0.00    +0.003 A 
ATOM     16  C   UNL     1     -15.796   2.451 -23.910  0.00  0.00    -0.013 A 
ATOM     17  C   UNL     1     -15.880   3.834 -23.782  0.00  0.00    -0.024 A 
ATOM     18  C   UNL     1     -15.210   4.495 -22.762  0.00  0.00    -0.007 A 
ATOM     19  C   UNL     1     -14.461   3.740 -21.857  0.00  0.00    +0.034 A 
ATOM     20  N   UNL     1     -13.763   4.114 -20.733  0.00  0.00    -0.307 NA
ATOM     21  C   UNL     1     -13.265   2.977 -20.189  0.00  0.00    +0.238 A 
ATOM     22  N   UNL     1     -13.569   1.882 -20.859  0.00  0.00    -0.250 N 
ATOM     23  H   UNL     1     -13.305   0.910 -20.643  0.00  0.00    +0.235 HD
ATOM     24  C   UNL     1     -14.327   2.348 -21.922  0.00  0.00    +0.091 A 
ENDBRANCH  14  15
BRANCH   8   7
ATOM      3  C   UNL     1     -22.559   0.778 -23.888  0.00  0.00    +0.103 A 
ATOM      4  C   UNL     1     -22.137   2.052 -23.492  0.00  0.00    +0.135 A 
ATOM      5  C   UNL     1     -20.799   2.260 -23.139  0.00  0.00    +0.103 A 
ATOM      6  C   UNL     1     -19.891   1.215 -23.215  0.00  0.00    +0.006 A 
ATOM      7  C   UNL     1     -20.318  -0.045 -23.632  0.00  0.00    +0.043 A 
ATOM     33  C   UNL     1     -21.654  -0.262 -23.959  0.00  0.00    +0.006 A 
BRANCH   3   2
ATOM      1  C   UNL     1     -24.396  -0.627 -24.535  0.00  0.00    +0.228 C 
ATOM      2  O   UNL     1     -23.894   0.663 -24.180  0.00  0.00    -0.331 OA
ENDBRANCH   3   2
BRANCH   5  29
ATOM     29  O   UNL     1     -20.485   3.528 -22.732  0.00  0.00    -0.331 OA
ATOM     30  C   UNL     1     -19.158   3.772 -22.245  0.00  0.00    +0.228 C 
ENDBRANCH   5  29
BRANCH   4  31
ATOM     31  O   UNL     1     -23.045   3.098 -23.463  0.00  0.00    -0.337 OA
ATOM     32  C   UNL     1     -23.034   3.956 -24.609  0.00  0.00    +0.221 C 
ENDBRANCH   4  31
ENDBRANCH   8   7
TORSDOF 5
