REMARK  Name = 4HLE
REMARK  5 active torsions:
REMARK  status: ('A' for Active; 'I' for Inactive)
REMARK    1  A    between atoms: C_1  and  C_2
REMARK    2  A    between atoms: C_2  and  C_3
REMARK    3  A    between atoms: C_2  and  N_4
REMARK    4  A    between atoms: C_5  and  C_9
REMARK    5  A    between atoms: C_17  and  C_23
REMARK                            x       y       z     vdW  Elec       q    Type
REMARK                         _______ _______ _______ _____ _____    ______ ____
ROOT
ATOM      8  C   UNL     1      13.863  14.295 128.180  0.00  0.00    +0.057 A 
ATOM      9  S   UNL     1      12.514  15.252 127.612  0.00  0.00    -0.085 S 
ATOM     10  C   UNL     1      11.447  14.657 128.866  0.00  0.00    +0.027 A 
ATOM     11  C   UNL     1      10.029  15.107 128.984  0.00  0.00    +0.031 A 
ATOM     12  C   UNL     1       9.023  14.247 129.512  0.00  0.00    +0.129 A 
ATOM     13  O   UNL     1       9.374  13.041 130.008  0.00  0.00    -0.491 OA
ATOM     14  C   UNL     1      10.152  12.999 131.201  0.00  0.00    +0.234 C 
ATOM     15  C   UNL     1      11.648  12.989 130.902  0.00  0.00    +0.077 C 
ATOM     16  C   UNL     1       7.714  14.688 129.586  0.00  0.00    +0.059 A 
ATOM     17  C   UNL     1       7.362  15.961 129.091  0.00  0.00    +0.040 A 
ATOM     23  C   UNL     1       8.355  16.779 128.520  0.00  0.00    +0.014 A 
ATOM     24  C   UNL     1       9.661  16.356 128.469  0.00  0.00    +0.013 A 
ATOM     25  C   UNL     1      12.142  13.753 129.675  0.00  0.00    -0.029 A 
ATOM     26  C   UNL     1      13.447  13.589 129.265  0.00  0.00    +0.023 A 
ENDROOT
BRANCH   8   7
ATOM      3  N   UNL     1      15.709  14.842 126.460  0.00  0.00    -0.242 N 
ATOM      4  N   UNL     1      17.021  14.363 126.306  0.00  0.00    -0.158 NA
ATOM      5  C   UNL     1      17.239  13.500 127.258  0.00  0.00    +0.245 A 
ATOM      6  N   UNL     1      16.161  13.405 128.023  0.00  0.00    -0.214 NA
ATOM      7  C   UNL     1      15.208  14.205 127.572  0.00  0.00    +0.165 A 
BRANCH   3   2
ATOM      1  C   UNL     1      15.926  17.027 125.268  0.00  0.00    +0.032 C 
ATOM      2  C   UNL     1      15.044  15.814 125.576  0.00  0.00    +0.103 C 
ATOM     27  C   UNL     1      14.600  15.125 124.285  0.00  0.00    +0.032 C 
ENDBRANCH   3   2
ENDBRANCH   8   7
BRANCH  17  18
ATOM     18  C   UNL     1       5.959  16.446 129.170  0.00  0.00    +0.242 C 
ATOM     19  N   UNL     1       5.060  15.833 129.974  0.00  0.00    -0.325 N 
ATOM     20  H   UNL     1       4.053  16.192 130.022  0.00  0.00    +0.145 HD
ATOM     21  H   UNL     1       5.356  14.989 130.562  0.00  0.00    +0.145 HD
ATOM     22  O   UNL     1       5.606  17.414 128.515  0.00  0.00    -0.270 OA
ENDBRANCH  17  18
TORSDOF 3
