REMARK  Name = 3ddp_ligand
REMARK  12 active torsions:
REMARK  status: ('A' for Active; 'I' for Inactive)
REMARK    1  A    between atoms: C6_4  and  N6_19
REMARK    2  A    between atoms: C9_6  and  C10_7
REMARK    3  A    between atoms: C9_6  and  N9_15
REMARK    4  A    between atoms: C9_6  and  C11_16
REMARK    5  A    between atoms: C12_8  and  C15_11
REMARK    6  A    between atoms: C12_8  and  C13_12
REMARK    7  A    between atoms: C12_8  and  N2_13
REMARK    8  A    between atoms: C14_9  and  C13_12
REMARK    9  A    between atoms: O1_10  and  C15_11
REMARK   10  A    between atoms: N6_19  and  CA'_20
REMARK   11  A    between atoms: CA'_20  and  C1'_21
REMARK   12  A    between atoms: C4'_24  and  C1B_27
REMARK                            x       y       z     vdW  Elec       q    Type
REMARK                         _______ _______ _______ _____ _____    ______ ____
ROOT
ATOM      1  C   UNL     1      32.822 -14.668  37.826  0.00  0.00    +0.154 A 
ATOM      2  N   UNL     1      32.754 -13.471  37.219  0.00  0.00    -0.265 NA
ATOM      3  C   UNL     1      32.482 -13.373  35.902  0.00  0.00    +0.142 A 
ATOM      4  N   UNL     1      32.366 -12.329  35.098  0.00  0.00    -0.225 N 
ATOM      8  C   UNL     1      32.080 -12.769  33.854  0.00  0.00    +0.236 A 
ATOM      9  N   UNL     1      32.007 -14.130  33.842  0.00  0.00    -0.304 NA
ATOM     10  C   UNL     1      32.252 -14.577  35.094  0.00  0.00    +0.092 A 
ATOM     11  C   UNL     1      32.346 -15.879  35.822  0.00  0.00    +0.122 A 
ATOM     27  N   UNL     1      32.625 -15.834  37.152  0.00  0.00    -0.256 NA
ATOM     28  N   UNL     1      33.106 -14.674  39.145  0.00  0.00    -0.292 N 
ATOM     29  H   UNL     1      32.926 -15.518  39.708  0.00  0.00    +0.185 HD
ENDROOT
BRANCH   4   5
ATOM      5  C   UNL     1      32.560 -10.961  35.640  0.00  0.00    +0.129 C 
ATOM      6  C   UNL     1      31.220 -10.274  35.797  0.00  0.00    +0.043 C 
ATOM      7  C   UNL     1      33.582 -10.202  34.815  0.00  0.00    +0.043 C 
ENDBRANCH   4   5
BRANCH  11  12
ATOM     12  N   UNL     1      32.145 -17.057  35.183  0.00  0.00    -0.291 N 
ATOM     13  H   UNL     1      31.613 -17.049  34.301  0.00  0.00    +0.188 HD
BRANCH  12  14
ATOM     14  C   UNL     1      32.639 -18.329  35.674  0.00  0.00    +0.204 C 
BRANCH  14  15
ATOM     15  C   UNL     1      31.539 -18.979  36.470  0.00  0.00    -0.018 A 
ATOM     16  C   UNL     1      30.378 -19.390  35.825  0.00  0.00    +0.001 A 
ATOM     17  C   UNL     1      29.357 -19.985  36.563  0.00  0.00    +0.006 A 
ATOM     18  C   UNL     1      29.499 -20.174  37.939  0.00  0.00    -0.007 A 
ATOM     25  C   UNL     1      30.660 -19.749  38.586  0.00  0.00    +0.006 A 
ATOM     26  C   UNL     1      31.684 -19.156  37.849  0.00  0.00    +0.001 A 
BRANCH  18  19
ATOM     19  C   UNL     1      28.389 -20.781  38.722  0.00  0.00    +0.048 A 
ATOM     20  C   UNL     1      27.258 -21.288  38.076  0.00  0.00    +0.042 A 
ATOM     21  C   UNL     1      26.219 -21.826  38.838  0.00  0.00    +0.030 A 
ATOM     22  C   UNL     1      26.326 -21.834  40.229  0.00  0.00    +0.034 A 
ATOM     23  C   UNL     1      27.471 -21.304  40.831  0.00  0.00    +0.091 A 
ATOM     24  N   UNL     1      28.459 -20.787  40.071  0.00  0.00    -0.294 NA
ENDBRANCH  18  19
ENDBRANCH  14  15
ENDBRANCH  12  14
ENDBRANCH  11  12
BRANCH  28  30
ATOM     30  CA  UNL     1      33.669 -13.483  39.772  0.00  0.00    +0.122 C 
BRANCH  30  31
ATOM     31  C   UNL     1      35.198 -13.507  39.730  0.00  0.00    +0.027 C 
ATOM     32  C   UNL     1      35.773 -12.422  38.848  0.00  0.00    +0.006 C 
ENDBRANCH  30  31
BRANCH  30  33
ATOM     33  C   UNL     1      33.197 -13.389  41.223  0.00  0.00    +0.183 C 
BRANCH  33  34
ATOM     34  O   UNL     1      32.523 -14.597  41.618  0.00  0.00    -0.393 OA
ATOM     35  H   UNL     1      32.238 -14.520  42.521  0.00  0.00    +0.209 HD
ENDBRANCH  33  34
ENDBRANCH  30  33
ENDBRANCH  28  30
TORSDOF 9
