REMARK  Name = 8PX
REMARK  5 active torsions:
REMARK  status: ('A' for Active; 'I' for Inactive)
REMARK    1  A    between atoms: OAI_2  and  CAD_3
REMARK    2  A    between atoms: CAC_12  and  NAH_13
REMARK    3  A    between atoms: NAH_13  and  SAM_14
REMARK    4  A    between atoms: SAM_14  and  CAP_17
REMARK    5  A    between atoms: CAQ_23  and  OAV_24
REMARK                            x       y       z     vdW  Elec       q    Type
REMARK                         _______ _______ _______ _____ _____    ______ ____
ROOT
ATOM      1  B   UNL     1       8.440   4.000   8.000  0.00  0.00    +0.000 B 
ENDROOT
TORSDOF 0
