REMARK  Name = 8XR
REMARK  3 active torsions:
REMARK  status: ('A' for Active; 'I' for Inactive)
REMARK    1  A    between atoms: C15_2  and  C02_11
REMARK    2  A    between atoms: C17_3  and  N16_23
REMARK    3  A    between atoms: N07_16  and  C14_22
REMARK                            x       y       z     vdW  Elec       q    Type
REMARK                         _______ _______ _______ _____ _____    ______ ____
ROOT
ATOM      1  C   UNL     1     -19.971  -8.094  79.809  0.00  0.00    +0.031 C 
ATOM      2  C   UNL     1     -20.243  -6.927  78.764  0.00  0.00    +0.150 C 
ATOM      3  C   UNL     1     -20.195  -5.385  79.695  0.00  0.00    +0.247 C 
ATOM      4  N   UNL     1     -21.319  -5.056  80.221  0.00  0.00    -0.254 N 
ATOM      5  C   UNL     1     -21.476  -3.921  80.994  0.00  0.00    +0.120 C 
ATOM      6  C   UNL     1     -22.546  -5.879  80.028  0.00  0.00    +0.067 A 
ATOM      7  C   UNL     1     -23.758  -5.618  80.895  0.00  0.00    +0.016 A 
ATOM      8  C   UNL     1     -24.931  -6.410  80.652  0.00  0.00    +0.006 A 
ATOM      9  C   UNL     1     -24.893  -7.377  79.530  0.00  0.00    +0.057 A 
ATOM     21  C   UNL     1     -23.735  -7.690  78.705  0.00  0.00    +0.020 A 
ATOM     22  C   UNL     1     -22.509  -6.847  78.979  0.00  0.00    +0.062 A 
ATOM     23  O   UNL     1     -19.222  -4.806  79.800  0.00  0.00    -0.273 OA
ATOM     24  N   UNL     1     -21.244  -7.085  78.200  0.00  0.00    -0.302 N 
ENDROOT
BRANCH  24  25
ATOM     25  C   UNL     1     -21.333  -8.229  77.261  0.00  0.00    +0.073 C 
ATOM     26  C   UNL     1     -19.967  -8.698  76.561  0.00  0.00    +0.020 C 
ATOM     27  C   UNL     1     -20.027  -8.072  75.162  0.00  0.00    +0.002 C 
ATOM     28  C   UNL     1     -20.893  -7.099  75.394  0.00  0.00    +0.002 C 
ATOM     29  C   UNL     1     -22.037  -7.875  76.251  0.00  0.00    +0.020 C 
ENDBRANCH  24  25
BRANCH   9  10
ATOM     10  C   UNL     1     -26.067  -8.214  79.369  0.00  0.00    +0.269 C 
ATOM     11  O   UNL     1     -26.402  -8.667  80.436  0.00  0.00    -0.268 OA
ATOM     12  N   UNL     1     -26.587  -8.535  78.111  0.00  0.00    -0.176 NA
BRANCH  12  13
ATOM     13  C   UNL     1     -26.020  -7.954  76.958  0.00  0.00    +0.070 A 
ATOM     14  C   UNL     1     -25.865  -6.479  76.832  0.00  0.00    +0.016 A 
ATOM     15  C   UNL     1     -25.298  -5.830  75.646  0.00  0.00    -0.003 A 
ATOM     16  C   UNL     1     -24.798  -6.657  74.514  0.00  0.00    -0.022 A 
ATOM     17  C   UNL     1     -24.920  -8.147  74.597  0.00  0.00    -0.007 A 
ATOM     18  C   UNL     1     -24.230  -6.002  73.283  0.00  0.00    +0.031 C 
ATOM     19  C   UNL     1     -25.500  -8.804  75.831  0.00  0.00    -0.007 A 
ATOM     20  C   UNL     1     -25.592 -10.303  75.901  0.00  0.00    +0.032 C 
ENDBRANCH  12  13
ENDBRANCH   9  10
TORSDOF 3
