REMARK  Name = 2c5o_ligand
REMARK  3 active torsions:
REMARK  status: ('A' for Active; 'I' for Inactive)
REMARK    1  A    between atoms: C7A_1  and  C3A_2
REMARK    2  A    between atoms: C1A_5  and  C6A_6
REMARK    3  A    between atoms: C5A_7  and  C4_8
REMARK                            x       y       z     vdW  Elec       q    Type
REMARK                         _______ _______ _______ _____ _____    ______ ____
ROOT
ATOM      6  C   UNL     1       3.948  49.409   2.341  0.00  0.00    +0.041 A 
ATOM      7  C   UNL     1       4.938  50.387   2.338  0.00  0.00    +0.030 A 
ATOM      8  C   UNL     1       4.657  51.608   2.944  0.00  0.00    +0.086 A 
ATOM      9  N   UNL     1       3.461  51.791   3.518  0.00  0.00    -0.269 NA
ATOM     10  C   UNL     1       2.532  50.828   3.513  0.00  0.00    +0.173 A 
ATOM     11  N   UNL     1       1.267  51.078   4.068  0.00  0.00    -0.306 N 
ATOM     12  H   UNL     1       1.057  52.000   4.477  0.00  0.00    +0.182 HD
ATOM     13  H   UNL     1       0.549  50.340   4.066  0.00  0.00    +0.182 HD
ATOM     14  N   UNL     1       2.773  49.644   2.939  0.00  0.00    -0.269 NA
ENDROOT
BRANCH   6   5
ATOM      1  C   UNL     1       3.884  44.587   0.406  0.00  0.00    +0.164 C 
ATOM      2  C   UNL     1       4.181  45.991   0.843  0.00  0.00    +0.097 A 
ATOM      3  N   UNL     1       5.382  46.536   0.591  0.00  0.00    -0.296 NA
ATOM      4  C   UNL     1       5.457  47.779   1.093  0.00  0.00    +0.015 A 
ATOM      5  C   UNL     1       4.181  48.175   1.749  0.00  0.00    +0.067 A 
ATOM     15  C   UNL     1       6.749  48.505   0.848  0.00  0.00    +0.102 C 
ATOM     16  S   UNL     1       3.016  46.895   1.701  0.00  0.00    -0.001 S 
ENDBRANCH   6   5
TORSDOF 1
