REMARK  Name = TYL
REMARK  1 active torsions:
REMARK  status: ('A' for Active; 'I' for Inactive)
REMARK    1  A    between atoms: C1_1  and  N_7
REMARK                            x       y       z     vdW  Elec       q    Type
REMARK                         _______ _______ _______ _____ _____    ______ ____
ROOT
ATOM      1  C   UNL     1      20.294   9.503 -10.451  0.00  0.00    +0.074 A 
ATOM      6  C   UNL     1      21.584   9.148 -10.826  0.00  0.00    +0.020 A 
ATOM      7  C   UNL     1      22.136   9.634 -11.997  0.00  0.00    +0.043 A 
ATOM      8  C   UNL     1      21.405  10.486 -12.822  0.00  0.00    +0.196 A 
ATOM      9  C   UNL     1      20.118  10.857 -12.460  0.00  0.00    +0.043 A 
ATOM     10  O   UNL     1      21.950  10.957 -13.976  0.00  0.00    -0.287 OA
ATOM     11  C   UNL     1      19.569  10.365 -11.278  0.00  0.00    +0.020 A 
ENDROOT
BRANCH   1   2
ATOM      2  N   UNL     1      19.671   9.087  -9.248  0.00  0.00    -0.179 NA
ATOM      3  C   UNL     1      20.220   8.433  -8.187  0.00  0.00    +0.246 C 
ATOM      4  C   UNL     1      19.289   8.221  -7.020  0.00  0.00    +0.097 C 
ATOM      5  O   UNL     1      21.380   8.052  -8.159  0.00  0.00    -0.273 OA
ENDBRANCH   1   2
TORSDOF 1
