REMARK  Name = 5FTG
REMARK  15 active torsions:
REMARK  status: ('A' for Active; 'I' for Inactive)
REMARK    1  A    between atoms: C_1  and  N_2
REMARK    2  A    between atoms: N_2  and  C_3
REMARK    3  A    between atoms: N_2  and  C_4
REMARK    4  A    between atoms: N_9  and  C_10
REMARK    5  A    between atoms: C_10  and  C_11
REMARK    6  A    between atoms: C_16  and  O_17
REMARK    7  A    between atoms: O_17  and  C_18
REMARK    8  A    between atoms: C_18  and  C_19
REMARK    9  A    between atoms: C_19  and  O_20
REMARK   10  A    between atoms: O_20  and  C_21
REMARK   11  A    between atoms: C_26  and  C_27
REMARK   12  A    between atoms: C_27  and  N_28
REMARK   13  A    between atoms: C_31  and  N_32
REMARK   14  A    between atoms: N_32  and  C_33
REMARK   15  A    between atoms: N_32  and  C_34
REMARK                            x       y       z     vdW  Elec       q    Type
REMARK                         _______ _______ _______ _____ _____    ______ ____
ROOT
ATOM     13  C   UNL     1     -15.282   7.896   2.607  0.00  0.00    +0.270 C 
ENDROOT
BRANCH  13  12
ATOM     12  O   UNL     1     -14.526   6.712   2.558  0.00  0.00    -0.489 OA
BRANCH  12  11
ATOM      8  C   UNL     1     -15.714   3.720  -0.188  0.00  0.00    -0.030 A 
ATOM      9  C   UNL     1     -16.430   4.895  -0.131  0.00  0.00    +0.009 A 
ATOM     10  C   UNL     1     -16.050   5.901   0.768  0.00  0.00    +0.046 A 
ATOM     11  C   UNL     1     -14.965   5.713   1.632  0.00  0.00    +0.121 A 
ATOM     32  C   UNL     1     -14.262   4.523   1.576  0.00  0.00    +0.046 A 
ATOM     33  C   UNL     1     -14.626   3.532   0.648  0.00  0.00    +0.009 A 
BRANCH   8   7
ATOM      7  C   UNL     1     -16.169   2.712  -1.078  0.00  0.00    +0.145 C 
BRANCH   7   6
ATOM      3  C   UNL     1     -13.382   0.202  -3.068  0.00  0.00    +0.087 C 
ATOM      4  C   UNL     1     -14.416  -0.379  -2.324  0.00  0.00    +0.017 C 
ATOM      5  C   UNL     1     -15.326   0.438  -1.652  0.00  0.00    +0.073 C 
ATOM      6  N   UNL     1     -15.197   1.842  -1.719  0.00  0.00    -0.309 N 
ATOM     34  C   UNL     1     -14.189   2.426  -2.504  0.00  0.00    +0.073 C 
ATOM     35  C   UNL     1     -13.278   1.599  -3.160  0.00  0.00    +0.017 C 
BRANCH   3   2
ATOM      1  C   UNL     1     -11.073  -0.540  -3.425  0.00  0.00    +0.105 C 
ATOM      2  N   UNL     1     -12.515  -0.566  -3.751  0.00  0.00    -0.294 NA
ATOM     36  C   UNL     1     -13.055  -1.303  -4.915  0.00  0.00    +0.105 C 
ENDBRANCH   3   2
ENDBRANCH   7   6
ENDBRANCH   8   7
ENDBRANCH  12  11
ENDBRANCH  13  12
BRANCH  13  14
ATOM     14  C   UNL     1     -15.027   8.517   3.989  0.00  0.00    +0.270 C 
BRANCH  14  15
ATOM     15  O   UNL     1     -15.613   7.606   4.994  0.00  0.00    -0.489 OA
BRANCH  15  16
ATOM     16  C   UNL     1     -15.678   8.207   6.280  0.00  0.00    +0.121 A 
ATOM     17  C   UNL     1     -16.237   7.400   7.238  0.00  0.00    +0.046 A 
ATOM     18  C   UNL     1     -16.403   7.892   8.573  0.00  0.00    +0.009 A 
ATOM     19  C   UNL     1     -16.025   9.188   8.832  0.00  0.00    -0.030 A 
ATOM     30  C   UNL     1     -15.465   9.980   7.821  0.00  0.00    +0.009 A 
ATOM     31  C   UNL     1     -15.306   9.502   6.527  0.00  0.00    +0.046 A 
BRANCH  19  20
ATOM     20  C   UNL     1     -16.173   9.804  10.183  0.00  0.00    +0.145 C 
BRANCH  20  21
ATOM     21  N   UNL     1     -17.332  10.705  10.084  0.00  0.00    -0.309 N 
ATOM     22  C   UNL     1     -17.273  12.106  10.129  0.00  0.00    +0.073 C 
ATOM     23  C   UNL     1     -18.311  12.919   9.952  0.00  0.00    +0.017 C 
ATOM     24  C   UNL     1     -19.609  12.458   9.658  0.00  0.00    +0.087 C 
ATOM     28  C   UNL     1     -19.712  11.049   9.690  0.00  0.00    +0.017 C 
ATOM     29  C   UNL     1     -18.638  10.237   9.866  0.00  0.00    +0.073 C 
BRANCH  24  25
ATOM     25  N   UNL     1     -20.625  13.291   9.435  0.00  0.00    -0.294 NA
ATOM     26  C   UNL     1     -21.977  12.756   9.065  0.00  0.00    +0.105 C 
ATOM     27  C   UNL     1     -20.499  14.705   9.399  0.00  0.00    +0.105 C 
ENDBRANCH  24  25
ENDBRANCH  20  21
ENDBRANCH  19  20
ENDBRANCH  15  16
ENDBRANCH  14  15
ENDBRANCH  13  14
TORSDOF 11
