REMARK  Name = 5AM7
REMARK  4 active torsions:
REMARK  status: ('A' for Active; 'I' for Inactive)
REMARK    1  A    between atoms: C_1  and  N_17
REMARK    2  A    between atoms: C_6  and  N_18
REMARK    3  A    between atoms: C_7  and  C_11
REMARK    4  A    between atoms: C_12  and  N_23
REMARK                            x       y       z     vdW  Elec       q    Type
REMARK                         _______ _______ _______ _____ _____    ______ ____
ROOT
ATOM      6  C   UNL     1     219.089   3.268  26.814  0.00  0.00    +0.032 A 
ATOM      7  C   UNL     1     218.182   2.583  26.006  0.00  0.00    +0.050 A 
ATOM      8  C   UNL     1     217.753   3.150  24.801  0.00  0.00    +0.068 A 
ATOM      9  C   UNL     1     218.284   4.483  24.426  0.00  0.00    +0.090 A 
ATOM     10  C   UNL     1     219.181   5.131  25.266  0.00  0.00    +0.032 A 
ATOM     11  N   UNL     1     217.725   4.811  23.245  0.00  0.00    -0.228 NA
ATOM     12  C   UNL     1     216.912   3.786  22.921  0.00  0.00    +0.146 A 
ATOM     29  N   UNL     1     216.925   2.766  23.811  0.00  0.00    -0.338 N 
ATOM     30  H   UNL     1     216.387   1.843  23.742  0.00  0.00    +0.167 HD
ATOM     31  C   UNL     1     219.580   4.519  26.451  0.00  0.00    +0.025 A 
ENDROOT
BRANCH  12  13
ATOM     13  C   UNL     1     216.074   3.623  21.703  0.00  0.00    +0.103 C 
ATOM     14  C   UNL     1     215.103   2.520  21.518  0.00  0.00    +0.262 C 
ATOM     15  N   UNL     1     214.393   2.414  20.375  0.00  0.00    -0.321 N 
ATOM     16  H   UNL     1     213.743   1.570  20.276  0.00  0.00    +0.169 HD
ATOM     17  C   UNL     1     214.437   3.282  19.352  0.00  0.00    +0.054 A 
ATOM     18  C   UNL     1     213.650   3.091  18.212  0.00  0.00    +0.026 A 
ATOM     19  C   UNL     1     213.721   3.983  17.136  0.00  0.00    +0.005 A 
ATOM     20  C   UNL     1     214.577   5.089  17.133  0.00  0.00    +0.039 A 
ATOM     21  C   UNL     1     215.396   5.359  18.237  0.00  0.00    +0.134 A 
ATOM     22  F   UNL     1     216.212   6.434  18.260  0.00  0.00    -0.205 F 
ATOM     23  C   UNL     1     215.358   4.443  19.402  0.00  0.00    +0.055 A 
ATOM     24  O   UNL     1     214.960   1.650  22.411  0.00  0.00    -0.267 OA
ATOM     25  C   UNL     1     216.191   4.636  20.623  0.00  0.00    +0.053 C 
BRANCH  25  26
ATOM     26  N   UNL     1     217.049   5.669  20.756  0.00  0.00    -0.357 N 
ATOM     27  H   UNL     1     217.133   6.398  19.978  0.00  0.00    +0.142 HD
ATOM     28  H   UNL     1     217.646   5.759  21.640  0.00  0.00    +0.142 HD
ENDBRANCH  25  26
ENDBRANCH  12  13
BRANCH   6   5
ATOM      1  C   UNL     1     221.120   2.458  31.853  0.00  0.00    +0.105 C 
ATOM      2  N   UNL     1     220.535   2.203  30.529  0.00  0.00    -0.302 NA
ATOM      3  C   UNL     1     219.226   2.859  30.415  0.00  0.00    +0.103 C 
ATOM      4  C   UNL     1     218.562   2.475  29.097  0.00  0.00    +0.120 C 
ATOM      5  N   UNL     1     219.522   2.694  28.015  0.00  0.00    -0.327 N 
ATOM     32  C   UNL     1     220.923   2.301  28.123  0.00  0.00    +0.120 C 
ATOM     33  C   UNL     1     221.413   2.758  29.491  0.00  0.00    +0.103 C 
ENDBRANCH   6   5
TORSDOF 3
