REMARK  Name = 4G8
REMARK  7 active torsions:
REMARK  status: ('A' for Active; 'I' for Inactive)
REMARK    1  A    between atoms: C19_6  and  C18_7
REMARK    2  A    between atoms: C18_7  and  N17_8
REMARK    3  A    between atoms: N17_8  and  C25_9
REMARK    4  A    between atoms: C25_9  and  C26_10
REMARK    5  A    between atoms: C15_13  and  C9_15
REMARK    6  A    between atoms: C10_17  and  C12_18
REMARK    7  A    between atoms: C1_22  and  C2_23
REMARK                            x       y       z     vdW  Elec       q    Type
REMARK                         _______ _______ _______ _____ _____    ______ ____
ROOT
ATOM      8  N   UNL     1      41.291 -12.478  13.223  0.00  0.00    -0.261 N 
ATOM      9  C   UNL     1      39.966 -12.562  13.159  0.00  0.00    +0.284 C 
ATOM     10  O   UNL     1      39.229 -11.926  13.896  0.00  0.00    -0.270 OA
ENDROOT
BRANCH   9  11
ATOM     11  C   UNL     1      39.413 -13.692  12.180  0.00  0.00    +0.361 C 
ATOM     12  N   UNL     1      39.460 -15.005  12.507  0.00  0.00    -0.046 NA
ATOM     13  C   UNL     1      38.935 -15.692  11.454  0.00  0.00    +0.371 C 
ATOM     20  N   UNL     1      38.594 -14.802  10.466  0.00  0.00    -0.027 NA
ATOM     21  CA  UNL     1      38.894 -13.589  10.904  0.00  0.00    +0.308 C 
BRANCH  13  14
ATOM     14  C   UNL     1      38.837 -17.088  11.419  0.00  0.00    +0.088 A 
ATOM     15  C   UNL     1      38.720 -17.851  12.611  0.00  0.00    +0.008 A 
ATOM     16  C   UNL     1      38.663 -19.232  12.538  0.00  0.00    +0.000 A 
ATOM     17  C   UNL     1      38.740 -19.920  11.300  0.00  0.00    +0.000 A 
ATOM     18  C   UNL     1      38.881 -19.136  10.136  0.00  0.00    +0.000 A 
ATOM     19  C   UNL     1      38.939 -17.750  10.186  0.00  0.00    +0.008 A 
ENDBRANCH  13  14
BRANCH  21  22
ATOM     22  C   UNL     1      38.688 -12.316  10.066  0.00  0.00    +0.431 C 
ATOM     23  OXT UNL     1      38.826 -11.191  10.586  0.00  0.00    -0.237 OA
ATOM     24  O   UNL     1      38.387 -12.450   8.863  0.00  0.00    -0.237 OA
ENDBRANCH  21  22
ENDBRANCH   9  11
BRANCH   8   7
ATOM      7  C   UNL     1      41.977 -11.619  14.224  0.00  0.00    +0.121 C 
BRANCH   7   6
ATOM      1  C   UNL     1      44.196 -12.488  15.223  0.00  0.00    -0.003 A 
ATOM      2  C   UNL     1      44.932 -13.377  16.027  0.00  0.00    -0.000 A 
ATOM      3  C   UNL     1      44.238 -14.388  16.728  0.00  0.00    -0.000 A 
ATOM      4  C   UNL     1      42.835 -14.494  16.633  0.00  0.00    -0.000 A 
ATOM      5  C   UNL     1      42.104 -13.608  15.831  0.00  0.00    -0.003 A 
ATOM      6  C   UNL     1      42.783 -12.604  15.119  0.00  0.00    -0.002 A 
ENDBRANCH   7   6
ENDBRANCH   8   7
BRANCH   8  25
ATOM     25  C   UNL     1      42.207 -13.301  12.367  0.00  0.00    +0.209 C 
BRANCH  25  26
ATOM     26  C   UNL     1      42.527 -12.461  11.105  0.00  0.00    +0.385 C 
ATOM     27  O   UNL     1      42.457 -11.225  11.096  0.00  0.00    -0.244 OA
ATOM     28  O   UNL     1      42.801 -13.113   9.947  0.00  0.00    -0.244 OA
ENDBRANCH  25  26
ENDBRANCH   8  25
TORSDOF 7
