REMARK  Name = 4ppb_ligand
REMARK  10 active torsions:
REMARK  status: ('A' for Active; 'I' for Inactive)
REMARK    1  A    between atoms: C1_1  and  N2_2
REMARK    2  A    between atoms: N2_2  and  C3_3
REMARK    3  A    between atoms: N2_2  and  C4_4
REMARK    4  A    between atoms: C4_4  and  C5_5
REMARK    5  A    between atoms: C5_5  and  C6_6
REMARK    6  A    between atoms: C6_6  and  C8_7
REMARK    7  A    between atoms: C6_6  and  N14_13
REMARK    8  A    between atoms: C16_15  and  N19_18
REMARK    9  A    between atoms: C20_19  and  C22_21
REMARK   10  A    between atoms: C26_25  and  C32_30
REMARK                            x       y       z     vdW  Elec       q    Type
REMARK                         _______ _______ _______ _____ _____    ______ ____
ROOT
ATOM     11  N   UNL     1     -14.997 -23.905  55.096  0.00  0.00    -0.253 N 
ATOM     12  H   UNL     1     -14.930 -23.660  54.129  0.00  0.00    +0.212 HD
ATOM     13  C   UNL     1     -16.205 -23.799  55.711  0.00  0.00    +0.231 C 
ATOM     30  O   UNL     1     -16.344 -24.107  56.891  0.00  0.00    -0.380 OA
ENDROOT
BRANCH  13  14
ATOM     14  C   UNL     1     -17.396 -23.382  54.944  0.00  0.00    +0.136 A 
ATOM     15  N   UNL     1     -17.486 -23.184  53.643  0.00  0.00    -0.179 NA
ATOM     16  N   UNL     1     -18.686 -22.870  53.290  0.00  0.00    -0.207 N 
ATOM     17  H   UNL     1     -18.971 -22.666  52.322  0.00  0.00    +0.249 HD
ATOM     18  C   UNL     1     -19.537 -22.842  54.370  0.00  0.00    +0.087 A 
ATOM     19  C   UNL     1     -20.898 -22.571  54.557  0.00  0.00    +0.015 A 
ATOM     20  C   UNL     1     -21.455 -22.666  55.844  0.00  0.00    -0.043 A 
ATOM     27  C   UNL     1     -20.639 -22.968  56.950  0.00  0.00    -0.020 A 
ATOM     28  C   UNL     1     -19.309 -23.216  56.776  0.00  0.00    -0.007 A 
ATOM     29  C   UNL     1     -18.746 -23.174  55.495  0.00  0.00    +0.024 A 
BRANCH  20  21
ATOM     21  C   UNL     1     -22.887 -22.321  56.077  0.00  0.00    -0.002 A 
ATOM     22  C   UNL     1     -23.674 -21.457  55.283  0.00  0.00    +0.165 A 
ATOM     23  N   UNL     1     -24.858 -21.357  55.822  0.00  0.00    -0.217 N 
ATOM     24  H   UNL     1     -25.645 -20.801  55.458  0.00  0.00    +0.260 HD
ATOM     25  N   UNL     1     -24.870 -22.136  56.979  0.00  0.00    -0.216 NA
ATOM     26  C   UNL     1     -23.665 -22.718  57.124  0.00  0.00    +0.073 A 
ENDBRANCH  20  21
ENDBRANCH  13  14
BRANCH  11  10
ATOM      7  N   UNL     1     -11.758 -24.892  56.220  0.00  0.00    -0.208 N 
ATOM      8  N   UNL     1     -12.534 -25.099  57.368  0.00  0.00    -0.223 NA
ATOM      9  C   UNL     1     -13.757 -24.768  57.101  0.00  0.00    +0.082 A 
ATOM     10  C   UNL     1     -13.828 -24.347  55.766  0.00  0.00    +0.074 A 
ATOM     31  C   UNL     1     -12.587 -24.480  55.228  0.00  0.00    +0.139 A 
BRANCH   7   6
ATOM      6  C   UNL     1     -10.332 -25.224  56.106  0.00  0.00    +0.198 C 
BRANCH   6  32
ATOM     32  C   UNL     1     -10.286 -26.604  55.465  0.00  0.00    -0.009 A 
ATOM     33  C   UNL     1     -10.786 -27.740  56.120  0.00  0.00    -0.001 A 
ATOM     34  C   UNL     1     -10.779 -28.984  55.497  0.00  0.00    -0.009 A 
ATOM     35  C   UNL     1     -10.302 -29.103  54.193  0.00  0.00    -0.013 A 
ATOM     36  C   UNL     1      -9.834 -27.977  53.522  0.00  0.00    -0.009 A 
ATOM     37  C   UNL     1      -9.830 -26.731  54.154  0.00  0.00    -0.001 A 
ENDBRANCH   6  32
BRANCH   6   5
ATOM      5  C   UNL     1      -9.744 -25.239  57.529  0.00  0.00    +0.103 C 
BRANCH   5   4
ATOM      4  C   UNL     1      -8.361 -24.591  57.627  0.00  0.00    +0.136 C 
BRANCH   4   2
ATOM      1  C   UNL     1      -7.843 -24.064  59.967  0.00  0.00    +0.190 C 
ATOM      2  N   UNL     1      -8.384 -23.574  58.688  0.00  0.00    +0.231 N 
ATOM      3  H   UNL     1      -9.350 -23.336  58.850  0.00  0.00    +0.203 HD
ATOM     38  C   UNL     1      -7.697 -22.351  58.245  0.00  0.00    +0.190 C 
ENDBRANCH   4   2
ENDBRANCH   5   4
ENDBRANCH   6   5
ENDBRANCH   7   6
ENDBRANCH  11  10
TORSDOF 8
