REMARK  Name = 3fpm_ligand
REMARK  4 active torsions:
REMARK  status: ('A' for Active; 'I' for Inactive)
REMARK    1  A    between atoms: C1_1  and  C2_2
REMARK    2  A    between atoms: C2_2  and  C3_3
REMARK    3  A    between atoms: C2_2  and  N1_16
REMARK    4  A    between atoms: C13_9  and  N2_21
REMARK                            x       y       z     vdW  Elec       q    Type
REMARK                         _______ _______ _______ _____ _____    ______ ____
ROOT
ATOM      3  N   UNL     1     233.024  78.816 185.567  0.00  0.00    -0.272 NA
ATOM      4  C   UNL     1     232.735  79.959 184.990  0.00  0.00    +0.183 C 
ATOM      5  C   UNL     1     233.399  81.033 184.448  0.00  0.00    +0.191 C 
ATOM      6  N   UNL     1     234.619  81.472 184.225  0.00  0.00    -0.232 NA
ATOM     13  C   UNL     1     232.127  81.697 184.111  0.00  0.00    +0.277 C 
ATOM     14  O   UNL     1     231.685  82.696 183.608  0.00  0.00    -0.323 OA
ATOM     15  C   UNL     1     231.424  80.554 184.687  0.00  0.00    +0.278 C 
ATOM     16  O   UNL     1     230.245  80.347 184.786  0.00  0.00    -0.320 OA
ENDROOT
BRANCH   6   7
ATOM      7  C   UNL     1     235.163  82.674 183.703  0.00  0.00    +0.074 A 
ATOM      8  C   UNL     1     236.532  82.669 183.379  0.00  0.00    +0.066 A 
ATOM      9  C   UNL     1     237.112  83.826 182.870  0.00  0.00    +0.098 A 
ATOM     10  N   UNL     1     236.435  84.979 182.664  0.00  0.00    -0.295 NA
ATOM     11  C   UNL     1     235.120  84.972 182.980  0.00  0.00    +0.098 A 
ATOM     12  C   UNL     1     234.452  83.865 183.495  0.00  0.00    +0.066 A 
ENDBRANCH   6   7
BRANCH   3   2
ATOM      1  C   UNL     1     232.738  76.944 187.131  0.00  0.00    +0.043 C 
ATOM      2  C   UNL     1     232.057  77.862 186.111  0.00  0.00    +0.131 C 
BRANCH   2  17
ATOM     17  C   UNL     1     231.381  77.105 184.976  0.00  0.00    -0.024 A 
ATOM     18  C   UNL     1     232.154  76.489 183.970  0.00  0.00    -0.003 A 
ATOM     19  C   UNL     1     231.540  75.791 182.921  0.00  0.00    -0.009 A 
ATOM     20  C   UNL     1     230.146  75.699 182.862  0.00  0.00    -0.013 A 
ATOM     21  C   UNL     1     229.367  76.304 183.851  0.00  0.00    -0.009 A 
ATOM     22  C   UNL     1     229.979  77.003 184.899  0.00  0.00    -0.003 A 
ENDBRANCH   2  17
ENDBRANCH   3   2
TORSDOF 3
