REMARK  Name = 5L2W
REMARK  9 active torsions:
REMARK  status: ('A' for Active; 'I' for Inactive)
REMARK    1  A    between atoms: N_2  and  C_3
REMARK    2  A    between atoms: C_3  and  C_20
REMARK    3  A    between atoms: C_8  and  C_28
REMARK    4  A    between atoms: C_9  and  C_28
REMARK    5  A    between atoms: C_9  and  O_29
REMARK    6  A    between atoms: C_10  and  C_11
REMARK    7  A    between atoms: C_11  and  C_12
REMARK    8  A    between atoms: C_18  and  N_25
REMARK    9  A    between atoms: N_22  and  O_24
REMARK                            x       y       z     vdW  Elec       q    Type
REMARK                         _______ _______ _______ _____ _____    ______ ____
ROOT
ATOM      1  C   UNL     1      34.998  24.821  -7.141  0.00  0.00    +0.091 C 
ATOM      2  C   UNL     1      36.108  25.086  -7.920  0.00  0.00    +0.153 C 
ATOM      3  N   UNL     1      36.783  24.027  -8.475  0.00  0.00    -0.219 N 
ATOM      4  C   UNL     1      36.369  22.745  -8.202  0.00  0.00    +0.161 C 
ATOM      5  N   UNL     1      35.306  22.477  -7.423  0.00  0.00    -0.213 NA
ATOM      6  C   UNL     1      37.203  21.904  -8.929  0.00  0.00    +0.014 C 
ATOM      7  C   UNL     1      38.073  22.764  -9.613  0.00  0.00    +0.109 C 
ATOM     10  N   UNL     1      37.845  24.043  -9.352  0.00  0.00    -0.297 NA
ATOM     11  H   UNL     1      38.367  24.895  -9.735  0.00  0.00    +0.187 HD
ATOM     12  N   UNL     1      36.606  26.324  -8.178  0.00  0.00    -0.261 NA
ATOM     22  C   UNL     1      34.600  23.477  -6.916  0.00  0.00    +0.127 C 
ENDROOT
BRANCH  22  23
ATOM     23  N   UNL     1      33.434  23.110  -6.261  0.00  0.00    -0.312 NA
ATOM     24  C   UNL     1      33.094  21.688  -6.042  0.00  0.00    +0.077 C 
ATOM     29  C   UNL     1      32.724  21.459  -4.581  0.00  0.00    +0.022 C 
ATOM     30  C   UNL     1      31.676  22.465  -4.100  0.00  0.00    +0.003 C 
ATOM     31  C   UNL     1      32.135  23.903  -4.322  0.00  0.00    +0.019 C 
ATOM     32  C   UNL     1      32.502  24.142  -5.777  0.00  0.00    +0.107 C 
BRANCH  24  25
ATOM     25  C   UNL     1      32.018  21.146  -6.989  0.00  0.00    +0.050 C 
BRANCH  25  26
ATOM     26  C   UNL     1      32.357  21.233  -8.461  0.00  0.00    +0.158 C 
BRANCH  26  27
ATOM     27  O   UNL     1      33.362  20.287  -8.825  0.00  0.00    -0.395 OA
ATOM     28  H   UNL     1      34.235  20.473  -8.272  0.00  0.00    +0.209 HD
ENDBRANCH  26  27
ENDBRANCH  25  26
ENDBRANCH  24  25
ENDBRANCH  22  23
BRANCH   6   8
ATOM      8  C   UNL     1      37.161  20.395  -8.971  0.00  0.00    +0.037 C 
ATOM      9  C   UNL     1      36.776  19.841 -10.299  0.00  0.00    +0.009 C 
ENDBRANCH   6   8
BRANCH  12  13
ATOM     13  C   UNL     1      36.022  27.557  -7.702  0.00  0.00    +0.176 C 
BRANCH  13  14
ATOM     14  C   UNL     1      36.679  28.052  -6.468  0.00  0.00    -0.027 C 
ATOM     15  C   UNL     1      35.810  28.837  -5.515  0.00  0.00    +0.180 C 
ATOM     16  N   UNL     1      36.423  29.123  -4.209  0.00  0.00    -0.259 N 
ATOM     19  C   UNL     1      37.725  28.852  -3.994  0.00  0.00    +0.111 C 
ATOM     20  C   UNL     1      38.494  28.207  -4.897  0.00  0.00    +0.020 C 
ATOM     21  C   UNL     1      37.953  27.800  -6.142  0.00  0.00    +0.004 C 
BRANCH  16  17
ATOM     17  O   UNL     1      35.614  28.509  -3.205  0.00  0.00    -0.287 OA
ATOM     18  H   UNL     1      35.755  27.469  -3.229  0.00  0.00    +0.244 HD
ENDBRANCH  16  17
ENDBRANCH  13  14
ENDBRANCH  12  13
TORSDOF 8
