REMARK  Name = 3hdn_ligand
REMARK  4 active torsions:
REMARK  status: ('A' for Active; 'I' for Inactive)
REMARK    1  A    between atoms: C15_8  and  C16_21
REMARK    2  A    between atoms: C15_8  and  C25_25
REMARK    3  A    between atoms: C20_10  and  C21_11
REMARK    4  A    between atoms: C18_22  and  C23_24
REMARK                            x       y       z     vdW  Elec       q    Type
REMARK                         _______ _______ _______ _____ _____    ______ ____
ROOT
ATOM      5  C   UNL     1      37.967  30.869  68.256  0.00  0.00    -0.006 A 
ATOM      6  C   UNL     1      38.940  31.191  69.179  0.00  0.00    +0.080 A 
ATOM      7  N   UNL     1      38.887  32.131  70.122  0.00  0.00    -0.283 NA
ATOM      8  C   UNL     1      37.725  32.779  70.087  0.00  0.00    +0.140 A 
ATOM      9  N   UNL     1      37.402  33.793  70.937  0.00  0.00    -0.261 N 
ATOM     10  H   UNL     1      38.013  34.158  71.682  0.00  0.00    +0.234 HD
ATOM     11  C   UNL     1      36.151  34.252  70.656  0.00  0.00    +0.143 A 
ATOM     12  C   UNL     1      35.660  33.520  69.597  0.00  0.00    -0.008 A 
ATOM     23  C   UNL     1      36.661  32.576  69.228  0.00  0.00    +0.012 A 
ATOM     24  C   UNL     1      36.781  31.579  68.271  0.00  0.00    +0.023 A 
ENDROOT
BRANCH   5   4
ATOM      1  C   UNL     1      40.652  27.101  66.840  0.00  0.00    +0.008 A 
ATOM      2  C   UNL     1      39.570  27.928  66.619  0.00  0.00    -0.018 A 
ATOM      3  C   UNL     1      39.293  28.951  67.498  0.00  0.00    +0.014 A 
ATOM      4  C   UNL     1      38.219  29.798  67.307  0.00  0.00    -0.018 A 
ATOM     25  C   UNL     1      37.421  29.588  66.199  0.00  0.00    +0.008 A 
ATOM     26  C   UNL     1      37.687  28.570  65.308  0.00  0.00    +0.008 A 
ATOM     27  C   UNL     1      38.764  27.736  65.516  0.00  0.00    -0.018 A 
ATOM     28  C   UNL     1      39.039  26.713  64.634  0.00  0.00    +0.008 A 
ATOM     29  C   UNL     1      40.120  25.886  64.857  0.00  0.00    +0.000 A 
ATOM     30  C   UNL     1      40.926  26.079  65.958  0.00  0.00    +0.000 A 
ENDBRANCH   5   4
BRANCH  12  13
ATOM     13  C   UNL     1      34.336  33.780  69.080  0.00  0.00    -0.044 A 
ATOM     14  C   UNL     1      33.636  34.876  69.543  0.00  0.00    -0.014 A 
ATOM     15  C   UNL     1      32.366  35.141  69.083  0.00  0.00    -0.009 A 
ATOM     16  C   UNL     1      31.784  34.305  68.155  0.00  0.00    -0.035 A 
ATOM     21  C   UNL     1      32.478  33.209  67.689  0.00  0.00    -0.009 A 
ATOM     22  C   UNL     1      33.751  32.946  68.149  0.00  0.00    -0.014 A 
BRANCH  16  17
ATOM     17  C   UNL     1      30.411  34.581  67.655  0.00  0.00    +0.147 C 
BRANCH  17  18
ATOM     18  C   UNL     1      30.405  35.760  66.737  0.00  0.00    +0.046 C 
ATOM     19  O   UNL     1      31.327  36.091  66.004  0.00  0.00    -0.567 OA
ATOM     20  O   UNL     1      29.222  36.416  66.831  0.00  0.00    -0.567 OA
ENDBRANCH  17  18
ENDBRANCH  16  17
ENDBRANCH  12  13
TORSDOF 4
