REMARK  Name = 2XIR
REMARK  9 active torsions:
REMARK  status: ('A' for Active; 'I' for Inactive)
REMARK    1  A    between atoms: C_2  and  C_5
REMARK    2  A    between atoms: N_3  and  C_4
REMARK    3  A    between atoms: C_10  and  C_11
REMARK    4  A    between atoms: C_13  and  O_15
REMARK    5  A    between atoms: O_15  and  C_16
REMARK    6  A    between atoms: C_24  and  O_26
REMARK    7  A    between atoms: O_26  and  C_27
REMARK    8  A    between atoms: C_27  and  C_28
REMARK    9  A    between atoms: C_28  and  N_29
REMARK                            x       y       z     vdW  Elec       q    Type
REMARK                         _______ _______ _______ _____ _____    ______ ____
ROOT
ATOM     11  C   UNL     1      19.598  26.057  40.119  0.00  0.00    +0.139 A 
ATOM     12  C   UNL     1      18.357  26.549  40.509  0.00  0.00    +0.043 A 
ATOM     13  C   UNL     1      18.204  27.921  40.734  0.00  0.00    +0.078 A 
ATOM     14  C   UNL     1      16.962  28.419  41.123  0.00  0.00    +0.074 A 
ATOM     15  C   UNL     1      15.886  27.544  41.292  0.00  0.00    +0.123 A 
ATOM     25  C   UNL     1      16.049  26.178  41.067  0.00  0.00    +0.046 A 
ATOM     26  N   UNL     1      19.249  28.769  40.568  0.00  0.00    -0.255 NA
ATOM     27  C   UNL     1      20.452  28.317  40.185  0.00  0.00    +0.115 A 
ATOM     28  C   UNL     1      17.285  25.675  40.675  0.00  0.00    +0.017 A 
ATOM     29  C   UNL     1      20.652  26.958  39.953  0.00  0.00    +0.066 A 
ENDROOT
BRANCH  11  10
ATOM     10  O   UNL     1      19.757  24.707  39.902  0.00  0.00    -0.455 OA
BRANCH  10   9
ATOM      3  C   UNL     1      24.462  22.914  37.744  0.00  0.00    +0.085 A 
ATOM      4  C   UNL     1      25.244  22.858  39.005  0.00  0.00    +0.115 A 
ATOM      5  C   UNL     1      26.643  22.477  39.381  0.00  0.00    +0.087 C 
ATOM      6  O   UNL     1      24.412  23.266  40.004  0.00  0.00    -0.459 OA
ATOM      7  C   UNL     1      23.165  23.561  39.396  0.00  0.00    +0.139 A 
ATOM      8  C   UNL     1      22.036  24.012  40.055  0.00  0.00    +0.093 A 
ATOM      9  C   UNL     1      20.891  24.250  39.292  0.00  0.00    +0.132 A 
ATOM     30  C   UNL     1      20.888  24.048  37.909  0.00  0.00    +0.047 A 
ATOM     31  C   UNL     1      22.035  23.598  37.259  0.00  0.00    +0.016 A 
ATOM     32  C   UNL     1      23.167  23.359  38.025  0.00  0.00    +0.033 A 
BRANCH   3   2
ATOM      1  O   UNL     1      24.139  22.726  35.436  0.00  0.00    -0.270 OA
ATOM      2  C   UNL     1      24.911  22.583  36.360  0.00  0.00    +0.248 C 
ATOM     33  N   UNL     1      26.146  22.149  36.135  0.00  0.00    -0.314 N 
ATOM     34  H   UNL     1      26.791  22.049  36.983  0.00  0.00    +0.149 HD
ATOM     35  C   UNL     1      26.699  21.798  34.834  0.00  0.00    +0.128 C 
ENDBRANCH   3   2
ENDBRANCH  10   9
ENDBRANCH  11  10
BRANCH  15  16
ATOM     16  O   UNL     1      14.654  28.007  41.680  0.00  0.00    -0.491 OA
BRANCH  16  17
ATOM     17  C   UNL     1      14.480  29.338  42.165  0.00  0.00    +0.244 C 
BRANCH  17  18
ATOM     18  C   UNL     1      13.226  29.410  43.035  0.00  0.00    +0.125 C 
BRANCH  18  19
ATOM     19  N   UNL     1      12.028  29.018  42.275  0.00  0.00    -0.295 NA
ATOM     20  C   UNL     1      10.979  28.613  43.230  0.00  0.00    +0.112 C 
ATOM     21  C   UNL     1       9.691  28.270  42.482  0.00  0.00    +0.175 C 
ATOM     22  O   UNL     1       9.293  29.384  41.675  0.00  0.00    -0.377 OA
ATOM     23  C   UNL     1      10.282  29.760  40.711  0.00  0.00    +0.175 C 
ATOM     24  C   UNL     1      11.569  30.146  41.438  0.00  0.00    +0.112 C 
ENDBRANCH  18  19
ENDBRANCH  17  18
ENDBRANCH  16  17
ENDBRANCH  15  16
TORSDOF 7
