REMARK  Name = 2pzy_ligand
REMARK  8 active torsions:
REMARK  status: ('A' for Active; 'I' for Inactive)
REMARK    1  A    between atoms: C01_1  and  C15_15
REMARK    2  A    between atoms: C10_10  and  C31_31
REMARK    3  A    between atoms: C21_21  and  C23_23
REMARK    4  A    between atoms: N24_24  and  C26_26
REMARK    5  A    between atoms: C26_26  and  C27_27
REMARK    6  A    between atoms: C27_27  and  N28_28
REMARK    7  A    between atoms: N28_28  and  C29_29
REMARK    8  A    between atoms: N28_28  and  C30_30
REMARK                            x       y       z     vdW  Elec       q    Type
REMARK                         _______ _______ _______ _____ _____    ______ ____
ROOT
ATOM      2  C   UNL     1      35.622 -30.394 -20.367  0.00  0.00    +0.235 C 
ATOM      3  N   UNL     1      36.016 -29.626 -21.419  0.00  0.00    -0.195 N 
ATOM      4  H   UNL     1      37.001 -29.560 -21.579  0.00  0.00    +0.240 HD
ATOM      5  C   UNL     1      35.142 -28.877 -22.354  0.00  0.00    +0.209 A 
ATOM      6  N   UNL     1      35.539 -27.869 -23.191  0.00  0.00    -0.306 NA
ATOM      7  C   UNL     1      34.554 -27.321 -23.971  0.00  0.00    +0.067 A 
ATOM     18  C   UNL     1      33.319 -27.962 -23.705  0.00  0.00    +0.093 A 
ATOM     19  S   UNL     1      33.471 -29.176 -22.527  0.00  0.00    +0.025 S 
ATOM     20  O   UNL     1      34.454 -30.576 -20.047  0.00  0.00    -0.373 OA
ENDROOT
BRANCH   2   1
ATOM      1  C   UNL     1      36.687 -31.027 -19.588  0.00  0.00    +0.044 A 
ATOM     21  C   UNL     1      36.492 -32.224 -18.854  0.00  0.00    +0.005 A 
ATOM     22  C   UNL     1      37.560 -32.786 -18.122  0.00  0.00    +0.019 A 
ATOM     23  C   UNL     1      38.806 -32.172 -18.114  0.00  0.00    +0.069 A 
ATOM     24  N   UNL     1      39.994 -32.498 -17.504  0.00  0.00    -0.274 N 
ATOM     25  H   UNL     1      40.141 -33.326 -16.909  0.00  0.00    +0.222 HD
ATOM     26  C   UNL     1      40.935 -31.586 -17.793  0.00  0.00    +0.129 A 
ATOM     27  C   UNL     1      42.234 -31.620 -17.350  0.00  0.00    +0.216 C 
ATOM     28  O   UNL     1      42.666 -32.644 -16.850  0.00  0.00    -0.392 OA
ATOM     29  N   UNL     1      42.973 -30.485 -17.507  0.00  0.00    -0.286 N 
ATOM     30  H   UNL     1      43.919 -30.511 -17.184  0.00  0.00    +0.184 HD
ATOM     31  C   UNL     1      42.499 -29.207 -18.117  0.00  0.00    +0.147 C 
ATOM     32  C   UNL     1      41.293 -29.402 -19.104  0.00  0.00    +0.044 C 
ATOM     33  C   UNL     1      40.532 -28.065 -19.155  0.00  0.00    +0.021 C 
ATOM     34  C   UNL     1      40.418 -30.586 -18.620  0.00  0.00    -0.013 A 
ATOM     35  C   UNL     1      39.025 -30.955 -18.846  0.00  0.00    -0.003 A 
ATOM     36  C   UNL     1      37.971 -30.404 -19.570  0.00  0.00    +0.015 A 
ENDBRANCH   2   1
BRANCH   7   8
ATOM      8  C   UNL     1      34.780 -26.278 -24.888  0.00  0.00    +0.195 C 
ATOM      9  O   UNL     1      33.833 -25.637 -25.372  0.00  0.00    -0.393 OA
ATOM     10  N   UNL     1      36.093 -26.035 -25.197  0.00  0.00    -0.283 N 
ATOM     11  H   UNL     1      36.807 -26.589 -24.770  0.00  0.00    +0.184 HD
BRANCH  10  12
ATOM     12  C   UNL     1      36.475 -24.970 -26.150  0.00  0.00    +0.184 C 
BRANCH  12  13
ATOM     13  C   UNL     1      38.018 -24.725 -26.213  0.00  0.00    +0.155 C 
BRANCH  13  14
ATOM     14  N   UNL     1      38.631 -24.528 -27.578  0.00  0.00    +0.232 N 
ATOM     15  H   UNL     1      38.812 -25.442 -27.962  0.00  0.00    +0.203 HD
ATOM     16  C   UNL     1      37.742 -23.798 -28.529  0.00  0.00    +0.190 C 
ATOM     17  C   UNL     1      39.908 -23.801 -27.484  0.00  0.00    +0.190 C 
ENDBRANCH  13  14
ENDBRANCH  12  13
ENDBRANCH  10  12
ENDBRANCH   7   8
TORSDOF 5
