REMARK  Name = 2xez_ligand
REMARK  2 active torsions:
REMARK  status: ('A' for Active; 'I' for Inactive)
REMARK    1  A    between atoms: CAN_5  and  CAP_6
REMARK    2  A    between atoms: CAQ_14  and  CAO_15
REMARK                            x       y       z     vdW  Elec       q    Type
REMARK                         _______ _______ _______ _____ _____    ______ ____
ROOT
ATOM      3  C   UNL     1      13.530  -1.628  11.078  0.00  0.00    +0.064 A 
ATOM      4  N   UNL     1      12.950  -0.588  10.466  0.00  0.00    -0.292 NA
ATOM      5  C   UNL     1      13.644   0.250   9.717  0.00  0.00    +0.163 A 
ATOM      6  C   UNL     1      15.011   0.079   9.548  0.00  0.00    +0.172 A 
ATOM      7  N   UNL     1      15.946   0.746   8.875  0.00  0.00    -0.320 NA
ATOM      8  C   UNL     1      17.127   0.151   9.052  0.00  0.00    +0.053 A 
ATOM      9  C   UNL     1      16.957  -0.904   9.838  0.00  0.00    +0.130 A 
ATOM     16  N   UNL     1      15.629  -0.982  10.173  0.00  0.00    -0.192 N 
ATOM     17  C   UNL     1      14.889  -1.850  10.950  0.00  0.00    +0.210 A 
ENDROOT
BRANCH   3   2
ATOM      1  C   UNL     1      13.221  -3.550  12.507  0.00  0.00    +0.072 A 
ATOM      2  C   UNL     1      12.776  -2.492  11.855  0.00  0.00    +0.012 A 
ATOM     18  C   UNL     1      11.478  -2.421  12.090  0.00  0.00    +0.159 A 
ATOM     19  N   UNL     1      11.167  -3.441  12.879  0.00  0.00    -0.219 N 
ATOM     20  H   UNL     1      10.233  -3.650  13.231  0.00  0.00    +0.259 HD
ATOM     21  N   UNL     1      12.180  -4.097  13.121  0.00  0.00    -0.217 NA
ENDBRANCH   3   2
BRANCH   9  10
ATOM     10  C   UNL     1      17.876  -1.816  10.316  0.00  0.00    +0.105 A 
ATOM     11  N   UNL     1      19.176  -1.831  10.076  0.00  0.00    -0.220 N 
ATOM     12  H   UNL     1      19.674  -1.166   9.485  0.00  0.00    +0.251 HD
ATOM     13  N   UNL     1      19.689  -2.771  10.676  0.00  0.00    -0.228 NA
ATOM     14  C   UNL     1      18.757  -3.431  11.348  0.00  0.00    +0.053 A 
ATOM     15  C   UNL     1      17.607  -2.823  11.124  0.00  0.00    -0.015 A 
ENDBRANCH   9  10
TORSDOF 2
