REMARK  Name = 3h9f_ligand
REMARK  7 active torsions:
REMARK  status: ('A' for Active; 'I' for Inactive)
REMARK    1  A    between atoms: CAV_8  and  OAW_9
REMARK    2  A    between atoms: NAS_12  and  CAR_13
REMARK    3  A    between atoms: CBA_15  and  OBB_16
REMARK    4  A    between atoms: OBB_16  and  CBC_17
REMARK    5  A    between atoms: CAO_20  and  NAN_21
REMARK    6  A    between atoms: NBG_23  and  CBH_24
REMARK    7  A    between atoms: NAE_29  and  CAF_30
REMARK                            x       y       z     vdW  Elec       q    Type
REMARK                         _______ _______ _______ _____ _____    ______ ____
ROOT
ATOM      1  C   UNL     1       1.609  20.611  45.904  0.00  0.00    +0.143 A 
ATOM      2  N   UNL     1       2.055  19.514  45.292  0.00  0.00    -0.288 N 
ATOM      8  C   UNL     1       2.603  19.457  43.937  0.00  0.00    +0.157 C 
ATOM      9  C   UNL     1       2.074  20.629  43.108  0.00  0.00    +0.168 C 
ATOM     10  C   UNL     1       2.832  21.859  43.487  0.00  0.00    +0.204 C 
ATOM     11  O   UNL     1       3.615  22.374  42.677  0.00  0.00    -0.387 OA
ATOM     12  N   UNL     1       2.678  22.416  44.683  0.00  0.00    -0.223 N 
ATOM     13  C   UNL     1       3.469  23.624  44.978  0.00  0.00    +0.205 C 
ATOM     14  N   UNL     1       0.764  20.312  46.893  0.00  0.00    -0.253 NA
ATOM     15  C   UNL     1       0.197  21.274  47.616  0.00  0.00    +0.174 A 
ATOM     16  N   UNL     1      -0.622  20.975  48.621  0.00  0.00    -0.263 N 
ATOM     17  H   UNL     1      -1.179  21.727  49.027  0.00  0.00    +0.207 HD
ATOM     34  N   UNL     1       0.448  22.569  47.345  0.00  0.00    -0.289 NA
ATOM     35  C   UNL     1       1.269  22.926  46.381  0.00  0.00    +0.089 A 
ATOM     36  C   UNL     1       1.879  21.936  45.624  0.00  0.00    +0.127 A 
ENDROOT
BRANCH  16  18
ATOM     18  C   UNL     1      -0.757  19.748  49.128  0.00  0.00    +0.080 A 
ATOM     19  C   UNL     1      -0.954  18.640  48.317  0.00  0.00    -0.011 A 
ATOM     20  C   UNL     1      -1.122  17.380  48.897  0.00  0.00    -0.025 A 
ATOM     21  C   UNL     1      -1.128  17.214  50.281  0.00  0.00    +0.020 A 
ATOM     22  C   UNL     1      -0.955  18.330  51.102  0.00  0.00    +0.016 A 
ATOM     31  C   UNL     1      -0.765  19.586  50.515  0.00  0.00    +0.104 A 
BRANCH  21  23
ATOM     23  N   UNL     1      -1.291  15.940  50.822  0.00  0.00    -0.317 N 
ATOM     24  C   UNL     1      -1.233  14.757  49.932  0.00  0.00    +0.129 C 
ATOM     25  C   UNL     1      -2.145  13.624  50.430  0.00  0.00    +0.054 C 
ATOM     26  C   UNL     1      -1.918  13.292  51.924  0.00  0.00    +0.118 C 
ATOM     29  C   UNL     1      -0.951  14.324  52.550  0.00  0.00    +0.054 C 
ATOM     30  C   UNL     1      -1.492  15.729  52.268  0.00  0.00    +0.129 C 
BRANCH  26  27
ATOM     27  O   UNL     1      -1.423  11.946  52.062  0.00  0.00    -0.392 OA
ATOM     28  H   UNL     1      -2.047  11.335  51.664  0.00  0.00    +0.210 HD
ENDBRANCH  26  27
ENDBRANCH  21  23
BRANCH  31  32
ATOM     32  O   UNL     1      -0.574  20.693  51.257  0.00  0.00    -0.328 OA
ATOM     33  C   UNL     1      -0.649  20.483  52.649  0.00  0.00    +0.229 C 
ENDBRANCH  31  32
ENDBRANCH  16  18
BRANCH   2   3
ATOM      3  C   UNL     1       1.830  18.195  45.935  0.00  0.00    +0.097 C 
ATOM      4  C   UNL     1       0.785  17.487  45.130  0.00  0.00    +0.028 C 
ATOM      5  C   UNL     1       1.141  15.993  45.152  0.00  0.00    +0.002 C 
ATOM      6  C   UNL     1       2.532  15.876  45.736  0.00  0.00    +0.002 C 
ATOM      7  C   UNL     1       3.062  17.288  45.828  0.00  0.00    +0.028 C 
ENDBRANCH   2   3
TORSDOF 5
