REMARK  Name = 4nk9_ligand
REMARK  11 active torsions:
REMARK  status: ('A' for Active; 'I' for Inactive)
REMARK    1  A    between atoms: C21_1  and  O2_2
REMARK    2  A    between atoms: O2_2  and  C16_3
REMARK    3  A    between atoms: C18_6  and  O1_7
REMARK    4  A    between atoms: O1_7  and  C20_8
REMARK    5  A    between atoms: C14_10  and  C13_11
REMARK    6  A    between atoms: C13_11  and  C12_12
REMARK    7  A    between atoms: C12_12  and  C11_13
REMARK    8  A    between atoms: N4_18  and  C8_19
REMARK    9  A    between atoms: N1_25  and  C4_26
REMARK   10  A    between atoms: C4_26  and  C3_27
REMARK   11  A    between atoms: C1_31  and  C_32
REMARK                            x       y       z     vdW  Elec       q    Type
REMARK                         _______ _______ _______ _____ _____    ______ ____
ROOT
ATOM     10  C   UNL     1      89.408   2.744  11.409  0.00  0.00    +0.061 A 
ATOM     11  N   UNL     1      89.502   1.405  11.267  0.00  0.00    -0.233 N 
ATOM     12  H   UNL     1      90.008   0.741  11.869  0.00  0.00    +0.245 HD
ATOM     13  N   UNL     1      88.783   1.133  10.158  0.00  0.00    -0.228 NA
ATOM     14  C   UNL     1      88.277   2.222   9.572  0.00  0.00    +0.097 A 
ATOM     15  N   UNL     1      87.472   2.205   8.434  0.00  0.00    -0.258 N 
ATOM     16  H   UNL     1      87.643   1.422   7.787  0.00  0.00    +0.213 HD
ATOM     32  C   UNL     1      88.658   3.289  10.349  0.00  0.00    -0.003 A 
ENDROOT
BRANCH  15  17
ATOM     17  C   UNL     1      86.470   3.090   8.041  0.00  0.00    +0.131 A 
ATOM     18  N   UNL     1      86.491   4.349   8.647  0.00  0.00    -0.239 NA
ATOM     19  C   UNL     1      85.516   5.221   8.296  0.00  0.00    +0.176 A 
ATOM     20  N   UNL     1      85.538   6.435   8.883  0.00  0.00    -0.276 N 
ATOM     21  H   UNL     1      84.834   7.121   8.576  0.00  0.00    +0.189 HD
ATOM     29  N   UNL     1      84.531   4.987   7.418  0.00  0.00    -0.273 NA
ATOM     30  C   UNL     1      84.526   3.733   6.849  0.00  0.00    +0.084 A 
ATOM     31  C   UNL     1      85.466   2.747   7.133  0.00  0.00    +0.054 A 
BRANCH  20  22
ATOM     22  C   UNL     1      86.479   6.859   9.920  0.00  0.00    +0.252 C 
BRANCH  22  23
ATOM     23  C   UNL     1      86.160   6.306  11.263  0.00  0.00    +0.154 A 
ATOM     24  O   UNL     1      86.645   6.973  12.360  0.00  0.00    -0.179 OA
ATOM     25  N   UNL     1      86.214   6.255  13.496  0.00  0.00    -0.174 NA
ATOM     26  C   UNL     1      85.529   5.246  13.059  0.00  0.00    +0.008 A 
ATOM     27  C   UNL     1      84.909   4.283  14.024  0.00  0.00    +0.083 C 
ATOM     28  C   UNL     1      85.468   5.231  11.662  0.00  0.00    -0.005 A 
ENDBRANCH  22  23
ENDBRANCH  20  22
ENDBRANCH  15  17
BRANCH  10   9
ATOM      9  C   UNL     1      90.044   3.441  12.542  0.00  0.00    +0.116 C 
BRANCH   9   8
ATOM      8  C   UNL     1      89.040   3.883  13.660  0.00  0.00    +0.079 C 
BRANCH   8   7
ATOM      3  C   UNL     1      90.030   2.704  17.166  0.00  0.00    +0.076 A 
ATOM      4  C   UNL     1      91.194   3.476  17.412  0.00  0.00    +0.028 A 
ATOM      5  C   UNL     1      91.605   4.394  16.432  0.00  0.00    +0.076 A 
ATOM      6  C   UNL     1      90.905   4.535  15.226  0.00  0.00    -0.004 A 
ATOM      7  C   UNL     1      89.753   3.756  14.990  0.00  0.00    -0.058 A 
ATOM     35  C   UNL     1      89.317   2.822  15.948  0.00  0.00    -0.004 A 
BRANCH   3   2
ATOM      1  C   UNL     1      89.826   1.894  19.454  0.00  0.00    +0.232 C 
ATOM      2  O   UNL     1      89.555   1.753  18.052  0.00  0.00    -0.326 OA
ENDBRANCH   3   2
BRANCH   5  33
ATOM     33  O   UNL     1      92.730   5.198  16.562  0.00  0.00    -0.326 OA
ATOM     34  C   UNL     1      93.244   5.505  17.864  0.00  0.00    +0.232 C 
ENDBRANCH   5  33
ENDBRANCH   8   7
ENDBRANCH   9   8
ENDBRANCH  10   9
TORSDOF 8
