REMARK  Name = H83
REMARK  14 active torsions:
REMARK  status: ('A' for Active; 'I' for Inactive)
REMARK    1  A    between atoms: C8_1  and  C11_4
REMARK    2  A    between atoms: C5_13  and  C4_14
REMARK    3  A    between atoms: C4_14  and  N1_15
REMARK    4  A    between atoms: N1_15  and  C3_16
REMARK    5  A    between atoms: C3_16  and  C2_17
REMARK    6  A    between atoms: C2_17  and  C1_18
REMARK    7  A    between atoms: C1_18  and  C_19
REMARK    8  A    between atoms: C8_21  and  C11_24
REMARK    9  A    between atoms: C5_33  and  C4_34
REMARK   10  A    between atoms: C4_34  and  N1_35
REMARK   11  A    between atoms: N1_35  and  C3_36
REMARK   12  A    between atoms: C3_36  and  C2_37
REMARK   13  A    between atoms: C2_37  and  C1_38
REMARK   14  A    between atoms: C1_38  and  C_39
REMARK                            x       y       z     vdW  Elec       q    Type
REMARK                         _______ _______ _______ _____ _____    ______ ____
ROOT
ATOM      1  C   UNL     1      14.392 118.696 372.098  0.00  0.00    +0.011 A 
ATOM      2  C   UNL     1      14.612 117.404 372.582  0.00  0.00    +0.001 A 
ATOM      3  C   UNL     1      13.608 116.711 373.240  0.00  0.00    -0.003 A 
ATOM      4  C   UNL     1      12.356 117.274 373.436  0.00  0.00    -0.004 A 
ATOM     12  C   UNL     1      12.135 118.571 372.981  0.00  0.00    +0.009 A 
ATOM     13  C   UNL     1      13.135 119.262 372.323  0.00  0.00    +0.057 A 
ATOM     14 CL   UNL     1      12.779 120.863 371.762  0.00  0.00    -0.082 Cl
ENDROOT
BRANCH   1  15
ATOM     15  C   UNL     1      15.502 119.361 371.359  0.00  0.00    +0.001 A 
ATOM     16  C   UNL     1      16.278 120.350 371.969  0.00  0.00    +0.000 A 
ATOM     17  C   UNL     1      17.373 120.897 371.315  0.00  0.00    +0.000 A 
ATOM     18  C   UNL     1      17.709 120.472 370.040  0.00  0.00    +0.000 A 
ATOM     19  C   UNL     1      16.951 119.494 369.421  0.00  0.00    +0.000 A 
ATOM     20  C   UNL     1      15.851 118.950 370.068  0.00  0.00    +0.000 A 
ENDBRANCH   1  15
BRANCH   4   5
ATOM      5  C   UNL     1      11.234 116.467 374.040  0.00  0.00    +0.115 C 
BRANCH   5   6
ATOM      6  N   UNL     1      11.345 116.341 375.488  0.00  0.00    -0.213 NA
BRANCH   6   7
ATOM      7  C   UNL     1      10.575 115.207 375.995  0.00  0.00    +0.089 C 
BRANCH   7   8
ATOM      8  C   UNL     1       9.530 115.624 377.014  0.00  0.00    +0.020 C 
BRANCH   8   9
ATOM      9  C   UNL     1       8.884 114.447 377.737  0.00  0.00    +0.022 C 
BRANCH   9  10
ATOM     10  C   UNL     1       9.879 113.590 378.508  0.00  0.00    +0.109 C 
ATOM     11  N   UNL     1       9.346 112.273 378.858  0.00  0.00    -0.131 NA
ENDBRANCH   9  10
ENDBRANCH   8   9
ENDBRANCH   7   8
ENDBRANCH   6   7
ENDBRANCH   5   6
ENDBRANCH   4   5
TORSDOF 7
