REMARK  Name = DZH
REMARK  7 active torsions:
REMARK  status: ('A' for Active; 'I' for Inactive)
REMARK    1  A    between atoms: C11_5  and  C12_10
REMARK    2  A    between atoms: C11_5  and  N2_13
REMARK    3  A    between atoms: C9_8  and  S1_19
REMARK    4  A    between atoms: N2_13  and  S1_19
REMARK    5  A    between atoms: N3_15  and  C18_25
REMARK    6  A    between atoms: C15_22  and  C18_25
REMARK    7  A    between atoms: N6_33  and  C24_36
REMARK                            x       y       z     vdW  Elec       q    Type
REMARK                         _______ _______ _______ _____ _____    ______ ____
ROOT
ATOM     12  C   UNL     1      56.375   0.004   4.493  0.00  0.00    -0.003 A 
ATOM     13  C   UNL     1      56.646  -0.432   5.783  0.00  0.00    -0.003 A 
ATOM     14  C   UNL     1      57.494   0.336   6.587  0.00  0.00    -0.003 A 
ATOM     15  C   UNL     1      58.142   1.478   6.127  0.00  0.00    +0.001 A 
ATOM     30  C   UNL     1      57.868   1.896   4.826  0.00  0.00    -0.003 A 
ATOM     31  C   UNL     1      57.023   1.136   4.027  0.00  0.00    -0.003 A 
ENDROOT
BRANCH  12  11
ATOM     11  C   UNL     1      55.394  -0.715   3.626  0.00  0.00    +0.142 C 
BRANCH  11  10
ATOM     10  N   UNL     1      55.829  -2.086   3.295  0.00  0.00    -0.073 NA
BRANCH  10   8
ATOM      8  S   UNL     1      54.671  -3.161   2.942  0.00  0.00    +0.077 S 
ATOM      9  O   UNL     1      53.808  -3.242   4.060  0.00  0.00    -0.152 OA
ATOM     32  O   UNL     1      55.381  -4.344   2.489  0.00  0.00    -0.152 OA
BRANCH   8   7
ATOM      1  C   UNL     1      50.303  -0.964  -1.797  0.00  0.00    +0.246 C 
ATOM      2  C   UNL     1      49.475  -1.632  -0.769  0.00  0.00    +0.087 C 
ATOM      3  C   UNL     1      49.412  -0.853   0.577  0.00  0.00    +0.014 C 
ATOM      4  C   UNL     1      50.771  -0.318   0.949  0.00  0.00    +0.028 C 
ATOM      5  C   UNL     1      51.889  -1.289   0.760  0.00  0.00    -0.005 A 
ATOM      6  C   UNL     1      52.622  -1.819   1.815  0.00  0.00    +0.017 A 
ATOM      7  C   UNL     1      53.725  -2.542   1.578  0.00  0.00    +0.123 A 
ATOM     33  C   UNL     1      54.164  -2.772   0.286  0.00  0.00    +0.021 A 
ATOM     34  C   UNL     1      53.453  -2.330  -0.746  0.00  0.00    +0.018 A 
ATOM     35  C   UNL     1      52.308  -1.586  -0.542  0.00  0.00    +0.070 A 
ATOM     36  N   UNL     1      51.613  -1.049  -1.648  0.00  0.00    -0.179 NA
ATOM     37  O   UNL     1      49.782  -0.450  -2.784  0.00  0.00    -0.273 OA
ENDBRANCH   8   7
ENDBRANCH  10   8
ENDBRANCH  11  10
ENDBRANCH  12  11
BRANCH  15  16
ATOM     16  C   UNL     1      59.081   2.270   7.005  0.00  0.00    +0.139 C 
BRANCH  16  17
ATOM     17  N   UNL     1      58.394   3.377   7.724  0.00  0.00    -0.259 N 
ATOM     18  C   UNL     1      57.838   3.237   8.980  0.00  0.00    +0.170 C 
ATOM     19  N   UNL     1      57.843   2.110   9.714  0.00  0.00    -0.206 NA
ATOM     20  C   UNL     1      57.175   2.469  10.818  0.00  0.00    +0.180 C 
ATOM     21  N   UNL     1      56.754   3.730  10.793  0.00  0.00    -0.304 NA
ATOM     24  C   UNL     1      57.183   4.259   9.592  0.00  0.00    +0.154 C 
ATOM     25  C   UNL     1      57.058   5.544   9.009  0.00  0.00    +0.302 C 
ATOM     26  O   UNL     1      56.475   6.532   9.470  0.00  0.00    -0.263 OA
ATOM     27  N   UNL     1      57.685   5.605   7.760  0.00  0.00    -0.152 NA
ATOM     28  C   UNL     1      58.345   4.594   7.091  0.00  0.00    +0.354 C 
ATOM     29  O   UNL     1      58.801   4.805   5.984  0.00  0.00    -0.244 OA
BRANCH  21  22
ATOM     22  C   UNL     1      55.855   4.391  11.771  0.00  0.00    +0.108 C 
ATOM     23  C   UNL     1      54.423   4.274  11.294  0.00  0.00    +0.026 C 
ENDBRANCH  21  22
ENDBRANCH  16  17
ENDBRANCH  15  16
TORSDOF 7
