REMARK  Name = 3tt0_ligand
REMARK  11 active torsions:
REMARK  status: ('A' for Active; 'I' for Inactive)
REMARK    1  A    between atoms: N3_3  and  C4_4
REMARK    2  A    between atoms: C7_7  and  O8_8
REMARK    3  A    between atoms: O8_8  and  C9_9
REMARK    4  A    between atoms: C11_11  and  O12_12
REMARK    5  A    between atoms: O12_12  and  C13_13
REMARK    6  A    between atoms: N16_16  and  C17_17
REMARK    7  A    between atoms: N16_16  and  C18_18
REMARK    8  A    between atoms: N24_24  and  C25_25
REMARK    9  A    between atoms: C28_28  and  N31_31
REMARK   10  A    between atoms: N34_34  and  C35_35
REMARK   11  A    between atoms: C35_35  and  C36_36
REMARK                            x       y       z     vdW  Elec       q    Type
REMARK                         _______ _______ _______ _____ _____    ______ ____
ROOT
ATOM      4  C   UNL     1     -16.684   9.855  13.161  0.00  0.00    +0.144 A 
ATOM      5  N   UNL     1     -15.779  10.766  13.543  0.00  0.00    -0.269 NA
ATOM      6  C   UNL     1     -16.262  11.813  14.219  0.00  0.00    +0.158 A 
ATOM      7  N   UNL     1     -17.534  12.048  14.560  0.00  0.00    -0.270 NA
ATOM      8  C   UNL     1     -18.423  11.123  14.177  0.00  0.00    +0.127 A 
ATOM      9  N   UNL     1     -19.772  11.354  14.509  0.00  0.00    -0.265 N 
ATOM     10  H   UNL     1     -20.012  12.319  14.735  0.00  0.00    +0.212 HD
ATOM     25  C   UNL     1     -18.024  10.012  13.461  0.00  0.00    +0.081 A 
ENDROOT
BRANCH   4   3
ATOM      1  O   UNL     1     -14.787   7.616  11.055  0.00  0.00    -0.377 OA
ATOM      2  C   UNL     1     -15.083   8.601  11.722  0.00  0.00    +0.327 C 
ATOM      3  N   UNL     1     -16.287   8.711  12.416  0.00  0.00    -0.183 N 
ATOM     26  C   UNL     1     -17.227   7.611  12.333  0.00  0.00    +0.219 C 
ATOM     27  N   UNL     1     -14.223   9.676  11.847  0.00  0.00    -0.216 N 
ATOM     28  H   UNL     1     -14.482  10.467  12.437  0.00  0.00    +0.227 HD
BRANCH  27  29
ATOM     29  C   UNL     1     -12.994   9.686  11.166  0.00  0.00    +0.079 A 
ATOM     30  C   UNL     1     -12.900  10.413   9.998  0.00  0.00    +0.075 A 
ATOM     31 CL   UNL     1     -14.267  11.294   9.452  0.00  0.00    -0.101 Cl
ATOM     32  C   UNL     1     -11.724  10.455   9.280  0.00  0.00    +0.084 A 
ATOM     35  C   UNL     1     -10.631   9.738   9.732  0.00  0.00    +0.016 A 
ATOM     36  C   UNL     1     -10.715   9.015  10.908  0.00  0.00    +0.084 A 
ATOM     39  C   UNL     1     -11.898   8.980  11.619  0.00  0.00    +0.075 A 
ATOM     40 CL   UNL     1     -11.972   8.068  13.081  0.00  0.00    -0.101 Cl
BRANCH  32  33
ATOM     33  O   UNL     1     -11.725  11.212   8.110  0.00  0.00    -0.326 OA
ATOM     34  C   UNL     1     -10.485  11.081   7.419  0.00  0.00    +0.233 C 
ENDBRANCH  32  33
BRANCH  36  37
ATOM     37  O   UNL     1      -9.661   8.271  11.425  0.00  0.00    -0.326 OA
ATOM     38  C   UNL     1      -8.548   8.295  10.540  0.00  0.00    +0.233 C 
ENDBRANCH  36  37
ENDBRANCH  27  29
ENDBRANCH   4   3
BRANCH   9  11
ATOM     11  C   UNL     1     -20.834  10.433  14.571  0.00  0.00    +0.051 A 
ATOM     12  C   UNL     1     -21.483  10.241  15.775  0.00  0.00    +0.001 A 
ATOM     13  C   UNL     1     -22.548   9.370  15.869  0.00  0.00    -0.004 A 
ATOM     14  C   UNL     1     -22.994   8.671  14.765  0.00  0.00    +0.029 A 
ATOM     23  C   UNL     1     -22.348   8.874  13.556  0.00  0.00    -0.004 A 
ATOM     24  C   UNL     1     -21.286   9.751  13.459  0.00  0.00    +0.001 A 
BRANCH  14  15
ATOM     15  N   UNL     1     -24.089   7.789  14.922  0.00  0.00    -0.319 N 
ATOM     16  C   UNL     1     -24.375   7.034  13.700  0.00  0.00    +0.104 C 
ATOM     17  C   UNL     1     -25.498   6.043  13.949  0.00  0.00    -0.086 C 
ATOM     18  N   UNL     1     -26.626   6.798  14.573  0.00  0.00    +0.405 NA
ATOM     21  C   UNL     1     -26.287   7.419  15.884  0.00  0.00    -0.086 C 
ATOM     22  C   UNL     1     -25.206   8.445  15.604  0.00  0.00    +0.104 C 
BRANCH  18  19
ATOM     19  C   UNL     1     -27.892   6.024  14.616  0.00  0.00    -0.113 C 
ATOM     20  C   UNL     1     -29.025   7.014  14.762  0.00  0.00    -0.021 C 
ENDBRANCH  18  19
ENDBRANCH  14  15
ENDBRANCH   9  11
TORSDOF 7
