REMARK  Name = 6J9
REMARK  0 active torsions:
REMARK  status: ('A' for Active; 'I' for Inactive)
REMARK                            x       y       z     vdW  Elec       q    Type
REMARK                         _______ _______ _______ _____ _____    ______ ____
ROOT
ATOM      1  C   UNL     1      -6.915  25.362  -6.024  0.00  0.00    +0.133 A 
ATOM      2  N   UNL     1      -5.881  24.775  -5.266  0.00  0.00    -0.290 N 
ATOM      3  C   UNL     1      -6.167  23.511  -4.576  0.00  0.00    +0.111 C 
ATOM      4  C   UNL     1      -4.869  22.804  -4.183  0.00  0.00    +0.110 C 
ATOM      5  N   UNL     1      -3.842  23.043  -5.206  0.00  0.00    -0.214 NA
ATOM      6  C   UNL     1      -3.416  24.454  -5.159  0.00  0.00    +0.110 C 
ATOM      7  C   UNL     1      -4.586  25.449  -5.163  0.00  0.00    +0.111 C 
ATOM      8  C   UNL     1      -7.767  26.452  -5.474  0.00  0.00    +0.051 A 
ATOM      9  C   UNL     1      -7.837  27.165  -4.256  0.00  0.00    +0.079 C 
ATOM     10  C   UNL     1      -8.875  28.076  -4.374  0.00  0.00    +0.079 C 
ATOM     11  N   UNL     1      -9.447  27.952  -5.614  0.00  0.00    -0.230 NA
ATOM     12  C   UNL     1      -8.830  26.987  -6.341  0.00  0.00    +0.163 A 
ATOM     13  N   UNL     1      -8.983  26.469  -7.591  0.00  0.00    -0.205 NA
ATOM     14  C   UNL     1      -8.183  25.476  -8.037  0.00  0.00    +0.201 A 
ATOM     15  N   UNL     1      -7.190  24.944  -7.285  0.00  0.00    -0.209 NA
ENDROOT
TORSDOF 0
