REMARK  Name = 5C27
REMARK  10 active torsions:
REMARK  status: ('A' for Active; 'I' for Inactive)
REMARK    1  A    between atoms: C_1  and  N_23
REMARK    2  A    between atoms: C_2  and  C_24
REMARK    3  A    between atoms: C_5  and  N_26
REMARK    4  A    between atoms: C_6  and  C_7
REMARK    5  A    between atoms: C_11  and  C_29
REMARK    6  A    between atoms: N_17  and  C_18
REMARK    7  A    between atoms: C_19  and  O_34
REMARK    8  A    between atoms: C_20  and  O_34
REMARK    9  A    between atoms: C_21  and  O_35
REMARK   10  A    between atoms: C_22  and  O_35
REMARK                            x       y       z     vdW  Elec       q    Type
REMARK                         _______ _______ _______ _____ _____    ______ ____
ROOT
ATOM     13  C   UNL     1       0.821   3.097  10.878  0.00  0.00    +0.038 A 
ATOM     14  C   UNL     1       1.266   2.257  11.941  0.00  0.00    +0.023 A 
ATOM     15  C   UNL     1       2.604   1.918  12.050  0.00  0.00    +0.003 A 
ATOM     37  C   UNL     1       3.496   2.411  11.097  0.00  0.00    +0.010 A 
ATOM     38  C   UNL     1       3.064   3.232  10.066  0.00  0.00    +0.001 A 
ATOM     39  C   UNL     1       1.725   3.585   9.933  0.00  0.00    +0.013 A 
ENDROOT
BRANCH  15  16
ATOM     16  C   UNL     1       3.043   1.045  13.168  0.00  0.00    +0.090 A 
ATOM     17  N   UNL     1       2.195   0.156  13.793  0.00  0.00    -0.227 NA
ATOM     18  C   UNL     1       2.553  -0.596  14.802  0.00  0.00    +0.167 A 
ATOM     19  N   UNL     1       1.709  -1.461  15.480  0.00  0.00    -0.296 N 
ATOM     20  H   UNL     1       2.169  -1.994  16.286  0.00  0.00    +0.154 HD
ATOM     31  C   UNL     1       3.880  -0.473  15.231  0.00  0.00    +0.178 A 
ATOM     32  N   UNL     1       4.742   0.409  14.592  0.00  0.00    -0.302 N 
ATOM     33  C   UNL     1       5.934   0.344  15.179  0.00  0.00    +0.112 A 
ATOM     34  C   UNL     1       5.814  -0.549  16.146  0.00  0.00    +0.131 A 
ATOM     35  N   UNL     1       4.572  -1.035  16.197  0.00  0.00    -0.233 NA
ATOM     36  C   UNL     1       4.314   1.147  13.566  0.00  0.00    +0.121 A 
BRANCH  19  21
ATOM     21  C   UNL     1       0.361  -1.752  15.286  0.00  0.00    +0.036 A 
ATOM     22  C   UNL     1      -0.462  -1.070  14.386  0.00  0.00    +0.072 A 
ATOM     23  C   UNL     1      -1.821  -1.389  14.207  0.00  0.00    +0.163 A 
ATOM     26  C   UNL     1      -2.346  -2.451  14.996  0.00  0.00    +0.162 A 
ATOM     29  C   UNL     1      -1.520  -3.124  15.910  0.00  0.00    +0.051 A 
ATOM     30  C   UNL     1      -0.167  -2.789  16.052  0.00  0.00    +0.027 A 
BRANCH  23  24
ATOM     24  O   UNL     1      -2.657  -0.703  13.293  0.00  0.00    -0.491 OA
ATOM     25  C   UNL     1      -2.242   0.431  12.573  0.00  0.00    +0.277 C 
ENDBRANCH  23  24
BRANCH  26  27
ATOM     27  O   UNL     1      -3.660  -2.800  14.847  0.00  0.00    -0.491 OA
ATOM     28  C   UNL     1      -4.539  -3.035  15.928  0.00  0.00    +0.277 C 
ENDBRANCH  26  27
ENDBRANCH  19  21
ENDBRANCH  15  16
BRANCH  13  11
ATOM      9  N   UNL     1      -1.195   3.803  11.884  0.00  0.00    -0.281 N 
ATOM     10  H   UNL     1      -0.541   3.825  12.731  0.00  0.00    +0.155 HD
ATOM     11  C   UNL     1      -0.596   3.445  10.766  0.00  0.00    +0.248 C 
ATOM     12  O   UNL     1      -1.164   3.390   9.706  0.00  0.00    -0.270 OA
BRANCH   9   8
ATOM      5  C   UNL     1      -4.949   5.005  13.058  0.00  0.00    +0.037 A 
ATOM      6  C   UNL     1      -3.781   5.607  13.547  0.00  0.00    +0.015 A 
ATOM      7  C   UNL     1      -2.585   5.162  13.109  0.00  0.00    +0.024 A 
ATOM      8  C   UNL     1      -2.473   4.149  12.177  0.00  0.00    +0.034 A 
ATOM     40  C   UNL     1      -3.652   3.536  11.658  0.00  0.00    +0.024 A 
ATOM     41  C   UNL     1      -4.918   3.968  12.115  0.00  0.00    +0.015 A 
BRANCH   5   4
ATOM      1  C   UNL     1      -8.404   6.057  14.312  0.00  0.00    +0.128 C 
ATOM      2  N   UNL     1      -7.430   5.277  13.510  0.00  0.00    -0.314 N 
ATOM      3  H   UNL     1      -7.748   4.508  12.838  0.00  0.00    +0.149 HD
ATOM      4  C   UNL     1      -6.126   5.581  13.666  0.00  0.00    +0.244 C 
ATOM     42  O   UNL     1      -5.826   6.448  14.421  0.00  0.00    -0.270 OA
ENDBRANCH   5   4
ENDBRANCH   9   8
ENDBRANCH  13  11
TORSDOF 7
