REMARK  Name = 5OQ4
REMARK  2 active torsions:
REMARK  status: ('A' for Active; 'I' for Inactive)
REMARK    1  A    between atoms: C_18  and  C_19
REMARK    2  A    between atoms: C_25  and  C_26
REMARK                            x       y       z     vdW  Elec       q    Type
REMARK                         _______ _______ _______ _____ _____    ______ ____
ROOT
ATOM      1  C   UNL     1      45.306  12.588  29.594  0.00  0.00    +0.136 C 
ATOM      2  N   UNL     1      45.596  13.822  30.379  0.00  0.00    -0.295 N 
ATOM      3  C   UNL     1      44.638  14.575  31.130  0.00  0.00    +0.223 A 
ATOM      4  N   UNL     1      45.022  15.854  31.486  0.00  0.00    -0.181 NA
ATOM      5  C   UNL     1      44.089  16.581  32.159  0.00  0.00    +0.223 A 
ATOM      6  N   UNL     1      42.842  16.078  32.504  0.00  0.00    -0.194 NA
ATOM      7  C   UNL     1      42.515  14.788  32.098  0.00  0.00    +0.169 A 
ATOM     21  N   UNL     1      44.494  17.918  32.583  0.00  0.00    -0.295 N 
ATOM     22  C   UNL     1      45.852  18.380  32.186  0.00  0.00    +0.136 C 
ATOM     23  C   UNL     1      45.787  19.890  31.870  0.00  0.00    +0.178 C 
ATOM     24  O   UNL     1      45.574  20.528  33.099  0.00  0.00    -0.377 OA
ATOM     25  C   UNL     1      44.260  20.263  33.565  0.00  0.00    +0.178 C 
ATOM     26  C   UNL     1      43.899  18.730  33.675  0.00  0.00    +0.136 C 
ATOM     27  N   UNL     1      43.383  13.999  31.375  0.00  0.00    -0.194 NA
ATOM     28  C   UNL     1      47.044  14.103  30.395  0.00  0.00    +0.136 C 
ATOM     29  C   UNL     1      47.732  13.768  29.025  0.00  0.00    +0.178 C 
ATOM     30  O   UNL     1      47.479  12.484  28.564  0.00  0.00    -0.377 OA
ATOM     31  C   UNL     1      46.135  12.317  28.271  0.00  0.00    +0.178 C 
ENDROOT
BRANCH   7   8
ATOM      8  C   UNL     1      41.064  14.248  32.440  0.00  0.00    +0.049 A 
ATOM      9  C   UNL     1      40.308  14.358  33.633  0.00  0.00    +0.070 A 
ATOM     14  C   UNL     1      39.018  13.851  33.831  0.00  0.00    +0.056 A 
ATOM     15  C   UNL     1      38.338  13.158  32.810  0.00  0.00    +0.117 A 
ATOM     16  N   UNL     1      37.058  12.618  32.951  0.00  0.00    -0.343 N 
ATOM     17  H   UNL     1      36.534  12.719  33.878  0.00  0.00    +0.144 HD
ATOM     18  H   UNL     1      36.602  12.103  32.132  0.00  0.00    +0.144 HD
ATOM     19  N   UNL     1      39.033  13.041  31.628  0.00  0.00    -0.240 NA
ATOM     20  C   UNL     1      40.276  13.546  31.497  0.00  0.00    +0.125 A 
BRANCH   9  10
ATOM     10  C   UNL     1      40.950  15.068  34.813  0.00  0.00    +0.418 C 
ATOM     11  F   UNL     1      42.179  14.525  35.040  0.00  0.00    -0.166 F 
ATOM     12  F   UNL     1      40.289  15.155  35.944  0.00  0.00    -0.166 F 
ATOM     13  F   UNL     1      41.194  16.373  34.592  0.00  0.00    -0.166 F 
ENDBRANCH   9  10
ENDBRANCH   7   8
TORSDOF 2
