REMARK  Name = 4RVM
REMARK  4 active torsions:
REMARK  status: ('A' for Active; 'I' for Inactive)
REMARK    1  A    between atoms: C_2  and  C_3
REMARK    2  A    between atoms: C_11  and  C_16
REMARK    3  A    between atoms: C_21  and  C_22
REMARK    4  A    between atoms: C_22  and  N_23
REMARK                            x       y       z     vdW  Elec       q    Type
REMARK                         _______ _______ _______ _____ _____    ______ ____
ROOT
ATOM      3  C   UNL     1       7.984   7.554  16.825  0.00  0.00    +0.189 C 
ATOM      4  C   UNL     1       6.637   7.405  17.204  0.00  0.00    +0.087 C 
ATOM      5  C   UNL     1       6.091   8.355  18.078  0.00  0.00    -0.006 A 
ATOM      6  C   UNL     1       4.827   8.493  18.639  0.00  0.00    +0.025 A 
ATOM      7  C   UNL     1       4.871   9.624  19.434  0.00  0.00    +0.161 A 
ATOM      8  N   UNL     1       6.113  10.158  19.360  0.00  0.00    -0.226 NA
ATOM      9  N   UNL     1       3.828  10.117  20.111  0.00  0.00    -0.235 NA
ATOM     10  C   UNL     1       2.675   9.464  20.055  0.00  0.00    +0.121 A 
ATOM     11  C   UNL     1       2.528   8.302  19.300  0.00  0.00    +0.001 A 
ATOM     25  C   UNL     1       3.629   7.784  18.543  0.00  0.00    +0.022 A 
ATOM     26  C   UNL     1       6.879   9.392  18.536  0.00  0.00    +0.088 A 
ATOM     27  C   UNL     1       8.198   9.494  18.127  0.00  0.00    +0.135 C 
ATOM     28  N   UNL     1       8.699   8.607  17.294  0.00  0.00    -0.264 NA
ENDROOT
BRANCH  11  12
ATOM     12  C   UNL     1       1.176   7.676  19.285  0.00  0.00    -0.016 A 
ATOM     13  C   UNL     1       0.272   7.864  20.349  0.00  0.00    +0.009 A 
ATOM     14  C   UNL     1      -0.996   7.291  20.307  0.00  0.00    +0.005 A 
ATOM     15  C   UNL     1      -1.384   6.533  19.203  0.00  0.00    -0.033 A 
ATOM     23  C   UNL     1      -0.505   6.362  18.118  0.00  0.00    +0.005 A 
ATOM     24  C   UNL     1       0.770   6.936  18.157  0.00  0.00    +0.009 A 
BRANCH  15  16
ATOM     16  C   UNL     1      -2.760   5.909  19.194  0.00  0.00    +0.119 C 
BRANCH  16  17
ATOM     17  N   UNL     1      -2.735   4.508  19.684  0.00  0.00    -0.298 NA
ATOM     18  C   UNL     1      -2.193   4.415  21.065  0.00  0.00    +0.085 C 
ATOM     19  C   UNL     1      -2.346   2.991  21.585  0.00  0.00    +0.015 C 
ATOM     20  C   UNL     1      -1.703   1.987  20.628  0.00  0.00    +0.002 C 
ATOM     21  C   UNL     1      -2.198   2.182  19.196  0.00  0.00    +0.015 C 
ATOM     22  C   UNL     1      -1.997   3.624  18.762  0.00  0.00    +0.085 C 
ENDBRANCH  16  17
ENDBRANCH  15  16
ENDBRANCH  11  12
BRANCH   3   2
ATOM      1  N   UNL     1       9.057   6.023  15.190  0.00  0.00    -0.194 NA
ATOM      2  C   UNL     1       8.581   6.750  15.992  0.00  0.00    +0.097 C 
ENDBRANCH   3   2
TORSDOF 4
