REMARK  Name = 3CD3
REMARK  5 active torsions:
REMARK  status: ('A' for Active; 'I' for Inactive)
REMARK    1  A    between atoms: C_4  and  N_34
REMARK    2  A    between atoms: C_5  and  O_32
REMARK    3  A    between atoms: C_6  and  C_7
REMARK    4  A    between atoms: O_32  and  C_33
REMARK    5  A    between atoms: N_34  and  C_35
REMARK                            x       y       z     vdW  Elec       q    Type
REMARK                         _______ _______ _______ _____ _____    ______ ____
ROOT
ATOM      1  O   UNL     1      -4.641  16.837  22.451  0.00  0.00    -0.328 OA
ATOM      2  C   UNL     1      -3.533  17.515  22.999  0.00  0.00    +0.174 C 
ATOM      3  N   UNL     1      -2.428  17.509  21.962  0.00  0.00    -0.307 N 
ATOM      4  C   UNL     1      -1.479  18.495  21.821  0.00  0.00    +0.053 A 
ATOM      5  C   UNL     1      -1.290  19.738  22.438  0.00  0.00    +0.026 A 
ATOM      6  C   UNL     1      -0.205  20.565  22.070  0.00  0.00    +0.002 A 
ATOM      7  C   UNL     1       0.644  20.181  21.030  0.00  0.00    +0.001 A 
ATOM      8  C   UNL     1       0.478  18.947  20.405  0.00  0.00    +0.010 A 
ATOM      9  C   UNL     1      -0.583  18.111  20.788  0.00  0.00    +0.008 A 
ATOM     10  C   UNL     1      -1.015  16.863  20.335  0.00  0.00    +0.015 A 
ATOM     11  C   UNL     1      -0.568  15.984  19.356  0.00  0.00    -0.008 A 
ATOM     12  C   UNL     1       0.665  16.097  18.416  0.00  0.00    +0.141 C 
ATOM     13  N   UNL     1       0.610  14.823  17.726  0.00  0.00    -0.307 N 
ATOM     14  H   UNL     1       1.329  14.483  17.011  0.00  0.00    +0.149 HD
ATOM     15  C   UNL     1      -0.471  14.134  18.113  0.00  0.00    +0.245 C 
ATOM     16  O   UNL     1      -0.726  13.020  17.662  0.00  0.00    -0.270 OA
ATOM     17  C   UNL     1      -1.198  14.767  19.123  0.00  0.00    +0.052 A 
ATOM     18  C   UNL     1      -2.340  14.403  19.888  0.00  0.00    +0.022 A 
ATOM     19  C   UNL     1      -3.206  13.296  19.895  0.00  0.00    +0.009 A 
ATOM     20  C   UNL     1      -3.237  12.095  19.173  0.00  0.00    +0.010 A 
ATOM     21  C   UNL     1      -4.242  11.142  19.402  0.00  0.00    +0.001 A 
ATOM     22  C   UNL     1      -5.195  11.383  20.406  0.00  0.00    +0.002 A 
ATOM     23  C   UNL     1      -5.163  12.574  21.124  0.00  0.00    +0.026 A 
ATOM     24  C   UNL     1      -4.159  13.534  20.905  0.00  0.00    +0.052 A 
ATOM     25  N   UNL     1      -3.914  14.756  21.452  0.00  0.00    -0.312 N 
ATOM     26  C   UNL     1      -2.801  15.279  20.873  0.00  0.00    +0.077 A 
ATOM     27  C   UNL     1      -2.158  16.509  21.094  0.00  0.00    +0.077 A 
ATOM     28  C   UNL     1      -4.014  18.878  23.501  0.00  0.00    +0.069 C 
ATOM     29  C   UNL     1      -2.889  16.768  24.260  0.00  0.00    +0.187 C 
ATOM     32  C   UNL     1      -4.028  15.997  24.930  0.00  0.00    +0.091 C 
ATOM     36  C   UNL     1      -4.492  14.881  24.004  0.00  0.00    +0.076 C 
ATOM     37  C   UNL     1      -4.684  15.400  22.540  0.00  0.00    +0.224 C 
ENDROOT
BRANCH  32  33
ATOM     33  N   UNL     1      -3.607  15.416  26.203  0.00  0.00    -0.314 NA
ATOM     34  H   UNL     1      -3.172  16.204  26.782  0.00  0.00    +0.122 HD
ATOM     35  C   UNL     1      -4.634  14.761  27.053  0.00  0.00    +0.101 C 
ENDBRANCH  32  33
BRANCH  29  30
ATOM     30  O   UNL     1      -1.799  15.758  24.069  0.00  0.00    -0.374 OA
ATOM     31  C   UNL     1      -0.436  16.283  24.009  0.00  0.00    +0.194 C 
ENDBRANCH  29  30
TORSDOF 2
