REMARK  Name = 3r8z_ligand
REMARK  7 active torsions:
REMARK  status: ('A' for Active; 'I' for Inactive)
REMARK    1  A    between atoms: C2_2  and  N3_3
REMARK    2  A    between atoms: C4_4  and  C5_5
REMARK    3  A    between atoms: C5_5  and  C6_6
REMARK    4  A    between atoms: C5_5  and  O12_12
REMARK    5  A    between atoms: N15_15  and  C16_16
REMARK    6  A    between atoms: C16_16  and  C17_17
REMARK    7  A    between atoms: C17_17  and  C18_18
REMARK                            x       y       z     vdW  Elec       q    Type
REMARK                         _______ _______ _______ _____ _____    ______ ____
ROOT
ATOM      1  N   UNL     1     -64.741 -46.553 -49.063  0.00  0.00    -0.308 NA
ATOM      2  C   UNL     1     -64.483 -46.494 -47.748  0.00  0.00    +0.169 A 
ATOM      3  N   UNL     1     -63.477 -47.246 -47.203  0.00  0.00    -0.289 N 
ATOM      4  H   UNL     1     -62.958 -47.910 -47.795  0.00  0.00    +0.188 HD
ATOM      8  S   UNL     1     -65.503 -45.411 -46.851  0.00  0.00    -0.001 S 
ATOM      9  C   UNL     1     -66.306 -45.019 -48.340  0.00  0.00    +0.059 A 
ATOM     19  C   UNL     1     -65.744 -45.743 -49.402  0.00  0.00    +0.052 A 
ENDROOT
BRANCH  19  20
ATOM     20  N   UNL     1     -66.135 -45.663 -50.682  0.00  0.00    -0.352 N 
ATOM     21  H   UNL     1     -65.661 -46.227 -51.402  0.00  0.00    +0.162 HD
ATOM     22  H   UNL     1     -66.910 -45.038 -50.946  0.00  0.00    +0.162 HD
ENDBRANCH  19  20
BRANCH   3   5
ATOM      5  C   UNL     1     -63.136 -47.116 -45.799  0.00  0.00    +0.137 C 
BRANCH   5   6
ATOM      6  C   UNL     1     -61.862 -46.345 -45.638  0.00  0.00    +0.021 C 
ATOM      7  C   UNL     1     -61.849 -44.882 -45.644  0.00  0.00    +0.006 C 
ENDBRANCH   5   6
ENDBRANCH   3   5
BRANCH   9  10
ATOM     10  C   UNL     1     -67.359 -44.104 -48.441  0.00  0.00    +0.209 C 
BRANCH  10  13
ATOM     13  C   UNL     1     -67.951 -43.337 -47.296  0.00  0.00    +0.010 A 
ATOM     14  C   UNL     1     -69.379 -43.348 -47.128  0.00  0.00    +0.036 A 
ATOM     15  C   UNL     1     -69.957 -42.626 -46.053  0.00  0.00    +0.083 A 
ATOM     16  N   UNL     1     -69.145 -41.923 -45.182  0.00  0.00    -0.307 NA
ATOM     17  C   UNL     1     -67.765 -41.890 -45.313  0.00  0.00    +0.083 A 
ATOM     18  C   UNL     1     -67.142 -42.597 -46.375  0.00  0.00    +0.036 A 
ENDBRANCH  10  13
BRANCH  10  11
ATOM     11  O   UNL     1     -67.931 -43.854 -49.647  0.00  0.00    -0.371 OA
ATOM     12  H   UNL     1     -67.501 -44.376 -50.314  0.00  0.00    +0.216 HD
ENDBRANCH  10  11
ENDBRANCH   9  10
TORSDOF 6
