REMARK  Name = YMX
REMARK  6 active torsions:
REMARK  status: ('A' for Active; 'I' for Inactive)
REMARK    1  A    between atoms: C7_7  and  C9_9
REMARK    2  A    between atoms: C12_12  and  N13_13
REMARK    3  A    between atoms: C21_21  and  N22_22
REMARK    4  A    between atoms: N22_22  and  C23_23
REMARK    5  A    between atoms: C31_31  and  C32_32
REMARK    6  A    between atoms: C32_32  and  C33_33
REMARK                            x       y       z     vdW  Elec       q    Type
REMARK                         _______ _______ _______ _____ _____    ______ ____
ROOT
ATOM      1  C   UNL     1      32.260 -35.053   0.842  0.00  0.00    +0.021 A 
ATOM      2  C   UNL     1      31.427 -35.122   1.957  0.00  0.00    +0.106 A 
ATOM      3  N   UNL     1      31.637 -35.587   3.205  0.00  0.00    -0.147 NA
ATOM      4  N   UNL     1      30.527 -35.405   3.966  0.00  0.00    -0.131 NA
ATOM      5  C   UNL     1      29.599 -34.872   3.190  0.00  0.00    +0.177 A 
ATOM      6  N   UNL     1      28.368 -34.556   3.737  0.00  0.00    -0.155 NA
ATOM      7  C   UNL     1      27.132 -34.690   3.200  0.00  0.00    +0.272 C 
ATOM     28  O   UNL     1      26.928 -35.221   2.097  0.00  0.00    -0.268 OA
ATOM     29  C   UNL     1      30.108 -34.643   1.924  0.00  0.00    +0.054 A 
ATOM     30  C   UNL     1      29.613 -34.087   0.739  0.00  0.00    +0.001 A 
ATOM     31  C   UNL     1      30.425 -34.042  -0.389  0.00  0.00    -0.018 A 
ATOM     41  C   UNL     1      31.752 -34.498  -0.306  0.00  0.00    -0.002 A 
ENDROOT
BRANCH   7   8
ATOM      8  C   UNL     1      26.002 -34.119   4.008  0.00  0.00    +0.070 A 
ATOM      9  C   UNL     1      26.085 -34.098   5.407  0.00  0.00    +0.007 A 
ATOM     10  C   UNL     1      25.055 -33.567   6.175  0.00  0.00    +0.015 A 
ATOM     11  C   UNL     1      23.929 -33.055   5.555  0.00  0.00    +0.049 A 
ATOM     19  C   UNL     1      23.832 -33.081   4.159  0.00  0.00    +0.031 A 
ATOM     20  C   UNL     1      24.858 -33.591   3.375  0.00  0.00    +0.071 A 
BRANCH  11  12
ATOM     12  N   UNL     1      22.865 -32.519   6.340  0.00  0.00    -0.305 N 
ATOM     13  C   UNL     1      22.502 -33.026   7.664  0.00  0.00    +0.108 C 
ATOM     14  C   UNL     1      22.392 -31.880   8.657  0.00  0.00    +0.094 C 
ATOM     15  N   UNL     1      21.434 -30.880   8.189  0.00  0.00    -0.269 NA
ATOM     16  C   UNL     1      21.276 -29.806   9.175  0.00  0.00    +0.090 C 
ATOM     17  C   UNL     1      21.889 -30.341   6.911  0.00  0.00    +0.094 C 
ATOM     18  C   UNL     1      21.998 -31.441   5.868  0.00  0.00    +0.108 C 
ENDBRANCH  11  12
BRANCH  20  21
ATOM     21  N   UNL     1      24.753 -33.617   2.012  0.00  0.00    -0.239 NA
BRANCH  21  22
ATOM     22  C   UNL     1      24.064 -32.659   1.165  0.00  0.00    +0.098 C 
ATOM     23  C   UNL     1      24.576 -31.245   1.413  0.00  0.00    +0.054 C 
ATOM     24  C   UNL     1      23.976 -30.299   0.413  0.00  0.00    +0.144 C 
ATOM     25  O   UNL     1      24.303 -30.699  -0.915  0.00  0.00    -0.354 OA
ATOM     26  C   UNL     1      23.748 -31.978  -1.215  0.00  0.00    +0.144 C 
ATOM     27  C   UNL     1      24.263 -33.056  -0.295  0.00  0.00    +0.054 C 
ENDBRANCH  21  22
ENDBRANCH  20  21
ENDBRANCH   7   8
BRANCH  31  32
ATOM     32  C   UNL     1      29.934 -33.368  -1.653  0.00  0.00    +0.053 C 
BRANCH  32  33
ATOM     33  C   UNL     1      29.721 -31.895  -1.364  0.00  0.00    -0.013 A 
ATOM     34  C   UNL     1      30.799 -31.081  -1.089  0.00  0.00    +0.026 A 
ATOM     35  C   UNL     1      30.587 -29.766  -0.745  0.00  0.00    +0.142 A 
ATOM     36  F   UNL     1      31.664 -28.970  -0.493  0.00  0.00    -0.204 F 
ATOM     37  C   UNL     1      29.332 -29.221  -0.634  0.00  0.00    +0.059 A 
ATOM     38  C   UNL     1      28.281 -30.059  -0.891  0.00  0.00    +0.142 A 
ATOM     39  F   UNL     1      27.020 -29.569  -0.791  0.00  0.00    -0.204 F 
ATOM     40  C   UNL     1      28.449 -31.384  -1.228  0.00  0.00    +0.026 A 
ENDBRANCH  32  33
ENDBRANCH  31  32
TORSDOF 6
