REMARK  Name = 3mbl_ligand
REMARK  10 active torsions:
REMARK  status: ('A' for Active; 'I' for Inactive)
REMARK    1  A    between atoms: C5_5  and  N9_9
REMARK    2  A    between atoms: N9_9  and  C10_10
REMARK    3  A    between atoms: N11_11  and  C22_22
REMARK    4  A    between atoms: C12_12  and  C23_23
REMARK    5  A    between atoms: C14_14  and  C15_15
REMARK    6  A    between atoms: N17_17  and  O18_18
REMARK    7  A    between atoms: O18_18  and  C19_19
REMARK    8  A    between atoms: C19_19  and  C20_20
REMARK    9  A    between atoms: C20_20  and  O21_21
REMARK   10  A    between atoms: C23_23  and  C25_25
REMARK                            x       y       z     vdW  Elec       q    Type
REMARK                         _______ _______ _______ _____ _____    ______ ____
ROOT
ATOM      7  C   UNL     1      32.044  26.671  40.829  0.00  0.00    +0.182 A 
ATOM      8  C   UNL     1      31.099  27.346  39.896  0.00  0.00    +0.063 A 
ATOM     18  C   UNL     1      30.690  26.324  39.071  0.00  0.00    -0.019 A 
ATOM     19  C   UNL     1      31.339  25.135  39.526  0.00  0.00    +0.098 A 
ATOM     23  N   UNL     1      32.149  25.361  40.593  0.00  0.00    -0.239 N 
ATOM     24  C   UNL     1      33.024  24.406  41.314  0.00  0.00    +0.217 C 
ENDROOT
BRANCH   8   9
ATOM      9  C   UNL     1      30.819  28.799  40.049  0.00  0.00    +0.194 C 
ATOM     10  N   UNL     1      30.055  29.455  39.180  0.00  0.00    -0.168 N 
ATOM     11  H   UNL     1      29.727  28.993  38.332  0.00  0.00    +0.220 HD
ATOM     17  O   UNL     1      31.280  29.392  41.048  0.00  0.00    -0.409 OA
BRANCH  10  12
ATOM     12  O   UNL     1      29.683  30.867  39.456  0.00  0.00    -0.256 OA
BRANCH  12  13
ATOM     13  C   UNL     1      28.514  31.532  38.929  0.00  0.00    +0.225 C 
BRANCH  13  14
ATOM     14  C   UNL     1      28.155  32.744  39.787  0.00  0.00    +0.187 C 
BRANCH  14  15
ATOM     15  O   UNL     1      27.138  33.505  39.104  0.00  0.00    -0.393 OA
ATOM     16  H   UNL     1      26.903  34.271  39.633  0.00  0.00    +0.209 HD
ENDBRANCH  14  15
ENDBRANCH  13  14
ENDBRANCH  12  13
ENDBRANCH  10  12
ENDBRANCH   8   9
BRANCH  19  20
ATOM     20  C   UNL     1      31.173  23.808  38.888  0.00  0.00    +0.129 C 
ATOM     21  C   UNL     1      30.155  23.837  37.796  0.00  0.00    +0.139 C 
ATOM     22  O   UNL     1      31.809  22.795  39.200  0.00  0.00    -0.396 OA
ENDBRANCH  19  20
BRANCH   7   5
ATOM      5  N   UNL     1      32.717  27.353  41.789  0.00  0.00    -0.243 N 
ATOM      6  H   UNL     1      32.167  27.947  42.409  0.00  0.00    +0.216 HD
BRANCH   5   4
ATOM      1  C   UNL     1      35.959  28.131  43.410  0.00  0.00    +0.033 A 
ATOM      2  C   UNL     1      34.600  28.144  43.099  0.00  0.00    +0.157 A 
ATOM      3  F   UNL     1      33.714  28.893  43.772  0.00  0.00    -0.190 F 
ATOM      4  C   UNL     1      34.063  27.315  41.999  0.00  0.00    +0.101 A 
ATOM     25  C   UNL     1      34.960  26.516  41.297  0.00  0.00    +0.015 A 
ATOM     26  C   UNL     1      36.301  26.499  41.631  0.00  0.00    -0.007 A 
ATOM     27  C   UNL     1      36.819  27.305  42.685  0.00  0.00    -0.005 A 
ATOM     28  I   UNL     1      38.895  27.222  43.173  0.00  0.00    -0.061 I 
ENDBRANCH   5   4
ENDBRANCH   7   5
TORSDOF 8
