REMARK  Name = 4FSM
REMARK  6 active torsions:
REMARK  status: ('A' for Active; 'I' for Inactive)
REMARK    1  A    between atoms: O_1  and  C_2
REMARK    2  A    between atoms: C_5  and  C_8
REMARK    3  A    between atoms: C_17  and  O_18
REMARK    4  A    between atoms: O_18  and  C_19
REMARK    5  A    between atoms: C_20  and  O_22
REMARK    6  A    between atoms: O_22  and  C_23
REMARK                            x       y       z     vdW  Elec       q    Type
REMARK                         _______ _______ _______ _____ _____    ______ ____
ROOT
ATOM      7  C   UNL     1      15.227  -3.322   9.887  0.00  0.00    +0.070 A 
ATOM      8  N   UNL     1      15.342  -2.250   9.068  0.00  0.00    -0.276 N 
ATOM      9  H   UNL     1      14.650  -1.568   8.778  0.00  0.00    +0.189 HD
ATOM     10  N   UNL     1      16.604  -2.098   8.564  0.00  0.00    -0.173 NA
ATOM     11  C   UNL     1      17.311  -3.107   9.083  0.00  0.00    +0.097 A 
ATOM     12  C   UNL     1      18.656  -3.659   9.158  0.00  0.00    +0.010 A 
ATOM     13  C   UNL     1      19.838  -3.235   8.543  0.00  0.00    +0.059 A 
ATOM     14  C   UNL     1      21.024  -3.911   8.802  0.00  0.00    +0.162 A 
ATOM     15  C   UNL     1      21.024  -5.021   9.679  0.00  0.00    +0.162 A 
ATOM     18  C   UNL     1      19.843  -5.426  10.280  0.00  0.00    +0.054 A 
ATOM     21  C   UNL     1      18.658  -4.754  10.014  0.00  0.00    -0.030 A 
ATOM     22  C   UNL     1      17.266  -5.024  10.509  0.00  0.00    +0.075 C 
ATOM     23  C   UNL     1      16.466  -3.924   9.929  0.00  0.00    +0.010 A 
ENDROOT
BRANCH   7   6
ATOM      3  C   UNL     1      11.679  -4.283  12.065  0.00  0.00    +0.117 A 
ATOM      4  C   UNL     1      11.724  -3.140  11.277  0.00  0.00    +0.046 A 
ATOM      5  C   UNL     1      12.864  -2.845  10.551  0.00  0.00    +0.013 A 
ATOM      6  C   UNL     1      13.979  -3.676  10.601  0.00  0.00    +0.000 A 
ATOM     24  C   UNL     1      13.919  -4.815  11.397  0.00  0.00    +0.013 A 
ATOM     25  C   UNL     1      12.780  -5.122  12.121  0.00  0.00    +0.046 A 
BRANCH   3   1
ATOM      1  O   UNL     1      10.575  -4.595  12.817  0.00  0.00    -0.507 OA
ATOM      2  H   UNL     1       9.867  -3.913  12.677  0.00  0.00    +0.292 HD
ENDBRANCH   3   1
ENDBRANCH   7   6
BRANCH  15  16
ATOM     16  O   UNL     1      22.230  -5.650   9.829  0.00  0.00    -0.491 OA
ATOM     17  C   UNL     1      22.275  -6.837  10.625  0.00  0.00    +0.277 C 
ENDBRANCH  15  16
BRANCH  14  19
ATOM     19  O   UNL     1      22.240  -3.600   8.254  0.00  0.00    -0.491 OA
ATOM     20  C   UNL     1      22.321  -2.474   7.372  0.00  0.00    +0.277 C 
ENDBRANCH  14  19
TORSDOF 4
