REMARK  Name = 3l9n_ligand
REMARK  7 active torsions:
REMARK  status: ('A' for Active; 'I' for Inactive)
REMARK    1  A    between atoms: C3_6  and  CL1_26
REMARK    2  A    between atoms: N3_7  and  C10_17
REMARK    3  A    between atoms: C6_12  and  C8_15
REMARK    4  A    between atoms: N6_13  and  C7_14
REMARK    5  A    between atoms: C7_14  and  C10_17
REMARK    6  A    between atoms: C8_15  and  C10_17
REMARK    7  A    between atoms: C17_24  and  C18_25
REMARK                            x       y       z     vdW  Elec       q    Type
REMARK                         _______ _______ _______ _____ _____    ______ ____
ROOT
ATOM      6  N   UNL     1      29.430  19.627  60.175  0.00  0.00    -0.276 N 
ATOM      7  H   UNL     1      28.526  19.826  60.627  0.00  0.00    +0.191 HD
ATOM      8  C   UNL     1      29.628  18.322  59.540  0.00  0.00    +0.199 A 
ATOM      9  N   UNL     1      28.684  17.384  59.300  0.00  0.00    -0.253 NA
ATOM     10  N   UNL     1      28.993  16.207  58.698  0.00  0.00    -0.264 NA
ATOM     11  C   UNL     1      30.339  16.175  58.413  0.00  0.00    +0.124 A 
ATOM     22  S   UNL     1      31.086  17.654  58.940  0.00  0.00    +0.059 S 
ENDROOT
BRANCH  11  12
ATOM     12  C   UNL     1      31.055  15.035  57.738  0.00  0.00    +0.018 A 
ATOM     13  C   UNL     1      32.520  15.097  57.544  0.00  0.00    +0.032 A 
ATOM     14  C   UNL     1      33.265  14.039  56.886  0.00  0.00    +0.036 A 
ATOM     15  C   UNL     1      32.525  12.837  56.386  0.00  0.00    -0.012 A 
ATOM     16  C   UNL     1      31.083  12.720  56.552  0.00  0.00    +0.006 A 
ATOM     17  N   UNL     1      33.541  12.119  55.861  0.00  0.00    -0.333 NA
ATOM     18  N   UNL     1      34.785  12.636  55.932  0.00  0.00    -0.245 N 
ATOM     19  H   UNL     1      35.656  12.213  55.582  0.00  0.00    +0.293 HD
ATOM     20  C   UNL     1      34.646  13.842  56.568  0.00  0.00    +0.247 A 
ATOM     21  C   UNL     1      30.358  13.828  57.229  0.00  0.00    +0.016 A 
ENDBRANCH  11  12
BRANCH   6   5
ATOM      5  C   UNL     1      30.460  20.652  60.192  0.00  0.00    +0.196 C 
BRANCH   5   4
ATOM      4  C   UNL     1      30.636  21.227  58.769  0.00  0.00    +0.095 C 
BRANCH   4  23
ATOM     23  N   UNL     1      29.600  22.269  58.568  0.00  0.00    +0.224 N 
ATOM     24  H   UNL     1      29.753  23.024  59.218  0.00  0.00    +0.200 HD
ATOM     25  H   UNL     1      29.655  22.620  57.625  0.00  0.00    +0.200 HD
ATOM     26  H   UNL     1      28.688  21.870  58.725  0.00  0.00    +0.200 HD
ENDBRANCH   4  23
BRANCH   4   3
ATOM      3  C   UNL     1      32.045  21.818  58.533  0.00  0.00    +0.117 C 
BRANCH   3   2
ATOM      1  C   UNL     1      33.285  19.842  57.466  0.00  0.00    -0.013 A 
ATOM      2  C   UNL     1      33.104  20.711  58.618  0.00  0.00    -0.044 A 
ATOM     27  C   UNL     1      33.851  20.570  59.856  0.00  0.00    -0.013 A 
ATOM     28  C   UNL     1      34.813  19.512  59.951  0.00  0.00    -0.013 A 
ATOM     29  C   UNL     1      34.985  18.646  58.807  0.00  0.00    -0.053 A 
ATOM     30  C   UNL     1      36.180  17.363  59.012  0.00  0.00    +0.079 C 
ATOM     31  C   UNL     1      34.257  18.770  57.556  0.00  0.00    -0.013 A 
ENDBRANCH   3   2
ENDBRANCH   4   3
ENDBRANCH   5   4
ENDBRANCH   6   5
TORSDOF 6
