REMARK  Name = 4XCU
REMARK  10 active torsions:
REMARK  status: ('A' for Active; 'I' for Inactive)
REMARK    1  A    between atoms: C_2  and  C_3
REMARK    2  A    between atoms: C_3  and  C_4
REMARK    3  A    between atoms: N_5  and  C_6
REMARK    4  A    between atoms: C_10  and  C_11
REMARK    5  A    between atoms: C_12  and  N_13
REMARK    6  A    between atoms: C_23  and  C_24
REMARK    7  A    between atoms: C_29  and  O_30
REMARK    8  A    between atoms: O_30  and  C_31
REMARK    9  A    between atoms: C_33  and  O_34
REMARK   10  A    between atoms: O_34  and  C_35
REMARK                            x       y       z     vdW  Elec       q    Type
REMARK                         _______ _______ _______ _____ _____    ______ ____
ROOT
ATOM      7  N   UNL     1     -11.838   6.695 -24.234  0.00  0.00    -0.282 N 
ATOM      8  H   UNL     1     -12.191   7.556 -24.762  0.00  0.00    +0.155 HD
ATOM      9  C   UNL     1     -12.641   6.126 -23.259  0.00  0.00    +0.220 A 
ATOM     10  N   UNL     1     -12.390   4.995 -22.595  0.00  0.00    -0.214 NA
ATOM     11  C   UNL     1     -13.253   4.595 -21.639  0.00  0.00    +0.076 A 
ATOM     12  C   UNL     1     -13.017   3.441 -20.886  0.00  0.00    +0.029 A 
ATOM     13  C   UNL     1     -13.944   3.047 -19.891  0.00  0.00    +0.010 A 
ATOM     14  C   UNL     1     -15.036   3.844 -19.704  0.00  0.00    -0.014 A 
ATOM     27  C   UNL     1     -15.276   4.973 -20.459  0.00  0.00    +0.020 A 
ATOM     28  C   UNL     1     -14.372   5.353 -21.434  0.00  0.00    +0.019 A 
ATOM     29  C   UNL     1     -14.627   6.504 -22.155  0.00  0.00    +0.124 A 
ATOM     30  N   UNL     1     -13.741   6.882 -23.086  0.00  0.00    -0.222 NA
ENDROOT
BRANCH  14  15
ATOM     15  C   UNL     1     -16.017   3.516 -18.622  0.00  0.00    +0.026 A 
ATOM     16  C   UNL     1     -16.807   2.431 -18.586  0.00  0.00    +0.092 A 
ATOM     17  C   UNL     1     -17.727   2.178 -17.566  0.00  0.00    +0.142 A 
ATOM     18  C   UNL     1     -17.749   3.014 -16.482  0.00  0.00    +0.094 A 
ATOM     19  C   UNL     1     -16.940   4.119 -16.470  0.00  0.00    +0.142 A 
ATOM     24 CL   UNL     1     -16.833   1.356 -19.928  0.00  0.00    -0.079 Cl
ATOM     25  C   UNL     1     -16.066   4.330 -17.512  0.00  0.00    +0.092 A 
ATOM     26 CL   UNL     1     -15.103   5.782 -17.247  0.00  0.00    -0.079 Cl
BRANCH  19  20
ATOM     20  O   UNL     1     -16.925   5.002 -15.442  0.00  0.00    -0.493 OA
ATOM     21  C   UNL     1     -18.142   5.443 -14.824  0.00  0.00    +0.277 C 
ENDBRANCH  19  20
BRANCH  17  22
ATOM     22  O   UNL     1     -18.498   1.046 -17.649  0.00  0.00    -0.493 OA
ATOM     23  C   UNL     1     -19.545   0.831 -16.640  0.00  0.00    +0.277 C 
ENDBRANCH  17  22
ENDBRANCH  14  15
BRANCH   7   6
ATOM      5  C   UNL     1     -10.422   5.954 -25.923  0.00  0.00    +0.055 A 
ATOM      6  C   UNL     1     -10.580   6.175 -24.546  0.00  0.00    +0.058 A 
ATOM     31  C   UNL     1      -9.515   5.980 -23.648  0.00  0.00    -0.027 A 
ATOM     32  C   UNL     1      -9.567   6.221 -22.165  0.00  0.00    +0.045 C 
ATOM     33  C   UNL     1      -8.301   5.490 -24.135  0.00  0.00    +0.005 A 
ATOM     34  C   UNL     1      -8.147   5.242 -25.495  0.00  0.00    +0.002 A 
ATOM     35  C   UNL     1      -9.195   5.478 -26.389  0.00  0.00    +0.025 A 
BRANCH   5   3
ATOM      1  O   UNL     1     -11.020   5.265 -28.675  0.00  0.00    -0.276 OA
ATOM      2  C   UNL     1     -11.828   5.920 -28.014  0.00  0.00    +0.217 C 
ATOM      3  N   UNL     1     -11.593   6.254 -26.697  0.00  0.00    -0.284 N 
ATOM      4  H   UNL     1     -12.368   6.796 -26.197  0.00  0.00    +0.155 HD
BRANCH   2  36
ATOM     36  C   UNL     1     -13.135   6.396 -28.646  0.00  0.00    +0.093 C 
ATOM     37  C   UNL     1     -14.155   7.039 -27.713  0.00  0.00    +0.013 C 
ENDBRANCH   2  36
ENDBRANCH   5   3
ENDBRANCH   7   6
TORSDOF 6
