REMARK  Name = 5HG7
REMARK  9 active torsions:
REMARK  status: ('A' for Active; 'I' for Inactive)
REMARK    1  A    between atoms: N_1  and  C_13
REMARK    2  A    between atoms: C_3  and  O_18
REMARK    3  A    between atoms: C_7  and  O_18
REMARK    4  A    between atoms: C_7  and  C_19
REMARK    5  A    between atoms: C_8  and  O_25
REMARK    6  A    between atoms: C_9  and  C_10
REMARK    7  A    between atoms: C_9  and  C_23
REMARK    8  A    between atoms: C_11  and  O_25
REMARK    9  A    between atoms: N_27  and  C_30
REMARK                            x       y       z     vdW  Elec       q    Type
REMARK                         _______ _______ _______ _____ _____    ______ ____
ROOT
ATOM      8  C   UNL     1     -12.971  12.719 -28.290  0.00  0.00    +0.256 A 
ATOM      9  N   UNL     1     -11.805  12.551 -28.991  0.00  0.00    -0.191 NA
ATOM     10  C   UNL     1     -11.186  13.728 -29.331  0.00  0.00    +0.170 A 
ATOM     11  N   UNL     1     -10.010  13.830 -30.029  0.00  0.00    -0.234 NA
ATOM     12  C   UNL     1      -9.683  15.155 -30.190  0.00  0.00    +0.134 A 
ATOM     13  C   UNL     1     -10.664  15.917 -29.586  0.00  0.00    +0.075 A 
ATOM     14 CL   UNL     1     -10.724  17.615 -29.502  0.00  0.00    -0.081 Cl
ATOM     15  C   UNL     1     -11.623  15.034 -29.039  0.00  0.00    +0.100 A 
ATOM     16  C   UNL     1     -12.840  15.113 -28.314  0.00  0.00    +0.230 A 
ATOM     30  N   UNL     1     -13.474  13.945 -27.963  0.00  0.00    -0.175 NA
ENDROOT
BRANCH   8   1
ATOM      1  N   UNL     1     -13.681  11.555 -27.885  0.00  0.00    -0.212 NA
ATOM      2  C   UNL     1     -14.846  11.429 -27.176  0.00  0.00    +0.083 C 
ATOM      3  C   UNL     1     -15.710  12.399 -26.618  0.00  0.00    +0.155 C 
ATOM      4  N   UNL     1     -16.754  11.866 -25.985  0.00  0.00    -0.191 NA
ATOM      5  N   UNL     1     -16.561  10.551 -26.136  0.00  0.00    -0.253 N 
ATOM      6  C   UNL     1     -17.516   9.633 -25.566  0.00  0.00    +0.152 C 
ATOM      7  C   UNL     1     -15.435  10.234 -26.842  0.00  0.00    +0.182 C 
ENDBRANCH   8   1
BRANCH  16  17
ATOM     17  O   UNL     1     -13.408  16.339 -27.950  0.00  0.00    -0.475 OA
BRANCH  17  18
ATOM     18  C   UNL     1     -14.277  16.187 -26.804  0.00  0.00    +0.238 C 
BRANCH  18  19
ATOM     19  C   UNL     1     -14.940  17.496 -26.373  0.00  0.00    +0.074 C 
ATOM     20  C   UNL     1     -15.708  17.317 -25.066  0.00  0.00    +0.117 C 
ATOM     21  N   UNL     1     -14.788  17.772 -24.024  0.00  0.00    -0.299 N 
ATOM     22  C   UNL     1     -15.070  17.569 -22.664  0.00  0.00    +0.215 C 
ATOM     23  O   UNL     1     -16.105  17.017 -22.273  0.00  0.00    -0.276 OA
ATOM     26  C   UNL     1     -13.609  18.433 -24.615  0.00  0.00    +0.139 C 
ATOM     27  C   UNL     1     -14.003  18.676 -26.082  0.00  0.00    +0.143 C 
BRANCH  22  24
ATOM     24  C   UNL     1     -14.017  18.084 -21.678  0.00  0.00    +0.092 C 
ATOM     25  C   UNL     1     -14.099  17.450 -20.295  0.00  0.00    +0.013 C 
ENDBRANCH  22  24
BRANCH  27  28
ATOM     28  O   UNL     1     -14.801  19.869 -26.220  0.00  0.00    -0.378 OA
ATOM     29  C   UNL     1     -14.064  21.084 -26.201  0.00  0.00    +0.194 C 
ENDBRANCH  27  28
ENDBRANCH  18  19
ENDBRANCH  17  18
ENDBRANCH  16  17
TORSDOF 6
