REMARK  Name = 2xk6_ligand
REMARK  4 active torsions:
REMARK  status: ('A' for Active; 'I' for Inactive)
REMARK    1  A    between atoms: C05_5  and  C06_6
REMARK    2  A    between atoms: C10_10  and  C11_11
REMARK    3  A    between atoms: C15_15  and  C16_16
REMARK    4  A    between atoms: C19_19  and  C20_20
REMARK                            x       y       z     vdW  Elec       q    Type
REMARK                         _______ _______ _______ _____ _____    ______ ____
ROOT
ATOM      1  N   UNL     1      24.728   5.108 -18.304  0.00  0.00    -0.322 N 
ATOM      2  H   UNL     1      24.390   5.191 -17.345  0.00  0.00    +0.175 HD
ATOM      3  H   UNL     1      24.653   4.218 -18.796  0.00  0.00    +0.175 HD
ATOM      4  C   UNL     1      25.308   6.241 -18.959  0.00  0.00    +0.135 A 
ATOM      5  C   UNL     1      25.415   7.531 -18.281  0.00  0.00    +0.072 A 
ATOM     15  N   UNL     1      25.966   8.602 -18.926  0.00  0.00    -0.287 NA
ATOM     16  C   UNL     1      26.413   8.455 -20.230  0.00  0.00    +0.047 A 
ATOM     25  C   UNL     1      26.302   7.149 -20.909  0.00  0.00    +0.094 A 
ATOM     26  N   UNL     1      25.765   6.103 -20.273  0.00  0.00    -0.277 NA
ENDROOT
BRANCH   5   6
ATOM      6  C   UNL     1      24.866   7.685 -16.873  0.00  0.00    +0.058 C 
ATOM      7  C   UNL     1      23.398   7.243 -16.563  0.00  0.00    +0.021 C 
ATOM      8  C   UNL     1      22.697   8.060 -15.462  0.00  0.00    +0.021 C 
ATOM      9  C   UNL     1      23.582   8.116 -14.204  0.00  0.00    +0.059 C 
ATOM     13  C   UNL     1      24.892   8.887 -14.467  0.00  0.00    +0.021 C 
ATOM     14  C   UNL     1      25.611   8.547 -15.797  0.00  0.00    +0.021 C 
BRANCH   9  10
ATOM     10  C   UNL     1      22.959   8.115 -12.832  0.00  0.00    +0.038 C 
ATOM     11  O   UNL     1      22.912   9.280 -12.097  0.00  0.00    -0.569 OA
ATOM     12  O   UNL     1      22.502   7.079 -12.366  0.00  0.00    -0.569 OA
ENDBRANCH   9  10
ENDBRANCH   5   6
BRANCH  16  17
ATOM     17  C   UNL     1      27.045   9.561 -21.017  0.00  0.00    +0.114 C 
ATOM     18  C   UNL     1      27.855  10.012 -22.279  0.00  0.00    +0.019 C 
ATOM     22  C   UNL     1      28.298  11.559 -22.081  0.00  0.00    +0.018 C 
ATOM     23  C   UNL     1      27.155  12.284 -21.251  0.00  0.00    +0.072 C 
ATOM     24  S   UNL     1      26.461  11.108 -20.286  0.00  0.00    -0.142 S 
BRANCH  18  19
ATOM     19  C   UNL     1      28.711   9.372 -23.349  0.00  0.00    -0.005 C 
ATOM     20  C   UNL     1      29.948   9.334 -24.272  0.00  0.00    +0.004 C 
ATOM     21  C   UNL     1      28.616   8.753 -24.761  0.00  0.00    +0.004 C 
ENDBRANCH  18  19
ENDBRANCH  16  17
TORSDOF 4
