REMARK  Name = 4UJA
REMARK  3 active torsions:
REMARK  status: ('A' for Active; 'I' for Inactive)
REMARK    1  A    between atoms: C_1  and  C_2
REMARK    2  A    between atoms: C_1  and  C_8
REMARK    3  A    between atoms: C_22  and  C_23
REMARK                            x       y       z     vdW  Elec       q    Type
REMARK                         _______ _______ _______ _____ _____    ______ ____
ROOT
ATOM      9  C   UNL     1     -25.644   9.538   2.584  0.00  0.00    +0.083 C 
ATOM     10  C   UNL     1     -26.548   9.097   3.779  0.00  0.00    +0.044 C 
ATOM     23  C   UNL     1     -26.359   7.568   3.716  0.00  0.00    +0.089 C 
ATOM     24  N   UNL     1     -25.051   7.252   3.122  0.00  0.00    -0.315 NA
ATOM     25  H   UNL     1     -25.115   6.565   2.377  0.00  0.00    +0.122 HD
ATOM     26  C   UNL     1     -24.495   8.513   2.666  0.00  0.00    +0.093 C 
ENDROOT
BRANCH  10  11
ATOM     11  C   UNL     1     -28.007   9.503   3.715  0.00  0.00    -0.040 A 
ATOM     12  C   UNL     1     -28.691   9.858   4.873  0.00  0.00    +0.005 A 
ATOM     13  C   UNL     1     -30.059  10.059   4.864  0.00  0.00    +0.016 A 
ATOM     14  C   UNL     1     -30.776   9.889   3.679  0.00  0.00    +0.065 A 
ATOM     15  C   UNL     1     -30.099   9.571   2.496  0.00  0.00    +0.078 A 
ATOM     16  N   UNL     1     -30.769   9.392   1.276  0.00  0.00    -0.237 NA
ATOM     17  C   UNL     1     -32.073   9.541   1.302  0.00  0.00    +0.199 C 
ATOM     18  N   UNL     1     -32.798   9.823   2.412  0.00  0.00    -0.313 N 
ATOM     19  H   UNL     1     -33.806   9.912   2.334  0.00  0.00    +0.170 HD
ATOM     20  C   UNL     1     -32.239   9.997   3.647  0.00  0.00    +0.259 C 
ATOM     21  O   UNL     1     -32.922  10.139   4.657  0.00  0.00    -0.267 OA
ATOM     22  C   UNL     1     -28.714   9.389   2.520  0.00  0.00    +0.032 A 
ENDBRANCH  10  11
BRANCH   9   1
ATOM      1  C   UNL     1     -25.136  10.965   2.672  0.00  0.00    +0.175 C 
ATOM      2  O   UNL     1     -25.392  11.659   3.640  0.00  0.00    -0.291 OA
BRANCH   1   3
ATOM      3  C   UNL     1     -24.321  11.467   1.564  0.00  0.00    +0.056 A 
ATOM      4  S   UNL     1     -23.676  13.083   1.638  0.00  0.00    -0.079 S 
ATOM      5  C   UNL     1     -22.982  12.905   0.066  0.00  0.00    +0.056 A 
ATOM      6  C   UNL     1     -23.197  11.690  -0.475  0.00  0.00    +0.024 A 
ATOM      7 BR   UNL     1     -22.121  14.358  -0.752  0.00  0.00    -0.043 Br
ATOM      8  C   UNL     1     -23.965  10.859   0.378  0.00  0.00    +0.020 A 
ENDBRANCH   1   3
ENDBRANCH   9   1
TORSDOF 3
