REMARK  Name = 2x9f_ligand
REMARK  4 active torsions:
REMARK  status: ('A' for Active; 'I' for Inactive)
REMARK    1  A    between atoms: N3_6  and  C11_7
REMARK    2  A    between atoms: C1_17  and  S1_18
REMARK    3  A    between atoms: S1_18  and  C2_21
REMARK    4  A    between atoms: C6_25  and  N1_26
REMARK                            x       y       z     vdW  Elec       q    Type
REMARK                         _______ _______ _______ _____ _____    ______ ____
ROOT
ATOM      1  C   UNL     1      13.607   6.254  11.844  0.00  0.00    +0.195 A 
ATOM      2  N   UNL     1      14.227   7.451  11.460  0.00  0.00    -0.244 N 
ATOM      3  H   UNL     1      15.241   7.414  11.355  0.00  0.00    +0.218 HD
ATOM     14  N   UNL     1      12.271   6.122  11.859  0.00  0.00    -0.234 NA
ATOM     15  C   UNL     1      11.745   4.947  12.222  0.00  0.00    +0.134 A 
ATOM     16  N   UNL     1      10.338   4.817  12.231  0.00  0.00    -0.255 N 
ATOM     17  H   UNL     1       9.763   5.587  11.889  0.00  0.00    +0.216 HD
ATOM     28  C   UNL     1      12.535   3.866  12.578  0.00  0.00    +0.057 A 
ATOM     29  C   UNL     1      13.882   4.072  12.541  0.00  0.00    +0.086 A 
ATOM     30  N   UNL     1      14.426   5.238  12.181  0.00  0.00    -0.269 NA
ENDROOT
BRANCH  16  18
ATOM     18  C   UNL     1       9.715   3.651  12.700  0.00  0.00    +0.079 A 
ATOM     19  C   UNL     1       9.169   2.695  11.847  0.00  0.00    +0.056 A 
ATOM     20  C   UNL     1       9.058   2.571  10.435  0.00  0.00    +0.240 A 
ATOM     21  N   UNL     1       8.425   1.430  10.116  0.00  0.00    -0.246 N 
ATOM     22  H   UNL     1       8.218   1.081   9.180  0.00  0.00    +0.293 HD
ATOM     23  N   UNL     1       8.121   0.843  11.291  0.00  0.00    -0.337 NA
ATOM     24  C   UNL     1       8.561   1.556  12.373  0.00  0.00    -0.023 A 
ATOM     25  C   UNL     1       8.463   1.277  13.722  0.00  0.00    -0.018 A 
ATOM     26  C   UNL     1       9.018   2.229  14.548  0.00  0.00    -0.013 A 
ATOM     27  C   UNL     1       9.611   3.376  14.052  0.00  0.00    +0.017 A 
ENDBRANCH  16  18
BRANCH   2   4
ATOM      4  C   UNL     1      13.626   8.700  11.201  0.00  0.00    +0.067 A 
ATOM      5  C   UNL     1      14.434   9.823  11.237  0.00  0.00    +0.042 A 
ATOM      6  C   UNL     1      13.889  11.066  10.983  0.00  0.00    +0.079 A 
ATOM      7  C   UNL     1      12.551  11.206  10.685  0.00  0.00    +0.005 A 
ATOM      8  C   UNL     1      11.748  10.085  10.642  0.00  0.00    -0.011 A 
ATOM     13  C   UNL     1      12.288   8.837  10.894  0.00  0.00    +0.016 A 
BRANCH   6   9
ATOM      9  S   UNL     1      14.929  12.519  11.044  0.00  0.00    -0.008 S 
ATOM     10  O   UNL     1      14.060  13.655  11.318  0.00  0.00    -0.170 OA
ATOM     11  O   UNL     1      15.715  12.505   9.818  0.00  0.00    -0.170 OA
ATOM     12  C   UNL     1      15.981  12.277  12.403  0.00  0.00    +0.200 C 
ENDBRANCH   6   9
ENDBRANCH   2   4
TORSDOF 3
