REMARK  Name = 3bbt_ligand
REMARK  4 active torsions:
REMARK  status: ('A' for Active; 'I' for Inactive)
REMARK    1  A    between atoms: N22_9  and  C23_10
REMARK    2  A    between atoms: C26_13  and  O27_14
REMARK    3  A    between atoms: O27_14  and  C28_15
REMARK    4  A    between atoms: C28_15  and  C29_16
REMARK                            x       y       z     vdW  Elec       q    Type
REMARK                         _______ _______ _______ _____ _____    ______ ____
ROOT
ATOM      7  C   UNL     1     -38.157  50.566  15.528  0.00  0.00    +0.059 A 
ATOM      8  C   UNL     1     -38.070  51.961  15.508  0.00  0.00    +0.022 A 
ATOM      9  C   UNL     1     -36.827  52.595  15.493  0.00  0.00    +0.060 A 
ATOM     10 CL   UNL     1     -36.732  54.390  15.460  0.00  0.00    -0.081 Cl
ATOM     11  C   UNL     1     -35.663  51.838  15.507  0.00  0.00    +0.098 A 
ATOM     21  C   UNL     1     -35.746  50.442  15.529  0.00  0.00    +0.012 A 
ATOM     22  C   UNL     1     -36.988  49.807  15.543  0.00  0.00    +0.008 A 
ENDROOT
BRANCH   7   5
ATOM      1  C   UNL     1     -43.107  47.930  15.828  0.00  0.00    +0.008 A 
ATOM      2  C   UNL     1     -41.875  48.582  15.763  0.00  0.00    +0.028 A 
ATOM      3  C   UNL     1     -41.514  49.277  14.605  0.00  0.00    +0.058 A 
ATOM      4  C   UNL     1     -40.288  49.941  14.504  0.00  0.00    +0.161 A 
ATOM      5  N   UNL     1     -39.409  49.924  15.549  0.00  0.00    -0.251 N 
ATOM      6  H   UNL     1     -39.678  49.412  16.401  0.00  0.00    +0.220 HD
ATOM     23  N   UNL     1     -39.996  50.598  13.352  0.00  0.00    -0.252 NA
ATOM     24  C   UNL     1     -40.859  50.619  12.322  0.00  0.00    +0.167 A 
ATOM     25  N   UNL     1     -42.042  49.988  12.397  0.00  0.00    -0.294 NA
ATOM     26  C   UNL     1     -42.392  49.315  13.518  0.00  0.00    +0.044 A 
ATOM     27  C   UNL     1     -43.624  48.664  13.586  0.00  0.00    +0.022 A 
ATOM     28  C   UNL     1     -43.982  47.969  14.741  0.00  0.00    +0.012 A 
ENDBRANCH   7   5
BRANCH  11  12
ATOM     12  O   UNL     1     -34.446  52.478  15.485  0.00  0.00    -0.311 OA
BRANCH  12  13
ATOM     13  C   UNL     1     -33.419  52.222  16.444  0.00  0.00    +0.257 C 
BRANCH  13  14
ATOM     14  C   UNL     1     -32.119  51.893  15.740  0.00  0.00    -0.015 A 
ATOM     15  C   UNL     1     -31.152  51.134  16.398  0.00  0.00    +0.030 A 
ATOM     16  C   UNL     1     -29.953  50.823  15.759  0.00  0.00    +0.126 A 
ATOM     17  F   UNL     1     -29.024  50.090  16.396  0.00  0.00    -0.185 F 
ATOM     18  C   UNL     1     -29.712  51.273  14.462  0.00  0.00    +0.019 A 
ATOM     19  C   UNL     1     -30.675  52.034  13.801  0.00  0.00    -0.011 A 
ATOM     20  C   UNL     1     -31.875  52.343  14.440  0.00  0.00    -0.010 A 
ENDBRANCH  13  14
ENDBRANCH  12  13
ENDBRANCH  11  12
TORSDOF 4
