REMARK  Name = J2Y
REMARK  4 active torsions:
REMARK  status: ('A' for Active; 'I' for Inactive)
REMARK    1  A    between atoms: C16_2  and  C7_17
REMARK    2  A    between atoms: C19_4  and  O26_27
REMARK    3  A    between atoms: C8_18  and  C10_20
REMARK    4  A    between atoms: C14_22  and  N22_24
REMARK                            x       y       z     vdW  Elec       q    Type
REMARK                         _______ _______ _______ _____ _____    ______ ____
ROOT
ATOM      4  C   UNL     1       4.599   9.555   6.114  0.00  0.00    +0.054 A 
ATOM      5  C   UNL     1       4.111   9.822   7.500  0.00  0.00    +0.102 A 
ATOM      6  N   UNL     1       4.617  10.597   8.483  0.00  0.00    -0.242 NA
ATOM      7  C   UNL     1       3.899  10.677   9.630  0.00  0.00    +0.099 A 
ATOM      8  C   UNL     1       2.691  10.013   9.835  0.00  0.00    +0.022 A 
ATOM      9  C   UNL     1       2.184   9.205   8.816  0.00  0.00    +0.022 A 
ATOM     10  C   UNL     1       2.924   9.102   7.633  0.00  0.00    +0.099 A 
ATOM     11  N   UNL     1       2.690   8.407   6.463  0.00  0.00    -0.244 NA
ATOM     12  C   UNL     1       3.692   8.689   5.544  0.00  0.00    +0.084 A 
ENDROOT
BRANCH   4   3
ATOM      1  C   UNL     1       7.978  10.864   5.640  0.00  0.00    +0.136 A 
ATOM      2  N   UNL     1       6.936  10.137   6.114  0.00  0.00    -0.241 NA
ATOM      3  C   UNL     1       5.746  10.260   5.495  0.00  0.00    +0.085 A 
ATOM     23  C   UNL     1       5.555  11.082   4.379  0.00  0.00    +0.022 A 
ATOM     24  C   UNL     1       6.632  11.816   3.905  0.00  0.00    +0.040 A 
ATOM     25  C   UNL     1       7.863  11.700   4.545  0.00  0.00    +0.158 A 
BRANCH  25  26
ATOM     26  O   UNL     1       8.914  12.375   3.967  0.00  0.00    -0.470 OA
ATOM     27  C   UNL     1      10.236  12.176   4.501  0.00  0.00    +0.253 C 
ENDBRANCH  25  26
ENDBRANCH   4   3
BRANCH  12  13
ATOM     13  C   UNL     1       3.591   8.130   4.184  0.00  0.00    +0.022 A 
ATOM     14  C   UNL     1       2.351   7.700   3.719  0.00  0.00    +0.038 A 
ATOM     15  C   UNL     1       2.292   7.012   2.494  0.00  0.00    +0.155 A 
ATOM     20  N   UNL     1       3.383   6.806   1.717  0.00  0.00    -0.227 NA
ATOM     21  C   UNL     1       4.562   7.266   2.176  0.00  0.00    +0.100 A 
ATOM     22  C   UNL     1       4.716   7.929   3.386  0.00  0.00    +0.022 A 
BRANCH  15  16
ATOM     16  N   UNL     1       1.092   6.456   1.987  0.00  0.00    -0.160 NA
ATOM     17  C   UNL     1      -0.145   6.392   2.575  0.00  0.00    +0.247 C 
ATOM     18  O   UNL     1      -0.398   6.872   3.677  0.00  0.00    -0.273 OA
ATOM     19  C   UNL     1      -1.223   5.731   1.753  0.00  0.00    +0.097 C 
ENDBRANCH  15  16
ENDBRANCH  12  13
TORSDOF 4
