REMARK  Name = 31P
REMARK  6 active torsions:
REMARK  status: ('A' for Active; 'I' for Inactive)
REMARK    1  A    between atoms: OAU_2  and  CAT_3
REMARK    2  A    between atoms: CAT_3  and  CAS_5
REMARK    3  A    between atoms: CAS_5  and  CBD_6
REMARK    4  A    between atoms: CAS_5  and  CAI_8
REMARK    5  A    between atoms: CAB_19  and  OAL_20
REMARK    6  A    between atoms: CAG_24  and  CAQ_25
REMARK                            x       y       z     vdW  Elec       q    Type
REMARK                         _______ _______ _______ _____ _____    ______ ____
ROOT
ATOM      6  C   UNL     1      69.750  -6.894  71.713  0.00  0.00    +0.172 C 
ATOM      7  N   UNL     1      69.612  -6.375  73.111  0.00  0.00    -0.264 NA
ATOM      8  C   UNL     1      70.069  -5.139  73.407  0.00  0.00    +0.078 C 
ATOM     16  C   UNL     1      70.575  -4.337  72.379  0.00  0.00    +0.036 A 
ATOM     17  C   UNL     1      71.736  -3.651  72.713  0.00  0.00    +0.040 A 
ATOM     18  C   UNL     1      72.357  -2.812  71.795  0.00  0.00    +0.139 A 
ATOM     21  C   UNL     1      71.807  -2.678  70.516  0.00  0.00    +0.038 A 
ATOM     22  C   UNL     1      70.650  -3.380  70.159  0.00  0.00    +0.021 A 
ATOM     23  C   UNL     1      70.021  -4.216  71.089  0.00  0.00    +0.068 A 
ATOM     24  N   UNL     1      68.928  -4.890  70.665  0.00  0.00    -0.279 N 
ATOM     25  C   UNL     1      67.835  -4.593  69.964  0.00  0.00    +0.147 A 
ATOM     26  N   UNL     1      67.053  -5.684  69.856  0.00  0.00    -0.133 NA
ATOM     27  N   UNL     1      67.625  -6.656  70.456  0.00  0.00    -0.131 NA
ATOM     28  C   UNL     1      67.519  -3.229  69.370  0.00  0.00    +0.074 C 
ATOM     29  C   UNL     1      68.783  -6.188  70.960  0.00  0.00    +0.170 A 
ENDROOT
BRANCH   8   9
ATOM      9  C   UNL     1      69.935  -4.629  74.717  0.00  0.00    +0.017 A 
ATOM     10  C   UNL     1      70.039  -5.488  75.812  0.00  0.00    +0.002 A 
ATOM     11  C   UNL     1      69.905  -5.000  77.111  0.00  0.00    +0.011 A 
ATOM     12  C   UNL     1      69.659  -3.648  77.337  0.00  0.00    +0.058 A 
ATOM     13 CL   UNL     1      69.493  -3.073  78.963  0.00  0.00    -0.082 Cl
ATOM     14  C   UNL     1      69.558  -2.778  76.263  0.00  0.00    +0.011 A 
ATOM     15  C   UNL     1      69.689  -3.266  74.956  0.00  0.00    +0.002 A 
ENDBRANCH   8   9
BRANCH  18  19
ATOM     19  O   UNL     1      73.481  -2.163  72.236  0.00  0.00    -0.471 OA
ATOM     20  C   UNL     1      74.253  -1.404  71.289  0.00  0.00    +0.253 C 
ENDBRANCH  18  19
BRANCH   6   5
ATOM      5  C   UNL     1      69.795  -8.414  71.557  0.00  0.00    +0.129 C 
BRANCH   5   3
ATOM      3  C   UNL     1      70.789  -8.974  72.588  0.00  0.00    +0.319 C 
ATOM      4  O   UNL     1      71.747  -8.310  73.003  0.00  0.00    -0.250 OA
BRANCH   3   2
ATOM      1  C   UNL     1      71.869 -10.958  73.041  0.00  0.00    +0.256 C 
ATOM      2  O   UNL     1      70.618 -10.280  72.862  0.00  0.00    -0.444 OA
ENDBRANCH   3   2
ENDBRANCH   5   3
BRANCH   5  30
ATOM     30  C   UNL     1      70.469  -8.875  70.279  0.00  0.00    +0.014 C 
ATOM     31  C   UNL     1      70.130  -8.022  69.073  0.00  0.00    +0.001 C 
ENDBRANCH   5  30
ENDBRANCH   6   5
TORSDOF 6
