REMARK  Name = 3ZS5
REMARK  5 active torsions:
REMARK  status: ('A' for Active; 'I' for Inactive)
REMARK    1  A    between atoms: C_2  and  S_3
REMARK    2  A    between atoms: S_3  and  C_6
REMARK    3  A    between atoms: C_9  and  C_17
REMARK    4  A    between atoms: C_13  and  C_20
REMARK    5  A    between atoms: C_19  and  C_26
REMARK                            x       y       z     vdW  Elec       q    Type
REMARK                         _______ _______ _______ _____ _____    ______ ____
ROOT
ATOM      7  C   UNL     1      22.407  36.020  19.093  0.00  0.00    +0.139 A 
ATOM      8  N   UNL     1      22.863  34.790  18.930  0.00  0.00    -0.337 N 
ATOM      9  H   UNL     1      23.010  34.071  19.709  0.00  0.00    +0.167 HD
ATOM     10  C   UNL     1      23.114  34.590  17.610  0.00  0.00    +0.074 A 
ATOM     18  C   UNL     1      22.778  35.745  16.923  0.00  0.00    +0.097 A 
ATOM     25  N   UNL     1      22.303  36.634  17.887  0.00  0.00    -0.227 NA
ENDROOT
BRANCH  10  11
ATOM     11  C   UNL     1      23.672  33.310  17.108  0.00  0.00    +0.001 A 
ATOM     12  C   UNL     1      24.814  33.315  16.292  0.00  0.00    +0.013 A 
ATOM     13  C   UNL     1      25.343  32.120  15.866  0.00  0.00    +0.039 A 
ATOM     14  C   UNL     1      24.764  30.921  16.240  0.00  0.00    +0.123 A 
ATOM     15  F   UNL     1      25.277  29.744  15.808  0.00  0.00    -0.205 F 
ATOM     16  C   UNL     1      23.636  30.904  17.055  0.00  0.00    +0.039 A 
ATOM     17  C   UNL     1      23.097  32.096  17.496  0.00  0.00    +0.013 A 
ENDBRANCH  10  11
BRANCH   7   6
ATOM      3  C   UNL     1      21.017  37.652  22.782  0.00  0.00    +0.039 A 
ATOM      4  C   UNL     1      20.811  38.339  21.599  0.00  0.00    +0.018 A 
ATOM      5  C   UNL     1      21.268  37.819  20.399  0.00  0.00    +0.012 A 
ATOM      6  C   UNL     1      21.964  36.610  20.376  0.00  0.00    +0.017 A 
ATOM     26  C   UNL     1      22.129  35.897  21.567  0.00  0.00    +0.012 A 
ATOM     27  C   UNL     1      21.676  36.437  22.762  0.00  0.00    +0.018 A 
BRANCH   3   2
ATOM      1  O   UNL     1      21.495  39.217  24.628  0.00  0.00    -0.252 OA
ATOM      2  S   UNL     1      20.425  38.352  24.314  0.00  0.00    +0.051 S 
ATOM     28  C   UNL     1      20.471  36.895  25.395  0.00  0.00    +0.127 C 
ENDBRANCH   3   2
ENDBRANCH   7   6
BRANCH  18  19
ATOM     19  C   UNL     1      22.740  36.052  15.478  0.00  0.00    +0.005 A 
ATOM     20  C   UNL     1      22.461  35.045  14.548  0.00  0.00    +0.030 A 
ATOM     21  C   UNL     1      22.391  35.372  13.207  0.00  0.00    +0.111 A 
ATOM     22  N   UNL     1      22.532  36.621  12.770  0.00  0.00    -0.263 NA
ATOM     23  C   UNL     1      22.780  37.615  13.626  0.00  0.00    +0.111 A 
ATOM     24  C   UNL     1      22.883  37.366  14.982  0.00  0.00    +0.030 A 
ENDBRANCH  18  19
TORSDOF 4
