REMARK  Name = 3d83_ligand
REMARK  7 active torsions:
REMARK  status: ('A' for Active; 'I' for Inactive)
REMARK    1  A    between atoms: C24_2  and  C21_8
REMARK    2  A    between atoms: N4_3  and  C25_4
REMARK    3  A    between atoms: C25_4  and  C26_5
REMARK    4  A    between atoms: C18_13  and  C17_14
REMARK    5  A    between atoms: C2_15  and  C1_16
REMARK    6  A    between atoms: C5_18  and  N1_21
REMARK    7  A    between atoms: C6_22  and  C7_24
REMARK                            x       y       z     vdW  Elec       q    Type
REMARK                         _______ _______ _______ _____ _____    ______ ____
ROOT
ATOM      7  C   UNL     1      41.122  31.128  32.335  0.00  0.00    -0.026 A 
ATOM      8  C   UNL     1      40.990  30.150  33.336  0.00  0.00    +0.011 A 
ATOM      9  C   UNL     1      39.724  29.613  33.676  0.00  0.00    +0.061 A 
ATOM     26  C   UNL     1      38.579  30.037  32.991  0.00  0.00    +0.004 A 
ATOM     27  C   UNL     1      38.705  30.995  31.966  0.00  0.00    -0.018 A 
ATOM     28  C   UNL     1      39.964  31.526  31.645  0.00  0.00    -0.050 A 
ATOM     29  C   UNL     1      40.047  32.566  30.552  0.00  0.00    +0.076 C 
ENDROOT
BRANCH   7   6
ATOM      3  C   UNL     1      44.713  33.005  31.055  0.00  0.00    +0.048 A 
ATOM      4  C   UNL     1      43.832  33.667  31.915  0.00  0.00    +0.024 A 
ATOM      5  C   UNL     1      42.654  33.028  32.352  0.00  0.00    +0.011 A 
ATOM      6  C   UNL     1      42.346  31.722  31.944  0.00  0.00    -0.021 A 
ATOM     30  C   UNL     1      43.219  31.071  31.075  0.00  0.00    +0.011 A 
ATOM     31  C   UNL     1      44.399  31.712  30.636  0.00  0.00    +0.024 A 
BRANCH   3   2
ATOM      1  O   UNL     1      46.293  34.818  30.977  0.00  0.00    -0.386 OA
ATOM      2  C   UNL     1      46.001  33.685  30.574  0.00  0.00    +0.204 C 
ATOM     32  N   UNL     1      46.775  33.042  29.677  0.00  0.00    -0.286 N 
ATOM     33  H   UNL     1      46.507  32.121  29.393  0.00  0.00    +0.184 HD
BRANCH  32  34
ATOM     34  C   UNL     1      47.987  33.621  29.097  0.00  0.00    +0.138 C 
BRANCH  34  35
ATOM     35  C   UNL     1      49.069  32.561  28.847  0.00  0.00    +0.011 C 
ATOM     36  C   UNL     1      49.713  32.097  30.154  0.00  0.00    +0.006 C 
ATOM     37  C   UNL     1      50.423  33.126  29.281  0.00  0.00    +0.006 C 
ENDBRANCH  34  35
ENDBRANCH  32  34
ENDBRANCH   3   2
ENDBRANCH   7   6
BRANCH   9  10
ATOM     10  N   UNL     1      39.581  28.685  34.669  0.00  0.00    -0.235 N 
ATOM     11  H   UNL     1      38.964  27.919  34.490  0.00  0.00    +0.223 HD
ATOM     12  C   UNL     1      40.202  28.710  35.876  0.00  0.00    +0.237 C 
ATOM     25  O   UNL     1      41.120  29.470  36.168  0.00  0.00    -0.369 OA
BRANCH  12  13
ATOM     13  C   UNL     1      39.799  27.713  36.957  0.00  0.00    +0.063 A 
ATOM     14  C   UNL     1      39.185  26.500  36.604  0.00  0.00    +0.036 A 
ATOM     15  C   UNL     1      38.861  25.597  37.623  0.00  0.00    +0.080 A 
ATOM     16  N   UNL     1      39.150  25.884  38.914  0.00  0.00    -0.281 NA
ATOM     17  C   UNL     1      39.745  27.041  39.298  0.00  0.00    +0.119 A 
ATOM     18  N   UNL     1      40.060  27.277  40.659  0.00  0.00    -0.289 N 
ATOM     19  C   UNL     1      40.592  28.605  41.032  0.00  0.00    +0.162 C 
ATOM     20  C   UNL     1      40.355  28.840  42.526  0.00  0.00    +0.184 C 
ATOM     21  O   UNL     1      40.774  27.698  43.270  0.00  0.00    -0.376 OA
ATOM     22  C   UNL     1      39.854  26.637  43.027  0.00  0.00    +0.184 C 
ATOM     23  C   UNL     1      39.984  26.146  41.584  0.00  0.00    +0.162 C 
ATOM     24  C   UNL     1      40.100  27.985  38.311  0.00  0.00    +0.070 A 
ENDBRANCH  12  13
ENDBRANCH   9  10
TORSDOF 6
