REMARK  Name = 1ZLT
REMARK  1 active torsions:
REMARK  status: ('A' for Active; 'I' for Inactive)
REMARK    1  A    between atoms: C_13  and  C_14
REMARK                            x       y       z     vdW  Elec       q    Type
REMARK                         _______ _______ _______ _____ _____    ______ ____
ROOT
ATOM      1  C   UNL     1      12.995  -0.988  10.299  0.00  0.00    +0.039 C 
ATOM      2  C   UNL     1      13.957  -1.767  11.197  0.00  0.00    +0.082 C 
ATOM     12  C   UNL     1      15.302  -1.871  10.844  0.00  0.00    +0.019 A 
ATOM     13  C   UNL     1      16.200  -2.879  11.174  0.00  0.00    +0.084 A 
ATOM     14 CL   UNL     1      15.850  -4.471  11.890  0.00  0.00    -0.080 Cl
ATOM     15  C   UNL     1      17.451  -2.538  10.679  0.00  0.00    +0.149 A 
ATOM     16 CL   UNL     1      18.997  -3.388  10.916  0.00  0.00    -0.060 Cl
ATOM     17  N   UNL     1      17.262  -1.382  10.049  0.00  0.00    -0.229 NA
ATOM     18  C   UNL     1      16.009  -0.928  10.100  0.00  0.00    +0.133 A 
ATOM     19  C   UNL     1      15.604   0.366   9.384  0.00  0.00    +0.263 C 
ATOM     20  O   UNL     1      16.439   0.883   8.643  0.00  0.00    -0.269 OA
ATOM     21  N   UNL     1      14.410   0.932   9.566  0.00  0.00    -0.310 N 
ATOM     22  H   UNL     1      14.244   1.830   9.009  0.00  0.00    +0.149 HD
ATOM     23  C   UNL     1      13.286   0.509  10.417  0.00  0.00    +0.106 C 
ENDROOT
BRANCH   2   3
ATOM      3  C   UNL     1      13.469  -2.309  12.387  0.00  0.00    +0.211 C 
ATOM      4  C   UNL     1      12.173  -2.351  12.899  0.00  0.00    +0.372 C 
ATOM      5  N   UNL     1      12.258  -2.921  14.098  0.00  0.00    +0.004 NA
ATOM      6  C   UNL     1      13.534  -3.214  14.326  0.00  0.00    +0.410 C 
ATOM      7  N   UNL     1      13.981  -3.787  15.440  0.00  0.00    -0.249 N 
ATOM      8  H   UNL     1      13.296  -4.045  16.221  0.00  0.00    +0.241 HD
ATOM      9  H   UNL     1      15.025  -3.990  15.555  0.00  0.00    +0.241 HD
ATOM     10  O   UNL     1      11.143  -1.919  12.382  0.00  0.00    -0.245 OA
ATOM     11  N   UNL     1      14.284  -2.849  13.290  0.00  0.00    -0.071 NA
ENDBRANCH   2   3
TORSDOF 1
