REMARK  Name = 5MOH
REMARK  3 active torsions:
REMARK  status: ('A' for Active; 'I' for Inactive)
REMARK    1  A    between atoms: C1_1  and  O_12
REMARK    2  A    between atoms: C3_3  and  C4_6
REMARK    3  A    between atoms: C4_6  and  C5_7
REMARK                            x       y       z     vdW  Elec       q    Type
REMARK                         _______ _______ _______ _____ _____    ______ ____
ROOT
ATOM      1  C   UNL     1    -123.446-180.381 314.013  0.00  0.00    +0.185 A 
ATOM      4  C   UNL     1    -123.702-180.927 315.279  0.00  0.00    +0.250 A 
ATOM      5  O   UNL     1    -123.794-180.151 316.395  0.00  0.00    -0.650 OA
ATOM      6  C   UNL     1    -123.868-182.296 315.398  0.00  0.00    -0.130 A 
ATOM      7  C   UNL     1    -123.772-183.114 314.287  0.00  0.00    -0.130 A 
ATOM      8  C   UNL     1    -123.512-182.590 313.030  0.00  0.00    +0.000 A 
ATOM     13  C   UNL     1    -123.347-181.212 312.906  0.00  0.00    -0.130 A 
ENDROOT
BRANCH   1   2
ATOM      2  O   UNL     1    -123.329-179.018 313.996  0.00  0.00    -0.365 OA
ATOM      3  C   UNL     1    -123.214-178.370 312.728  0.00  0.00    +0.030 C 
ENDBRANCH   1   2
BRANCH   8   9
ATOM      9  C   UNL     1    -123.477-183.473 311.799  0.00  0.00    -0.100 C 
BRANCH   9  10
ATOM     10  C   UNL     1    -122.956-184.894 311.812  0.00  0.00    +0.700 C 
ATOM     11  O   UNL     1    -122.925-185.562 310.796  0.00  0.00    -0.550 OA
ATOM     12  O   UNL     1    -122.550-185.380 312.977  0.00  0.00    -0.400 OA
ENDBRANCH   9  10
ENDBRANCH   8   9
TORSDOF 3
