REMARK  Name = 3agm_ligand
REMARK  62 active torsions:
REMARK  status: ('A' for Active; 'I' for Inactive)
REMARK    1  A    between atoms: C6_6  and  N6_7
REMARK    2  A    between atoms: CAX_18  and  CAY_19
REMARK    3  A    between atoms: CAX_18  and  CAZ_20
REMARK    4  A    between atoms: CAY_19  and  CBA_21
REMARK    5  A    between atoms: CAZ_20  and  CBN_22
REMARK    6  A    between atoms: CBA_21  and  CBO_23
REMARK    7  A    between atoms: CBN_22  and  CCW_24
REMARK    8  A    between atoms: CBO_23  and  CCX_25
REMARK    9  A    between atoms: NCI_26  and  CDH_27
REMARK   10  A    between atoms: CDH_27  and  CBQ_28
REMARK   11  A    between atoms: CDH_27  and  CCY_35
REMARK   12  A    between atoms: CBQ_28  and  CBC_29
REMARK   13  A    between atoms: CBC_29  and  CBI_30
REMARK   14  A    between atoms: CBI_30  and  NCD_31
REMARK   15  A    between atoms: NCD_31  and  CCQ_32
REMARK   16  A    between atoms: CCQ_32  and  NAB_33
REMARK   17  A    between atoms: CCQ_32  and  NAH_34
REMARK   18  A    between atoms: NCK_37  and  CDJ_38
REMARK   19  A    between atoms: CDJ_38  and  CBS_39
REMARK   20  A    between atoms: CDJ_38  and  CDB_46
REMARK   21  A    between atoms: CBS_39  and  CBE_40
REMARK   22  A    between atoms: CBE_40  and  CBK_41
REMARK   23  A    between atoms: CBK_41  and  NCF_42
REMARK   24  A    between atoms: NCF_42  and  CCS_43
REMARK   25  A    between atoms: CCS_43  and  NAD_44
REMARK   26  A    between atoms: CCS_43  and  NAJ_45
REMARK   27  A    between atoms: NCM_48  and  CDL_49
REMARK   28  A    between atoms: CDL_49  and  CBU_50
REMARK   29  A    between atoms: CDL_49  and  CDC_57
REMARK   30  A    between atoms: CBU_50  and  CBG_51
REMARK   31  A    between atoms: CBG_51  and  CBM_52
REMARK   32  A    between atoms: CBM_52  and  NCH_53
REMARK   33  A    between atoms: NCH_53  and  CCU_54
REMARK   34  A    between atoms: CCU_54  and  NAF_55
REMARK   35  A    between atoms: CCU_54  and  NAL_56
REMARK   36  A    between atoms: NCN_59  and  CDK_60
REMARK   37  A    between atoms: CDK_60  and  CBT_61
REMARK   38  A    between atoms: CDK_60  and  CDA_68
REMARK   39  A    between atoms: CBT_61  and  CBF_62
REMARK   40  A    between atoms: CBF_62  and  CBL_63
REMARK   41  A    between atoms: CBL_63  and  NCG_64
REMARK   42  A    between atoms: NCG_64  and  CCT_65
REMARK   43  A    between atoms: CCT_65  and  NAE_66
REMARK   44  A    between atoms: CCT_65  and  NAK_67
REMARK   45  A    between atoms: NCL_70  and  CDI_71
REMARK   46  A    between atoms: CDI_71  and  CBR_72
REMARK   47  A    between atoms: CDI_71  and  CCZ_79
REMARK   48  A    between atoms: CBR_72  and  CBD_73
REMARK   49  A    between atoms: CBD_73  and  CBJ_74
REMARK   50  A    between atoms: CBJ_74  and  NCE_75
REMARK   51  A    between atoms: NCE_75  and  CCR_76
REMARK   52  A    between atoms: CCR_76  and  NAC_77
REMARK   53  A    between atoms: CCR_76  and  NAI_78
REMARK   54  A    between atoms: N_81  and  CA_82
REMARK   55  A    between atoms: CA_82  and  CB_83
REMARK   56  A    between atoms: CA_82  and  C_90
REMARK   57  A    between atoms: CB_83  and  CG_84
REMARK   58  A    between atoms: CG_84  and  CD_85
REMARK   59  A    between atoms: CD_85  and  NE_86
REMARK   60  A    between atoms: NE_86  and  CZ_87
REMARK   61  A    between atoms: CZ_87  and  NH1_88
REMARK   62  A    between atoms: CZ_87  and  NH2_89
REMARK                            x       y       z     vdW  Elec       q    Type
REMARK                         _______ _______ _______ _____ _____    ______ ____
ROOT
ATOM     25  C   UNL     1     -30.509  16.088  14.652  0.00  0.00    +0.211 C 
ENDROOT
BRANCH  25  23
ATOM     22  C   UNL     1     -31.945  14.770  13.194  0.00  0.00    +0.204 C 
ATOM     23  N   UNL     1     -31.044  14.818  14.163  0.00  0.00    -0.264 N 
ATOM     24  H   UNL     1     -30.715  13.947  14.579  0.00  0.00    +0.188 HD
ATOM     94  O   UNL     1     -32.424  15.765  12.653  0.00  0.00    -0.394 OA
BRANCH  22  21
ATOM     21  C   UNL     1     -32.337  13.348  12.742  0.00  0.00    +0.211 C 
BRANCH  21  19
ATOM     18  C   UNL     1     -31.141  13.547  10.582  0.00  0.00    +0.204 C 
ATOM     19  N   UNL     1     -32.250  13.305  11.273  0.00  0.00    -0.264 N 
ATOM     20  H   UNL     1     -33.096  13.075  10.752  0.00  0.00    +0.188 HD
ATOM    107  O   UNL     1     -30.036  13.749  11.085  0.00  0.00    -0.394 OA
BRANCH  18  17
ATOM     17  C   UNL     1     -31.312  13.482   9.058  0.00  0.00    +0.211 C 
BRANCH  17  15
ATOM     14  C   UNL     1     -29.600  11.798   8.541  0.00  0.00    +0.178 C 
ATOM     15  N   UNL     1     -30.047  13.051   8.410  0.00  0.00    -0.266 N 
ATOM     16  H   UNL     1     -29.512  13.721   7.857  0.00  0.00    +0.188 HD
ATOM    120  O   UNL     1     -30.161  10.948   9.228  0.00  0.00    -0.397 OA
BRANCH  14  13
ATOM     13  C   UNL     1     -28.298  11.459   7.810  0.00  0.00    +0.138 C 
BRANCH  13  12
ATOM     12  C   UNL     1     -27.314  10.744   8.738  0.00  0.00    +0.022 C 
BRANCH  12  11
ATOM     11  C   UNL     1     -26.516  11.803   9.514  0.00  0.00    +0.003 C 
BRANCH  11  10
ATOM     10  C   UNL     1     -25.503  11.168  10.463  0.00  0.00    +0.003 C 
BRANCH  10   9
ATOM      9  C   UNL     1     -24.972  12.206  11.460  0.00  0.00    +0.022 C 
BRANCH   9   8
ATOM      8  C   UNL     1     -24.059  13.250  10.782  0.00  0.00    +0.138 C 
BRANCH   8   7
ATOM      3  N   UNL     1     -19.450  14.716  10.757  0.00  0.00    -0.283 N 
ATOM      4  C   UNL     1     -20.486  14.585   9.682  0.00  0.00    +0.163 C 
ATOM      5  C   UNL     1     -21.868  15.062  10.116  0.00  0.00    +0.163 C 
ATOM      6  N   UNL     1     -22.106  14.647  11.516  0.00  0.00    -0.269 N 
ATOM      7  C   UNL     1     -23.097  13.802  11.837  0.00  0.00    +0.179 C 
ATOM    121  O   UNL     1     -23.254  13.484  13.016  0.00  0.00    -0.397 OA
ATOM    122  C   UNL     1     -21.175  15.151  12.563  0.00  0.00    +0.163 C 
ATOM    123  C   UNL     1     -19.778  14.603  12.217  0.00  0.00    +0.163 C 
BRANCH   3   2
ATOM      1  N   UNL     1     -17.178  14.589  11.416  0.00  0.00    -0.270 NA
ATOM      2  C   UNL     1     -18.072  14.702  10.414  0.00  0.00    +0.135 A 
ATOM    124  C   UNL     1     -17.589  14.757   9.103  0.00  0.00    +0.105 A 
ATOM    125  N   UNL     1     -18.148  14.868   7.892  0.00  0.00    -0.296 NA
ATOM    126  C   UNL     1     -17.181  14.878   6.973  0.00  0.00    +0.242 A 
ATOM    127  N   UNL     1     -15.995  14.783   7.596  0.00  0.00    -0.236 N 
ATOM    128  H   UNL     1     -15.082  14.770   7.141  0.00  0.00    +0.239 HD
ATOM    129  C   UNL     1     -16.210  14.709   8.902  0.00  0.00    +0.157 A 
ATOM    130  N   UNL     1     -15.378  14.612   9.950  0.00  0.00    -0.272 NA
ATOM    131  C   UNL     1     -15.861  14.555  11.178  0.00  0.00    +0.153 A 
ENDBRANCH   3   2
ENDBRANCH   8   7
ENDBRANCH   9   8
ENDBRANCH  10   9
ENDBRANCH  11  10
ENDBRANCH  12  11
ENDBRANCH  13  12
ENDBRANCH  14  13
ENDBRANCH  17  15
BRANCH  17 108
ATOM    108  C   UNL     1     -31.805  14.818   8.449  0.00  0.00    +0.053 C 
BRANCH 108 109
ATOM    109  C   UNL     1     -32.226  15.838   9.522  0.00  0.00    +0.045 C 
BRANCH 109 110
ATOM    110  C   UNL     1     -32.722  17.146   8.912  0.00  0.00    +0.201 C 
BRANCH 110 111
ATOM    111  N   UNL     1     -31.656  17.538   8.002  0.00  0.00    -0.272 NA
ATOM    112  H   UNL     1     -31.406  16.883   7.261  0.00  0.00    +0.264 HD
BRANCH 111 113
ATOM    113  C   UNL     1     -30.984  18.681   8.060  0.00  0.00    +0.288 C 
BRANCH 113 114
ATOM    114  N   UNL     1     -30.032  18.786   7.165  0.00  0.00    -0.285 NA
ATOM    115  H   UNL     1     -29.458  19.628   7.128  0.00  0.00    +0.262 HD
ATOM    116  H   UNL     1     -29.866  18.026   6.506  0.00  0.00    +0.262 HD
ENDBRANCH 113 114
BRANCH 113 117
ATOM    117  N   UNL     1     -31.244  19.686   8.895  0.00  0.00    -0.285 NA
ATOM    118  H   UNL     1     -30.673  20.531   8.870  0.00  0.00    +0.262 HD
ATOM    119  H   UNL     1     -32.014  19.611   9.560  0.00  0.00    +0.262 HD
ENDBRANCH 113 117
ENDBRANCH 111 113
ENDBRANCH 110 111
ENDBRANCH 109 110
ENDBRANCH 108 109
ENDBRANCH  17 108
ENDBRANCH  18  17
ENDBRANCH  21  19
BRANCH  21  95
ATOM     95  C   UNL     1     -33.783  13.013  13.126  0.00  0.00    +0.053 C 
BRANCH  95  96
ATOM     96  C   UNL     1     -34.222  13.557  14.490  0.00  0.00    +0.045 C 
BRANCH  96  97
ATOM     97  C   UNL     1     -35.717  13.289  14.716  0.00  0.00    +0.201 C 
BRANCH  97  98
ATOM     98  N   UNL     1     -36.516  13.987  13.686  0.00  0.00    -0.272 NA
ATOM     99  H   UNL     1     -36.145  14.055  12.738  0.00  0.00    +0.264 HD
BRANCH  98 100
ATOM    100  C   UNL     1     -37.709  14.533  13.952  0.00  0.00    +0.288 C 
BRANCH 100 101
ATOM    101  N   UNL     1     -38.370  15.134  12.965  0.00  0.00    -0.285 NA
ATOM    102  H   UNL     1     -39.281  15.557  13.145  0.00  0.00    +0.262 HD
ATOM    103  H   UNL     1     -37.966  15.172  12.029  0.00  0.00    +0.262 HD
ENDBRANCH 100 101
BRANCH 100 104
ATOM    104  N   UNL     1     -38.246  14.479  15.177  0.00  0.00    -0.285 NA
ATOM    105  H   UNL     1     -39.157  14.903  15.354  0.00  0.00    +0.262 HD
ATOM    106  H   UNL     1     -37.745  14.014  15.934  0.00  0.00    +0.262 HD
ENDBRANCH 100 104
ENDBRANCH  98 100
ENDBRANCH  97  98
ENDBRANCH  96  97
ENDBRANCH  95  96
ENDBRANCH  21  95
ENDBRANCH  22  21
ENDBRANCH  25  23
BRANCH  25  26
ATOM     26  C   UNL     1     -31.432  16.791  15.671  0.00  0.00    +0.204 C 
ATOM     27  N   UNL     1     -31.855  17.993  15.281  0.00  0.00    -0.264 N 
ATOM     28  H   UNL     1     -31.643  18.303  14.333  0.00  0.00    +0.188 HD
ATOM     81  O   UNL     1     -31.712  16.282  16.757  0.00  0.00    -0.394 OA
BRANCH  27  29
ATOM     29  C   UNL     1     -32.616  18.890  16.165  0.00  0.00    +0.211 C 
BRANCH  29  30
ATOM     30  C   UNL     1     -31.522  19.454  17.095  0.00  0.00    +0.204 C 
ATOM     31  N   UNL     1     -31.618  19.099  18.370  0.00  0.00    -0.264 N 
ATOM     32  H   UNL     1     -32.413  18.532  18.665  0.00  0.00    +0.188 HD
ATOM     68  O   UNL     1     -30.554  20.061  16.639  0.00  0.00    -0.394 OA
BRANCH  31  33
ATOM     33  C   UNL     1     -30.615  19.496  19.376  0.00  0.00    +0.211 C 
BRANCH  33  34
ATOM     34  C   UNL     1     -31.001  20.834  19.975  0.00  0.00    +0.204 C 
ATOM     35  N   UNL     1     -30.190  21.817  19.599  0.00  0.00    -0.264 N 
ATOM     36  H   UNL     1     -29.412  21.609  18.973  0.00  0.00    +0.188 HD
ATOM     55  O   UNL     1     -31.983  20.958  20.714  0.00  0.00    -0.394 OA
BRANCH  35  37
ATOM     37  C   UNL     1     -30.386  23.186  20.061  0.00  0.00    +0.211 C 
BRANCH  37  38
ATOM     38  C   UNL     1     -29.477  23.365  21.278  0.00  0.00    +0.199 C 
ATOM     39  N   UNL     1     -28.802  22.277  21.656  0.00  0.00    -0.299 N 
ATOM     40  H   UNL     1     -28.910  21.404  21.139  0.00  0.00    +0.181 HD
ATOM     41  H   UNL     1     -28.178  22.318  22.462  0.00  0.00    +0.181 HD
ATOM     42  O   UNL     1     -29.403  24.444  21.841  0.00  0.00    -0.395 OA
ENDBRANCH  37  38
BRANCH  37  43
ATOM     43  C   UNL     1     -30.062  24.183  18.934  0.00  0.00    +0.053 C 
BRANCH  43  44
ATOM     44  C   UNL     1     -30.821  23.824  17.635  0.00  0.00    +0.045 C 
BRANCH  44  45
ATOM     45  C   UNL     1     -30.790  24.959  16.602  0.00  0.00    +0.201 C 
BRANCH  45  46
ATOM     46  N   UNL     1     -29.417  25.168  16.115  0.00  0.00    -0.272 NA
ATOM     47  H   UNL     1     -28.924  24.395  15.668  0.00  0.00    +0.264 HD
BRANCH  46  48
ATOM     48  C   UNL     1     -28.802  26.342  16.243  0.00  0.00    +0.288 C 
BRANCH  48  49
ATOM     49  N   UNL     1     -29.389  27.386  16.856  0.00  0.00    -0.285 NA
ATOM     50  H   UNL     1     -28.893  28.273  16.939  0.00  0.00    +0.262 HD
ATOM     51  H   UNL     1     -30.330  27.290  17.238  0.00  0.00    +0.262 HD
ENDBRANCH  48  49
BRANCH  48  52
ATOM     52  N   UNL     1     -27.554  26.463  15.789  0.00  0.00    -0.285 NA
ATOM     53  H   UNL     1     -27.064  27.353  15.877  0.00  0.00    +0.262 HD
ATOM     54  H   UNL     1     -27.090  25.666  15.354  0.00  0.00    +0.262 HD
ENDBRANCH  48  52
ENDBRANCH  46  48
ENDBRANCH  45  46
ENDBRANCH  44  45
ENDBRANCH  43  44
ENDBRANCH  37  43
ENDBRANCH  35  37
ENDBRANCH  33  34
BRANCH  33  56
ATOM     56  C   UNL     1     -30.498  18.438  20.476  0.00  0.00    +0.053 C 
BRANCH  56  57
ATOM     57  C   UNL     1     -30.256  17.076  19.834  0.00  0.00    +0.045 C 
BRANCH  57  58
ATOM     58  C   UNL     1     -28.803  16.631  19.979  0.00  0.00    +0.201 C 
BRANCH  58  59
ATOM     59  N   UNL     1     -28.735  15.197  19.655  0.00  0.00    -0.272 NA
ATOM     60  H   UNL     1     -28.211  14.910  18.828  0.00  0.00    +0.264 HD
BRANCH  59  61
ATOM     61  C   UNL     1     -29.331  14.247  20.398  0.00  0.00    +0.288 C 
BRANCH  61  65
ATOM     65  N   UNL     1     -30.004  14.534  21.517  0.00  0.00    -0.285 NA
ATOM     66  H   UNL     1     -30.443  13.786  22.054  0.00  0.00    +0.262 HD
ATOM     67  H   UNL     1     -30.079  15.501  21.834  0.00  0.00    +0.262 HD
ENDBRANCH  61  65
BRANCH  61  62
ATOM     62  N   UNL     1     -29.232  12.979  20.008  0.00  0.00    -0.285 NA
ATOM     63  H   UNL     1     -29.675  12.241  20.555  0.00  0.00    +0.262 HD
ATOM     64  H   UNL     1     -28.713  12.745  19.162  0.00  0.00    +0.262 HD
ENDBRANCH  61  62
ENDBRANCH  59  61
ENDBRANCH  58  59
ENDBRANCH  57  58
ENDBRANCH  56  57
ENDBRANCH  33  56
ENDBRANCH  31  33
ENDBRANCH  29  30
BRANCH  29  69
ATOM     69  C   UNL     1     -33.302  19.981  15.331  0.00  0.00    +0.053 C 
BRANCH  69  70
ATOM     70  C   UNL     1     -33.850  21.151  16.170  0.00  0.00    +0.045 C 
BRANCH  70  71
ATOM     71  C   UNL     1     -34.467  22.231  15.270  0.00  0.00    +0.201 C 
BRANCH  71  72
ATOM     72  N   UNL     1     -34.789  23.440  16.061  0.00  0.00    -0.272 NA
ATOM     73  H   UNL     1     -34.098  24.184  16.152  0.00  0.00    +0.264 HD
BRANCH  72  74
ATOM     74  C   UNL     1     -35.980  23.564  16.658  0.00  0.00    +0.288 C 
BRANCH  74  75
ATOM     75  N   UNL     1     -36.259  24.661  17.360  0.00  0.00    -0.285 NA
ATOM     76  H   UNL     1     -37.166  24.758  17.816  0.00  0.00    +0.262 HD
ATOM     77  H   UNL     1     -35.565  25.404  17.442  0.00  0.00    +0.262 HD
ENDBRANCH  74  75
BRANCH  74  78
ATOM     78  N   UNL     1     -36.903  22.601  16.560  0.00  0.00    -0.285 NA
ATOM     79  H   UNL     1     -37.806  22.711  17.021  0.00  0.00    +0.262 HD
ATOM     80  H   UNL     1     -36.704  21.756  16.024  0.00  0.00    +0.262 HD
ENDBRANCH  74  78
ENDBRANCH  72  74
ENDBRANCH  71  72
ENDBRANCH  70  71
ENDBRANCH  69  70
ENDBRANCH  29  69
ENDBRANCH  27  29
ENDBRANCH  25  26
BRANCH  25  82
ATOM     82  C   UNL     1     -29.105  15.843  15.246  0.00  0.00    +0.053 C 
BRANCH  82  83
ATOM     83  C   UNL     1     -28.377  17.151  15.619  0.00  0.00    +0.045 C 
BRANCH  83  84
ATOM     84  C   UNL     1     -28.020  17.975  14.378  0.00  0.00    +0.201 C 
BRANCH  84  85
ATOM     85  N   UNL     1     -26.558  18.047  14.195  0.00  0.00    -0.272 NA
ATOM     86  H   UNL     1     -26.011  18.643  14.816  0.00  0.00    +0.264 HD
BRANCH  85  87
ATOM     87  C   UNL     1     -25.926  17.354  13.239  0.00  0.00    +0.288 C 
BRANCH  87  88
ATOM     88  N   UNL     1     -24.613  17.491  13.119  0.00  0.00    -0.285 NA
ATOM     89  H   UNL     1     -24.110  16.973  12.398  0.00  0.00    +0.262 HD
ATOM     90  H   UNL     1     -24.106  18.114  13.747  0.00  0.00    +0.262 HD
ENDBRANCH  87  88
BRANCH  87  91
ATOM     91  N   UNL     1     -26.571  16.522  12.407  0.00  0.00    -0.285 NA
ATOM     92  H   UNL     1     -26.052  16.012  11.692  0.00  0.00    +0.262 HD
ATOM     93  H   UNL     1     -27.580  16.399  12.490  0.00  0.00    +0.262 HD
ENDBRANCH  87  91
ENDBRANCH  85  87
ENDBRANCH  84  85
ENDBRANCH  83  84
ENDBRANCH  82  83
ENDBRANCH  25  82
TORSDOF 62
