REMARK  Name = 3jy9_ligand
REMARK  2 active torsions:
REMARK  status: ('A' for Active; 'I' for Inactive)
REMARK    1  A    between atoms: O1_1  and  C2_2
REMARK    2  A    between atoms: C5_5  and  C8_8
REMARK                            x       y       z     vdW  Elec       q    Type
REMARK                         _______ _______ _______ _____ _____    ______ ____
ROOT
ATOM      7  C   UNL     1      12.222  13.813   2.138  0.00  0.00    +0.176 C 
ATOM      8  C   UNL     1      12.042  12.335   2.056  0.00  0.00    -0.008 A 
ATOM      9  C   UNL     1      12.910  11.299   2.611  0.00  0.00    +0.012 A 
ATOM     10  C   UNL     1      12.401  10.114   1.971  0.00  0.00    +0.128 A 
ATOM     11  N   UNL     1      11.349  10.407   1.097  0.00  0.00    -0.275 N 
ATOM     12  H   UNL     1      10.807   9.736   0.533  0.00  0.00    +0.226 HD
ATOM     13  N   UNL     1      12.943   8.940   2.250  0.00  0.00    -0.293 NA
ATOM     14  C   UNL     1      13.975   8.869   3.095  0.00  0.00    +0.063 A 
ATOM     15  C   UNL     1      14.495   9.960   3.736  0.00  0.00    +0.008 A 
ATOM     16  C   UNL     1      13.984  11.276   3.524  0.00  0.00    -0.019 A 
ATOM     17  C   UNL     1      14.523  12.399   4.386  0.00  0.00    +0.008 A 
ATOM     18  C   UNL     1      14.638  12.091   5.784  0.00  0.00    -0.005 A 
ATOM     19  C   UNL     1      15.076  13.005   6.751  0.00  0.00    -0.025 A 
ATOM     20  C   UNL     1      15.381  14.316   6.328  0.00  0.00    -0.015 A 
ATOM     21  C   UNL     1      15.247  14.657   4.976  0.00  0.00    +0.013 A 
ATOM     22  C   UNL     1      14.825  13.716   4.030  0.00  0.00    +0.080 A 
ATOM     23  N   UNL     1      14.770  14.149   2.706  0.00  0.00    -0.227 N 
ATOM     24  H   UNL     1      15.638  14.425   2.293  0.00  0.00    +0.229 HD
ATOM     25  C   UNL     1      11.184  11.768   1.142  0.00  0.00    +0.111 A 
ATOM     26  C   UNL     1      13.683  14.237   1.924  0.00  0.00    +0.224 C 
ATOM     27  O   UNL     1      13.977  14.603   0.785  0.00  0.00    -0.379 OA
ENDROOT
BRANCH   7   6
ATOM      3  C   UNL     1       9.737  17.014   0.778  0.00  0.00    +0.081 A 
ATOM      4  C   UNL     1      10.225  16.003  -0.079  0.00  0.00    +0.013 A 
ATOM      5  C   UNL     1      11.013  14.969   0.417  0.00  0.00    -0.012 A 
ATOM      6  C   UNL     1      11.288  14.949   1.795  0.00  0.00    -0.027 A 
ATOM     28  C   UNL     1      10.819  15.978   2.633  0.00  0.00    -0.012 A 
ATOM     29  C   UNL     1      10.037  16.985   2.138  0.00  0.00    +0.013 A 
BRANCH   3   1
ATOM      1  O   UNL     1       9.003  18.065   0.254  0.00  0.00    -0.337 OA
ATOM      2  H   UNL     1       8.887  17.934  -0.680  0.00  0.00    +0.246 HD
ENDBRANCH   3   1
ENDBRANCH   7   6
TORSDOF 2
