REMARK  Name = 3coh_ligand
REMARK  5 active torsions:
REMARK  status: ('A' for Active; 'I' for Inactive)
REMARK    1  A    between atoms: C15_10  and  C48_24
REMARK    2  A    between atoms: N16_13  and  C27_14
REMARK    3  A    between atoms: C27_14  and  C28_15
REMARK    4  A    between atoms: C17_16  and  C26_17
REMARK    5  A    between atoms: C17_16  and  C25_18
REMARK                            x       y       z     vdW  Elec       q    Type
REMARK                         _______ _______ _______ _____ _____    ______ ____
ROOT
ATOM      1  C   UNL     1      -0.595  63.578  42.262  0.00  0.00    +0.081 A 
ATOM      2  N   UNL     1      -0.165  64.735  42.781  0.00  0.00    -0.264 N 
ATOM      3  H   UNL     1       0.218  65.526  42.243  0.00  0.00    +0.222 HD
ATOM      4  C   UNL     1      -0.313  64.699  44.117  0.00  0.00    +0.114 A 
ATOM      5  C   UNL     1      -0.003  65.892  44.957  0.00  0.00    +0.125 A 
ATOM      6  N   UNL     1       0.379  67.032  44.369  0.00  0.00    -0.219 N 
ATOM      7  H   UNL     1       0.583  67.186  43.371  0.00  0.00    +0.247 HD
ATOM      8  N   UNL     1       0.440  67.967  45.404  0.00  0.00    -0.216 NA
ATOM      9  C   UNL     1       0.074  67.496  46.607  0.00  0.00    +0.028 A 
ATOM     10  C   UNL     1       0.056  68.278  47.901  0.00  0.00    +0.086 C 
ATOM     11  C   UNL     1      -0.300  66.073  46.399  0.00  0.00    +0.001 A 
ATOM     12  C   UNL     1      -0.787  65.096  47.441  0.00  0.00    +0.056 C 
ATOM     13  C   UNL     1      -1.890  64.227  46.854  0.00  0.00    +0.022 C 
ATOM     14  C   UNL     1      -1.320  63.069  46.040  0.00  0.00    +0.055 C 
ATOM     15  C   UNL     1      -0.968  63.484  44.630  0.00  0.00    -0.004 A 
ATOM     16  C   UNL     1      -0.639  63.094  40.956  0.00  0.00    +0.038 A 
ATOM     17  C   UNL     1      -1.172  61.811  40.734  0.00  0.00    -0.061 A 
ATOM     18  C   UNL     1      -1.693  60.971  41.863  0.00  0.00    +0.063 A 
ATOM     19  N   UNL     1      -2.138  59.805  41.334  0.00  0.00    -0.229 N 
ATOM     22  C   UNL     1      -1.951  59.835  40.016  0.00  0.00    +0.171 C 
ATOM     23  O   UNL     1      -2.320  58.829  39.315  0.00  0.00    -0.349 OA
ATOM     24  C   UNL     1      -1.648  61.464  43.159  0.00  0.00    +0.009 A 
ATOM     25  C   UNL     1      -1.343  61.083  39.445  0.00  0.00    -0.004 C 
ATOM     26  C   UNL     1      -2.364  61.817  38.583  0.00  0.00    -0.090 C 
ATOM     27  C   UNL     1      -0.043  60.805  38.705  0.00  0.00    -0.090 C 
ATOM     28  C   UNL     1      -1.118  62.728  43.371  0.00  0.00    -0.000 A 
ENDROOT
BRANCH  19  20
ATOM     20  C   UNL     1      -2.738  58.674  42.044  0.00  0.00    +0.171 C 
ATOM     21  C   UNL     1      -4.033  59.122  42.691  0.00  0.00    +0.037 C 
ENDBRANCH  19  20
TORSDOF 1
