REMARK  Name = 4qta_ligand
REMARK  7 active torsions:
REMARK  status: ('A' for Active; 'I' for Inactive)
REMARK    1  A    between atoms: C20_2  and  C19_19
REMARK    2  A    between atoms: N5_3  and  C21_4
REMARK    3  A    between atoms: C27_7  and  C28_8
REMARK    4  A    between atoms: N_22  and  C2_24
REMARK    5  A    between atoms: C2_24  and  C3_25
REMARK    6  A    between atoms: N2_30  and  C8_33
REMARK    7  A    between atoms: C11_36  and  C14_39
REMARK                            x       y       z     vdW  Elec       q    Type
REMARK                         _______ _______ _______ _____ _____    ______ ____
ROOT
ATOM      3  C   UNL     1      28.346  57.267  33.647  0.00  0.00    +0.159 C 
ATOM      4  C   UNL     1      29.199  56.518  32.650  0.00  0.00    +0.159 C 
ATOM      5  N   UNL     1      30.073  55.655  33.459  0.00  0.00    +0.254 N 
ATOM      6  H   UNL     1      30.766  56.272  33.853  0.00  0.00    +0.205 HD
ATOM     28  C   UNL     1      29.266  55.226  34.613  0.00  0.00    +0.136 C 
ATOM     29  C   UNL     1      28.402  56.424  34.972  0.00  0.00    +0.082 C 
ENDROOT
BRANCH   3   2
ATOM      1  O   UNL     1      29.966  59.004  33.527  0.00  0.00    -0.384 OA
ATOM      2  C   UNL     1      28.849  58.618  33.927  0.00  0.00    +0.212 C 
ATOM     30  N   UNL     1      28.007  59.395  34.646  0.00  0.00    -0.234 N 
ATOM     31  H   UNL     1      27.123  58.983  34.867  0.00  0.00    +0.226 HD
BRANCH  30  32
ATOM     32  C   UNL     1      28.202  60.699  35.124  0.00  0.00    +0.067 A 
ATOM     33  C   UNL     1      29.468  61.304  35.157  0.00  0.00    +0.009 A 
ATOM     34  C   UNL     1      29.632  62.600  35.584  0.00  0.00    -0.009 A 
ATOM     35  C   UNL     1      28.492  63.308  35.975  0.00  0.00    -0.002 A 
ATOM     36  N   UNL     1      28.355  64.560  36.452  0.00  0.00    -0.282 NA
ATOM     37  N   UNL     1      27.055  64.843  36.742  0.00  0.00    -0.224 N 
ATOM     38  H   UNL     1      26.702  65.741  37.103  0.00  0.00    +0.295 HD
ATOM     39  C   UNL     1      26.324  63.779  36.484  0.00  0.00    +0.141 A 
ATOM     46  C   UNL     1      27.213  62.723  35.978  0.00  0.00    +0.021 A 
ATOM     47  C   UNL     1      27.075  61.395  35.560  0.00  0.00    +0.023 A 
BRANCH  39  40
ATOM     40  C   UNL     1      24.832  63.803  36.612  0.00  0.00    +0.038 A 
ATOM     41  C   UNL     1      24.230  64.701  37.487  0.00  0.00    +0.041 A 
ATOM     42  C   UNL     1      22.860  64.616  37.667  0.00  0.00    +0.084 A 
ATOM     43  N   UNL     1      22.088  63.713  37.071  0.00  0.00    -0.307 NA
ATOM     44  C   UNL     1      22.679  62.837  36.246  0.00  0.00    +0.084 A 
ATOM     45  C   UNL     1      24.035  62.844  35.992  0.00  0.00    +0.041 A 
ENDBRANCH  39  40
ENDBRANCH  30  32
ENDBRANCH   3   2
BRANCH   5   7
ATOM      7  C   UNL     1      30.867  54.719  32.737  0.00  0.00    +0.271 C 
BRANCH   7   8
ATOM      8  C   UNL     1      32.015  54.148  33.512  0.00  0.00    +0.224 C 
ATOM      9  N   UNL     1      32.615  53.085  32.975  0.00  0.00    -0.265 N 
ATOM     10  C   UNL     1      33.658  52.345  33.681  0.00  0.00    +0.162 C 
ATOM     11  C   UNL     1      33.023  51.168  34.330  0.00  0.00    +0.156 C 
ATOM     12  N   UNL     1      32.287  50.306  33.400  0.00  0.00    -0.302 N 
ATOM     25  C   UNL     1      31.416  51.039  32.467  0.00  0.00    +0.156 C 
ATOM     26  C   UNL     1      32.114  52.255  31.890  0.00  0.00    +0.162 C 
ATOM     27  O   UNL     1      32.297  54.571  34.609  0.00  0.00    -0.391 OA
BRANCH  12  13
ATOM     13  C   UNL     1      31.807  49.111  34.033  0.00  0.00    +0.046 A 
ATOM     14  C   UNL     1      32.454  48.637  35.193  0.00  0.00    +0.015 A 
ATOM     15  C   UNL     1      31.914  47.600  35.929  0.00  0.00    +0.006 A 
ATOM     16  C   UNL     1      30.755  46.957  35.520  0.00  0.00    +0.009 A 
ATOM     23  C   UNL     1      30.139  47.403  34.346  0.00  0.00    +0.006 A 
ATOM     24  C   UNL     1      30.647  48.486  33.621  0.00  0.00    +0.015 A 
BRANCH  16  17
ATOM     17  C   UNL     1      30.101  45.940  36.377  0.00  0.00    +0.119 A 
ATOM     18  N   UNL     1      29.096  45.241  35.826  0.00  0.00    -0.263 NA
ATOM     19  C   UNL     1      28.486  44.366  36.637  0.00  0.00    +0.118 A 
ATOM     20  C   UNL     1      28.802  44.215  37.962  0.00  0.00    +0.063 A 
ATOM     21  C   UNL     1      29.826  45.004  38.435  0.00  0.00    +0.118 A 
ATOM     22  N   UNL     1      30.522  45.847  37.657  0.00  0.00    -0.263 NA
ENDBRANCH  16  17
ENDBRANCH  12  13
ENDBRANCH   7   8
ENDBRANCH   5   7
TORSDOF 7
