REMARK  Name = 3i5n_ligand
REMARK  6 active torsions:
REMARK  status: ('A' for Active; 'I' for Inactive)
REMARK    1  A    between atoms: C5_4  and  C1_28
REMARK    2  A    between atoms: C13_9  and  N5_21
REMARK    3  A    between atoms: C21_13  and  O1_14
REMARK    4  A    between atoms: O1_14  and  C19_15
REMARK    5  A    between atoms: N5_21  and  C12_22
REMARK    6  A    between atoms: C12_22  and  C11_23
REMARK                            x       y       z     vdW  Elec       q    Type
REMARK                         _______ _______ _______ _____ _____    ______ ____
ROOT
ATOM      1  N   UNL     1      19.742  13.703  56.930  0.00  0.00    -0.098 N 
ATOM      2  N   UNL     1      18.914  12.889  57.367  0.00  0.00    -0.132 NA
ATOM      3  C   UNL     1      18.014  13.224  58.322  0.00  0.00    +0.097 A 
ATOM      4  C   UNL     1      18.007  14.521  58.847  0.00  0.00    +0.055 A 
ATOM      5  C   UNL     1      18.925  15.447  58.370  0.00  0.00    +0.081 A 
ATOM     12  C   UNL     1      20.762  13.649  55.976  0.00  0.00    +0.194 A 
ATOM     13  N   UNL     1      21.337  14.853  55.921  0.00  0.00    -0.266 NA
ATOM     14  N   UNL     1      20.795  15.625  56.724  0.00  0.00    -0.279 NA
ATOM     30  C   UNL     1      19.809  15.019  57.388  0.00  0.00    +0.179 A 
ENDROOT
BRANCH   3   6
ATOM      6  C   UNL     1      17.095  12.285  58.801  0.00  0.00    +0.007 A 
ATOM      7  C   UNL     1      17.269  10.925  58.531  0.00  0.00    +0.014 A 
ATOM      8  C   UNL     1      16.354   9.992  59.015  0.00  0.00    +0.003 A 
ATOM      9  C   UNL     1      15.259  10.413  59.771  0.00  0.00    +0.003 A 
ATOM     10  C   UNL     1      15.078  11.769  60.043  0.00  0.00    +0.003 A 
ATOM     11  C   UNL     1      15.995  12.699  59.560  0.00  0.00    +0.014 A 
ENDBRANCH   3   6
BRANCH  12  15
ATOM     15  C   UNL     1      21.103  12.397  55.161  0.00  0.00    +0.264 C 
BRANCH  15  16
ATOM     16  N   UNL     1      21.034  11.195  56.011  0.00  0.00    -0.290 N 
ATOM     17  H   UNL     1      20.169  10.637  55.990  0.00  0.00    +0.189 HD
BRANCH  16  18
ATOM     18  C   UNL     1      22.031  10.783  56.812  0.00  0.00    +0.085 A 
ATOM     19  C   UNL     1      23.287  11.394  56.842  0.00  0.00    +0.039 A 
ATOM     20  C   UNL     1      24.269  10.903  57.707  0.00  0.00    +0.072 A 
ATOM     21  N   UNL     1      24.028   9.852  58.490  0.00  0.00    -0.319 NA
ATOM     22  C   UNL     1      22.832   9.229  58.485  0.00  0.00    +0.046 A 
ATOM     23  C   UNL     1      22.587   8.133  59.318  0.00  0.00    +0.062 A 
ATOM     24  C   UNL     1      21.327   7.526  59.280  0.00  0.00    +0.123 A 
ATOM     27  C   UNL     1      20.362   8.041  58.414  0.00  0.00    +0.130 A 
ATOM     28  N   UNL     1      20.613   9.080  57.635  0.00  0.00    -0.289 NA
ATOM     29  C   UNL     1      21.810   9.688  57.645  0.00  0.00    +0.090 A 
BRANCH  24  25
ATOM     25  O   UNL     1      20.974   6.445  60.050  0.00  0.00    -0.312 OA
ATOM     26  C   UNL     1      21.944   5.968  61.010  0.00  0.00    +0.236 C 
ENDBRANCH  24  25
ENDBRANCH  16  18
ENDBRANCH  15  16
ENDBRANCH  12  15
TORSDOF 5
