REMARK  Name = 5AR7
REMARK  7 active torsions:
REMARK  status: ('A' for Active; 'I' for Inactive)
REMARK    1  A    between atoms: C_6  and  C_7
REMARK    2  A    between atoms: C_7  and  C_8
REMARK    3  A    between atoms: C_7  and  C_9
REMARK    4  A    between atoms: C_7  and  C_10
REMARK    5  A    between atoms: N_12  and  C_13
REMARK    6  A    between atoms: C_16  and  O_19
REMARK    7  A    between atoms: O_19  and  C_20
REMARK                            x       y       z     vdW  Elec       q    Type
REMARK                         _______ _______ _______ _____ _____    ______ ____
ROOT
ATOM      1  O   UNL     1      56.232 -61.684  12.802  0.00  0.00    -0.252 OA
ATOM      2  C   UNL     1      56.077 -62.815  12.350  0.00  0.00    +0.309 C 
ATOM      3  N   UNL     1      55.416 -63.768  13.090  0.00  0.00    -0.269 N 
ATOM      4  H   UNL     1      55.314 -64.738  12.650  0.00  0.00    +0.156 HD
ATOM     18  N   UNL     1      56.559 -63.196  11.077  0.00  0.00    -0.251 N 
ATOM     19  H   UNL     1      56.385 -64.203  10.759  0.00  0.00    +0.158 HD
ATOM     20  C   UNL     1      57.252 -62.342  10.198  0.00  0.00    +0.169 A 
ATOM     21  N   UNL     1      57.675 -62.820   9.064  0.00  0.00    -0.063 NA
ATOM     22  O   UNL     1      58.325 -61.725   8.409  0.00  0.00    -0.357 OA
ATOM     23  C   UNL     1      58.243 -60.642   9.213  0.00  0.00    +0.144 A 
ATOM     28  C   UNL     1      57.585 -60.984  10.332  0.00  0.00    +0.092 A 
ENDROOT
BRANCH   3   5
ATOM      5  C   UNL     1      54.860 -63.587  14.373  0.00  0.00    +0.035 A 
ATOM      6  C   UNL     1      55.163 -64.468  15.421  0.00  0.00    +0.027 A 
ATOM      7  C   UNL     1      54.598 -64.274  16.693  0.00  0.00    +0.048 A 
ATOM      8  C   UNL     1      53.733 -63.190  16.892  0.00  0.00    +0.129 A 
ATOM     16  C   UNL     1      53.431 -62.311  15.842  0.00  0.00    +0.048 A 
ATOM     17  C   UNL     1      53.989 -62.505  14.579  0.00  0.00    +0.027 A 
BRANCH   8   9
ATOM      9  O   UNL     1      53.165 -62.973  18.122  0.00  0.00    -0.456 OA
BRANCH   9  10
ATOM     10  C   UNL     1      53.862 -62.352  19.145  0.00  0.00    +0.131 A 
ATOM     11  C   UNL     1      53.132 -61.923  20.268  0.00  0.00    +0.066 A 
ATOM     12  C   UNL     1      53.833 -61.299  21.300  0.00  0.00    +0.114 A 
ATOM     13  N   UNL     1      55.169 -61.098  21.254  0.00  0.00    -0.263 NA
ATOM     14  C   UNL     1      55.870 -61.509  20.177  0.00  0.00    +0.114 A 
ATOM     15  C   UNL     1      55.260 -62.142  19.098  0.00  0.00    +0.066 A 
ENDBRANCH   9  10
ENDBRANCH   8   9
ENDBRANCH   3   5
BRANCH  23  24
ATOM     24  C   UNL     1      58.885 -59.385   8.672  0.00  0.00    +0.023 C 
ATOM     25  C   UNL     1      58.197 -58.981   7.377  0.00  0.00    +0.019 C 
ATOM     26  C   UNL     1      60.373 -59.643   8.428  0.00  0.00    +0.019 C 
ATOM     27  C   UNL     1      58.723 -58.228   9.647  0.00  0.00    +0.019 C 
ENDBRANCH  23  24
TORSDOF 4
