REMARK  Name = 5KX8
REMARK  5 active torsions:
REMARK  status: ('A' for Active; 'I' for Inactive)
REMARK    1  A    between atoms: N_1  and  C_19
REMARK    2  A    between atoms: C_2  and  C_4
REMARK    3  A    between atoms: C_10  and  N_13
REMARK    4  A    between atoms: C_20  and  C_24
REMARK    5  A    between atoms: N_22  and  C_27
REMARK                            x       y       z     vdW  Elec       q    Type
REMARK                         _______ _______ _______ _____ _____    ______ ____
ROOT
ATOM     16  C   UNL     1      31.664   6.286  -9.372  0.00  0.00    +0.098 A 
ATOM     17  C   UNL     1      31.931   7.596  -9.835  0.00  0.00    +0.163 A 
ATOM     18  N   UNL     1      31.485   8.825  -9.452  0.00  0.00    -0.234 NA
ATOM     19  C   UNL     1      31.932   9.943 -10.138  0.00  0.00    +0.179 C 
ATOM     27  C   UNL     1      32.874   9.822 -11.177  0.00  0.00    +0.043 C 
ATOM     28  C   UNL     1      33.347   8.595 -11.579  0.00  0.00    +0.112 C 
ATOM     29  N   UNL     1      32.889   7.454 -10.911  0.00  0.00    -0.244 N 
ATOM     30  N   UNL     1      33.235   6.122 -11.096  0.00  0.00    -0.298 N 
ATOM     31  H   UNL     1      33.931   5.720 -11.802  0.00  0.00    +0.187 HD
ATOM     32  C   UNL     1      32.490   5.438 -10.176  0.00  0.00    +0.118 A 
ENDROOT
BRANCH  19  20
ATOM     20  N   UNL     1      31.502  11.188  -9.674  0.00  0.00    -0.270 NA
ATOM     21  C   UNL     1      31.366  11.372  -8.222  0.00  0.00    +0.102 C 
ATOM     22  C   UNL     1      30.602  12.595  -7.813  0.00  0.00    +0.096 C 
ATOM     23  N   UNL     1      31.308  13.734  -8.393  0.00  0.00    -0.314 NA
ATOM     24  H   UNL     1      30.871  14.644  -8.039  0.00  0.00    +0.122 HD
ATOM     25  C   UNL     1      31.201  13.675  -9.853  0.00  0.00    +0.096 C 
ATOM     26  C   UNL     1      31.926  12.434 -10.326  0.00  0.00    +0.102 C 
ENDBRANCH  19  20
BRANCH  16  15
ATOM      1  N   UNL     1      29.970   6.696  -7.666  0.00  0.00    -0.282 N 
ATOM      2  H   UNL     1      29.784   7.611  -8.188  0.00  0.00    +0.155 HD
ATOM     15  C   UNL     1      30.799   5.764  -8.261  0.00  0.00    +0.253 C 
ATOM     33  O   UNL     1      30.890   4.570  -7.890  0.00  0.00    -0.270 OA
BRANCH   1   3
ATOM      3  C   UNL     1      29.352   6.510  -6.405  0.00  0.00    +0.054 C 
ATOM      4  C   UNL     1      29.182   5.300  -5.638  0.00  0.00    +0.158 C 
ATOM      5  N   UNL     1      28.512   5.652  -4.535  0.00  0.00    -0.227 NA
ATOM      6  C   UNL     1      28.096   4.793  -3.436  0.00  0.00    +0.128 C 
ATOM      7  N   UNL     1      28.208   6.972  -4.502  0.00  0.00    -0.272 N 
ATOM      8  H   UNL     1      27.669   7.478  -3.728  0.00  0.00    +0.167 HD
ATOM      9  C   UNL     1      28.704   7.526  -5.613  0.00  0.00    +0.122 C 
BRANCH   9  10
ATOM     10  C   UNL     1      28.584   8.958  -5.936  0.00  0.00    +0.258 C 
ATOM     11  O   UNL     1      28.885   9.373  -7.063  0.00  0.00    -0.269 OA
ATOM     12  N   UNL     1      28.143   9.762  -4.971  0.00  0.00    -0.324 N 
ATOM     13  H   UNL     1      28.038  10.811  -5.155  0.00  0.00    +0.145 HD
ATOM     14  H   UNL     1      27.894   9.359  -4.011  0.00  0.00    +0.145 HD
ENDBRANCH   9  10
ENDBRANCH   1   3
ENDBRANCH  16  15
TORSDOF 4
