REMARK  Name = 3s00_ligand
REMARK  6 active torsions:
REMARK  status: ('A' for Active; 'I' for Inactive)
REMARK    1  A    between atoms: C2_3  and  N3_4
REMARK    2  A    between atoms: C4_5  and  C5_6
REMARK    3  A    between atoms: C5_6  and  C6_7
REMARK    4  A    between atoms: N10_11  and  C11_12
REMARK    5  A    between atoms: C11_12  and  C12_13
REMARK    6  A    between atoms: C12_13  and  C13_14
REMARK                            x       y       z     vdW  Elec       q    Type
REMARK                         _______ _______ _______ _____ _____    ______ ____
ROOT
ATOM      8  C   UNL     1     -79.322 103.069 -62.495  0.00  0.00    +0.089 A 
ATOM      9  S   UNL     1     -78.425 101.779 -63.150  0.00  0.00    +0.006 S 
ATOM     10  C   UNL     1     -77.655 102.853 -64.283  0.00  0.00    +0.184 A 
ATOM     11  N   UNL     1     -76.725 102.473 -65.199  0.00  0.00    -0.280 N 
ATOM     12  H   UNL     1     -76.284 103.205 -65.775  0.00  0.00    +0.193 HD
ATOM     16  N   UNL     1     -78.042 104.111 -64.190  0.00  0.00    -0.277 NA
ATOM     17  C   UNL     1     -78.968 104.198 -63.186  0.00  0.00    +0.082 A 
ENDROOT
BRANCH  17  18
ATOM     18  N   UNL     1     -79.386 105.466 -63.049  0.00  0.00    -0.332 N 
ATOM     19  H   UNL     1     -79.005 106.203 -63.660  0.00  0.00    +0.174 HD
ATOM     20  H   UNL     1     -80.087 105.703 -62.333  0.00  0.00    +0.174 HD
ENDBRANCH  17  18
BRANCH   8   6
ATOM      6  C   UNL     1     -80.271 102.945 -61.396  0.00  0.00    +0.132 C 
ATOM      7  O   UNL     1     -80.912 103.951 -61.051  0.00  0.00    -0.410 OA
BRANCH   6   5
ATOM      1 CL   UNL     1     -81.281  99.250 -57.338  0.00  0.00    -0.050 Cl
ATOM      2  C   UNL     1     -80.900 100.017 -58.858  0.00  0.00    +0.102 A 
ATOM      3  C   UNL     1     -80.622  99.388 -60.039  0.00  0.00    -0.008 A 
ATOM      4  C   UNL     1     -80.360 100.329 -61.094  0.00  0.00    -0.006 A 
ATOM      5  C   UNL     1     -80.450 101.654 -60.668  0.00  0.00    +0.073 A 
ATOM     21  S   UNL     1     -80.851 101.708 -58.980  0.00  0.00    -0.016 S 
ENDBRANCH   6   5
ENDBRANCH   8   6
BRANCH  11  13
ATOM     13  C   UNL     1     -76.314 101.090 -65.415  0.00  0.00    +0.141 C 
BRANCH  13  14
ATOM     14  C   UNL     1     -74.971 101.027 -66.149  0.00  0.00    +0.022 C 
ATOM     15  C   UNL     1     -74.537  99.591 -66.382  0.00  0.00    +0.006 C 
ENDBRANCH  13  14
ENDBRANCH  11  13
TORSDOF 5
