REMARK  Name = 6M8C
REMARK  2 active torsions:
REMARK  status: ('A' for Active; 'I' for Inactive)
REMARK    1  A    between atoms: O25_2  and  C16_3
REMARK    2  A    between atoms: C14_9  and  C11_10
REMARK                            x       y       z     vdW  Elec       q    Type
REMARK                         _______ _______ _______ _____ _____    ______ ____
ROOT
ATOM      8  C   UNL     1       4.977  27.452  25.737  0.00  0.00    +0.000 A 
ATOM      9  C   UNL     1       4.493  27.948  24.516  0.00  0.00    +0.000 A 
ATOM     10  O   UNL     1       3.618  28.985  24.514  0.00  0.00    -0.400 OA
ATOM     11  C   UNL     1       4.880  27.408  23.283  0.00  0.00    +0.550 A 
ATOM     12  O   UNL     1       4.458  27.881  22.229  0.00  0.00    -0.550 OA
ATOM     13  C   UNL     1       5.837  26.385  23.276  0.00  0.00    +0.000 A 
ATOM     14  C   UNL     1       6.372  25.821  22.111  0.00  0.00    +0.250 A 
ATOM     15  O   UNL     1       5.914  26.247  20.924  0.00  0.00    -0.650 OA
ATOM     16  C   UNL     1       7.337  24.822  22.151  0.00  0.00    -0.130 A 
ATOM     17  C   UNL     1       7.812  24.358  23.371  0.00  0.00    +0.250 A 
ATOM     18  O   UNL     1       8.765  23.383  23.413  0.00  0.00    -0.650 OA
ATOM     19  C   UNL     1       7.305  24.904  24.541  0.00  0.00    -0.130 A 
ATOM     20  C   UNL     1       6.339  25.904  24.490  0.00  0.00    +0.185 A 
ATOM     21  O   UNL     1       5.869  26.410  25.668  0.00  0.00    -0.185 OA
ENDROOT
BRANCH   8   7
ATOM      3  C   UNL     1       4.056  29.489  28.717  0.00  0.00    +0.185 A 
ATOM      4  C   UNL     1       4.017  28.502  29.696  0.00  0.00    +0.250 A 
ATOM      5  C   UNL     1       4.273  27.174  29.363  0.00  0.00    -0.130 A 
ATOM      6  C   UNL     1       4.588  26.853  28.039  0.00  0.00    -0.130 A 
ATOM      7  C   UNL     1       4.648  27.847  27.041  0.00  0.00    +0.000 A 
ATOM     22  O   UNL     1       3.703  28.887  30.964  0.00  0.00    -0.650 OA
ATOM     23  C   UNL     1       4.390  29.180  27.399  0.00  0.00    -0.130 A 
BRANCH   3   2
ATOM      1  C   UNL     1       2.523  31.247  29.413  0.00  0.00    +0.030 C 
ATOM      2  O   UNL     1       3.834  30.773  29.112  0.00  0.00    -0.365 OA
ENDBRANCH   3   2
ENDBRANCH   8   7
TORSDOF 2
