REMARK  Name = 2vwy_ligand
REMARK  4 active torsions:
REMARK  status: ('A' for Active; 'I' for Inactive)
REMARK    1  A    between atoms: N1_1  and  C6_27
REMARK    2  A    between atoms: N3_7  and  C11_8
REMARK    3  A    between atoms: C1_19  and  S1_20
REMARK    4  A    between atoms: S1_20  and  C2_23
REMARK                            x       y       z     vdW  Elec       q    Type
REMARK                         _______ _______ _______ _____ _____    ______ ____
ROOT
ATOM      1  N   UNL     1      13.770   7.511  11.522  0.00  0.00    -0.245 N 
ATOM      2  H   UNL     1      14.788   7.576  11.665  0.00  0.00    +0.218 HD
ATOM     13  C   UNL     1      13.119   6.301  11.833  0.00  0.00    +0.195 A 
ATOM     14  N   UNL     1      11.791   6.128  11.717  0.00  0.00    -0.235 NA
ATOM     15  C   UNL     1      11.322   4.919  12.026  0.00  0.00    +0.132 A 
ATOM     16  N   UNL     1       9.922   4.717  11.911  0.00  0.00    -0.261 N 
ATOM     17  H   UNL     1       9.350   5.487  11.536  0.00  0.00    +0.213 HD
ATOM     28  C   UNL     1      12.148   3.886  12.454  0.00  0.00    +0.056 A 
ATOM     29  C   UNL     1      13.483   4.158  12.542  0.00  0.00    +0.085 A 
ATOM     30  N   UNL     1      13.987   5.359  12.237  0.00  0.00    -0.269 NA
ENDROOT
BRANCH  16  18
ATOM     18  C   UNL     1       9.272   3.532  12.278  0.00  0.00    +0.100 A 
ATOM     19  C   UNL     1       8.655   2.721  11.342  0.00  0.00    +0.043 A 
ATOM     20 CL   UNL     1       8.718   3.182   9.676  0.00  0.00    -0.092 Cl
ATOM     21  C   UNL     1       8.008   1.555  11.722  0.00  0.00    -0.029 A 
ATOM     22  C   UNL     1       7.934   1.167  13.046  0.00  0.00    -0.009 A 
ATOM     23  C   UNL     1       8.542   1.986  13.967  0.00  0.00    +0.115 A 
ATOM     24  O   UNL     1       8.597   1.773  15.327  0.00  0.00    -0.294 OA
ATOM     25  C   UNL     1       9.558   2.795  15.696  0.00  0.00    +0.378 C 
ATOM     26  O   UNL     1       9.750   3.785  14.663  0.00  0.00    -0.296 OA
ATOM     27  C   UNL     1       9.193   3.118  13.594  0.00  0.00    +0.147 A 
ENDBRANCH  16  18
BRANCH   1   3
ATOM      3  C   UNL     1      13.079   8.644  11.020  0.00  0.00    +0.067 A 
ATOM      4  C   UNL     1      11.745   8.636  10.632  0.00  0.00    +0.042 A 
ATOM      5  C   UNL     1      11.145   9.789  10.152  0.00  0.00    +0.079 A 
ATOM      6  C   UNL     1      11.864  10.959  10.054  0.00  0.00    +0.005 A 
ATOM      7  C   UNL     1      13.187  10.967  10.436  0.00  0.00    -0.011 A 
ATOM     12  C   UNL     1      13.786   9.822  10.914  0.00  0.00    +0.016 A 
BRANCH   5   8
ATOM      8  S   UNL     1       9.432   9.817   9.641  0.00  0.00    -0.008 S 
ATOM      9  O   UNL     1       8.574   9.134  10.589  0.00  0.00    -0.170 OA
ATOM     10  O   UNL     1       9.117  11.151   9.176  0.00  0.00    -0.170 OA
ATOM     11  C   UNL     1       9.479   8.826   8.173  0.00  0.00    +0.200 C 
ENDBRANCH   5   8
ENDBRANCH   1   3
TORSDOF 3
