REMARK  Name = 4ZSJ
REMARK  5 active torsions:
REMARK  status: ('A' for Active; 'I' for Inactive)
REMARK    1  A    between atoms: C_1  and  C_21
REMARK    2  A    between atoms: C_3  and  N_16
REMARK    3  A    between atoms: C_7  and  C_8
REMARK    4  A    between atoms: C_7  and  C_9
REMARK    5  A    between atoms: C_7  and  N_11
REMARK                            x       y       z     vdW  Elec       q    Type
REMARK                         _______ _______ _______ _____ _____    ______ ____
ROOT
ATOM      8  N   UNL     1      -4.067 -35.879  -6.850  0.00  0.00    -0.283 N 
ATOM      9  H   UNL     1      -3.541 -36.742  -6.755  0.00  0.00    +0.155 HD
ATOM     10  C   UNL     1      -4.770 -35.512  -5.714  0.00  0.00    +0.228 A 
ATOM     11  N   UNL     1      -5.539 -34.433  -5.487  0.00  0.00    -0.180 NA
ATOM     12  C   UNL     1      -5.983 -34.678  -4.209  0.00  0.00    +0.234 A 
ATOM     13  N   UNL     1      -6.752 -33.801  -3.586  0.00  0.00    -0.326 N 
ATOM     14  H   UNL     1      -7.076 -33.966  -2.639  0.00  0.00    +0.145 HD
ATOM     15  H   UNL     1      -7.084 -32.968  -4.063  0.00  0.00    +0.145 HD
ATOM     16  N   UNL     1      -5.525 -35.784  -3.634  0.00  0.00    -0.124 NA
ATOM     17  N   UNL     1      -4.716 -36.317  -4.626  0.00  0.00    -0.148 N 
ATOM     18  C   UNL     1      -3.994 -37.531  -4.479  0.00  0.00    +0.338 C 
ATOM     19  N   UNL     1      -4.159 -38.182  -3.277  0.00  0.00    -0.293 N 
ATOM     20  H   UNL     1      -4.727 -37.780  -2.537  0.00  0.00    +0.151 HD
ATOM     24  O   UNL     1      -3.313 -37.955  -5.403  0.00  0.00    -0.248 OA
ENDROOT
BRANCH   8   7
ATOM      1  C   UNL     1      -2.824 -35.363 -10.247  0.00  0.00    -0.030 A 
ATOM      2  C   UNL     1      -1.920 -36.089 -11.193  0.00  0.00    +0.045 C 
ATOM      3  C   UNL     1      -3.467 -34.182 -10.584  0.00  0.00    +0.044 A 
ATOM      4 CL   UNL     1      -3.143 -33.487 -12.121  0.00  0.00    -0.083 Cl
ATOM      5  C   UNL     1      -4.302 -33.495  -9.716  0.00  0.00    +0.022 A 
ATOM      6  C   UNL     1      -4.502 -33.994  -8.423  0.00  0.00    +0.025 A 
ATOM      7  C   UNL     1      -3.898 -35.217  -8.069  0.00  0.00    +0.034 A 
ATOM     25  C   UNL     1      -3.063 -35.883  -8.991  0.00  0.00    +0.028 A 
ENDBRANCH   8   7
BRANCH  19  21
ATOM     21  C   UNL     1      -3.461 -39.446  -3.021  0.00  0.00    +0.068 C 
ATOM     22  C   UNL     1      -4.271 -40.312  -2.077  0.00  0.00    +0.027 C 
ATOM     23  C   UNL     1      -2.076 -39.157  -2.488  0.00  0.00    +0.027 C 
ENDBRANCH  19  21
TORSDOF 2
