REMARK  Name = 6N7C
REMARK  4 active torsions:
REMARK  status: ('A' for Active; 'I' for Inactive)
REMARK    1  A    between atoms: C14_2  and  C15_17
REMARK    2  A    between atoms: C11_5  and  C10_9
REMARK    3  A    between atoms: C12_10  and  N2_13
REMARK    4  A    between atoms: C1_26  and  O_27
REMARK                            x       y       z     vdW  Elec       q    Type
REMARK                         _______ _______ _______ _____ _____    ______ ____
ROOT
ATOM      9  C   UNL     1       0.395 -22.578  67.054  0.00  0.00    +0.150 A 
ATOM     10  N   UNL     1      -0.670 -22.910  66.308  0.00  0.00    -0.400 NA
ATOM     11  N   UNL     1      -1.639 -23.310  67.161  0.00  0.00    -0.100 NA
ATOM     12  C   UNL     1      -1.252 -23.258  68.439  0.00  0.00    +0.000 A 
ATOM     13  C   UNL     1       0.087 -22.794  68.420  0.00  0.00    +0.000 A 
ENDROOT
BRANCH   9   7
ATOM      1  C   UNL     1       4.781 -20.382  64.125  0.00  0.00    -0.130 A 
ATOM      2  C   UNL     1       3.728 -20.924  64.907  0.00  0.00    +0.000 A 
ATOM      3  C   UNL     1       3.203 -20.255  66.035  0.00  0.00    -0.130 A 
ATOM      4  C   UNL     1       2.165 -20.783  66.750  0.00  0.00    +0.185 A 
ATOM      7  C   UNL     1       1.585 -22.016  66.375  0.00  0.00    +0.000 A 
ATOM      8  C   UNL     1       2.093 -22.697  65.290  0.00  0.00    -0.130 A 
ATOM     26  C   UNL     1       3.165 -22.172  64.525  0.00  0.00    +0.000 A 
ATOM     27  C   UNL     1       3.684 -22.830  63.382  0.00  0.00    -0.130 A 
ATOM     28  C   UNL     1       4.688 -22.262  62.640  0.00  0.00    -0.130 A 
ATOM     29  C   UNL     1       5.228 -21.033  63.005  0.00  0.00    -0.130 A 
BRANCH   4   5
ATOM      5  O   UNL     1       1.610 -20.191  67.857  0.00  0.00    -0.365 OA
ATOM      6  C   UNL     1       2.131 -18.932  68.273  0.00  0.00    +0.030 C 
ENDBRANCH   4   5
ENDBRANCH   9   7
BRANCH  13  14
ATOM     14  N   UNL     1       0.970 -22.551  69.511  0.00  0.00    -0.350 NA
ATOM     15  C   UNL     1       0.692 -22.931  70.803  0.00  0.00    +0.600 C 
ATOM     25  O   UNL     1      -0.333 -23.550  71.116  0.00  0.00    -0.550 OA
BRANCH  15  16
ATOM     16  C   UNL     1       1.720 -22.589  71.821  0.00  0.00    +0.000 A 
ATOM     17  C   UNL     1       1.682 -22.860  73.204  0.00  0.00    +0.000 A 
ATOM     18  N   UNL     1       2.771 -22.445  73.840  0.00  0.00    -0.350 NA
ATOM     19  N   UNL     1       3.544 -21.859  72.853  0.00  0.00    -0.150 N 
ATOM     20  C   UNL     1       4.744 -21.207  73.034  0.00  0.00    +0.000 C 
ATOM     21  C   UNL     1       5.317 -20.636  71.949  0.00  0.00    -0.100 C 
ATOM     22  C   UNL     1       4.667 -20.751  70.701  0.00  0.00    +0.000 C 
ATOM     23  N   UNL     1       3.510 -21.380  70.511  0.00  0.00    -0.150 NA
ATOM     24  C   UNL     1       2.954 -21.931  71.623  0.00  0.00    +0.100 A 
ENDBRANCH  15  16
ENDBRANCH  13  14
TORSDOF 4
