REMARK  Name = 4ITH
REMARK  3 active torsions:
REMARK  status: ('A' for Active; 'I' for Inactive)
REMARK    1  A    between atoms: N_3  and  C_4
REMARK    2  A    between atoms: C_8  and  C_9
REMARK    3  A    between atoms: C_9  and  C_10
REMARK                            x       y       z     vdW  Elec       q    Type
REMARK                         _______ _______ _______ _____ _____    ______ ____
ROOT
ATOM      6  C   UNL     1     -29.059   3.903  12.860  0.00  0.00    +0.069 C 
ENDROOT
BRANCH   6   7
ATOM      7  C   UNL     1     -29.193   2.668  12.023  0.00  0.00    -0.018 A 
ATOM      8  C   UNL     1     -30.074   2.490  10.960  0.00  0.00    +0.115 A 
ATOM      9  N   UNL     1     -29.950   1.238  10.455  0.00  0.00    -0.253 NA
ATOM     10  C   UNL     1     -28.957   0.629  11.263  0.00  0.00    +0.089 A 
ATOM     11  C   UNL     1     -28.408  -0.635  11.229  0.00  0.00    +0.067 A 
ATOM     12  C   UNL     1     -27.429  -0.973  12.154  0.00  0.00    +0.022 A 
ATOM     13  C   UNL     1     -27.008  -0.063  13.104  0.00  0.00    +0.002 A 
ATOM     14  C   UNL     1     -27.542   1.195  13.149  0.00  0.00    +0.010 A 
ATOM     15 CL   UNL     1     -28.839  -1.630  10.223  0.00  0.00    -0.081 Cl
ATOM     16  C   UNL     1     -28.506   1.498  12.220  0.00  0.00    +0.006 A 
ENDBRANCH   6   7
BRANCH   6   5
ATOM      1  O   UNL     1     -24.802   3.724  11.011  0.00  0.00    -0.252 OA
ATOM      2  C   UNL     1     -25.947   4.255  11.302  0.00  0.00    +0.309 C 
ATOM      3  N   UNL     1     -26.589   4.036  12.617  0.00  0.00    -0.287 N 
ATOM      4  H   UNL     1     -25.991   4.442  13.406  0.00  0.00    +0.151 HD
ATOM      5  C   UNL     1     -27.895   4.771  12.503  0.00  0.00    +0.165 C 
ATOM     17  C   UNL     1     -27.997   5.214  11.105  0.00  0.00    +0.243 C 
ATOM     18  O   UNL     1     -29.113   5.680  10.644  0.00  0.00    -0.273 OA
ATOM     19  N   UNL     1     -26.712   5.127  10.380  0.00  0.00    -0.228 N 
ATOM     20  C   UNL     1     -26.752   4.613   8.967  0.00  0.00    +0.143 C 
ENDBRANCH   6   5
TORSDOF 2
