REMARK  Name = 6S1I
REMARK  2 active torsions:
REMARK  status: ('A' for Active; 'I' for Inactive)
REMARK    1  A    between atoms: C10_1  and  C9_18
REMARK    2  A    between atoms: N_5  and  C3_12
REMARK                            x       y       z     vdW  Elec       q    Type
REMARK                         _______ _______ _______ _____ _____    ______ ____
ROOT
ATOM      2  C   UNL     1     -58.169   8.509 162.392  0.00  0.00    +0.380 A 
ATOM      3  N   UNL     1     -57.134   8.155 161.616  0.00  0.00    -0.760 NA
ATOM      4  C   UNL     1     -56.408   7.098 162.044  0.00  0.00    +0.760 A 
ATOM      5  N   UNL     1     -56.629   6.379 163.159  0.00  0.00    -0.760 NA
ATOM      6  C   UNL     1     -57.673   6.779 163.897  0.00  0.00    +0.250 A 
ATOM      7  N   UNL     1     -55.334   6.715 161.279  0.00  0.00    -0.200 N 
ATOM     14  C   UNL     1     -54.735   5.414 161.556  0.00  0.00    +0.050 C 
ATOM     15  C   UNL     1     -58.480   7.842 163.564  0.00  0.00    -0.130 A 
ENDROOT
BRANCH   2   1
ATOM      1  C   UNL     1     -59.006   9.632 161.947  0.00  0.00    +0.000 A 
ATOM     16  C   UNL     1     -60.030  10.254 162.673  0.00  0.00    +0.000 A 
ATOM     17  N   UNL     1     -60.635  11.217 161.997  0.00  0.00    -0.350 NA
ATOM     18  N   UNL     1     -59.992  11.219 160.825  0.00  0.00    +0.000 N 
ATOM     19  N   UNL     1     -60.309  12.068 159.825  0.00  0.00    -0.350 NA
ATOM     20  C   UNL     1     -59.586  11.968 158.701  0.00  0.00    +0.000 A 
ATOM     21  C   UNL     1     -58.537  11.065 158.472  0.00  0.00    -0.100 A 
ATOM     22  C   UNL     1     -58.246  10.220 159.505  0.00  0.00    -0.100 A 
ATOM     23  C   UNL     1     -58.991  10.301 160.704  0.00  0.00    +0.000 A 
ENDBRANCH   2   1
BRANCH   7   8
ATOM      8  C   UNL     1     -55.222   7.194 159.945  0.00  0.00    +0.000 A 
ATOM      9  C   UNL     1     -54.885   8.521 159.700  0.00  0.00    -0.130 A 
ATOM     10  C   UNL     1     -54.761   8.971 158.397  0.00  0.00    -0.130 A 
ATOM     11  C   UNL     1     -54.966   8.112 157.339  0.00  0.00    -0.130 A 
ATOM     12  C   UNL     1     -55.298   6.794 157.578  0.00  0.00    -0.130 A 
ATOM     13  C   UNL     1     -55.429   6.328 158.875  0.00  0.00    -0.130 A 
ENDBRANCH   7   8
TORSDOF 2
