REMARK  Name = 4e6d_ligand
REMARK  3 active torsions:
REMARK  status: ('A' for Active; 'I' for Inactive)
REMARK    1  A    between atoms: C15_2  and  C14_3
REMARK    2  A    between atoms: C14_3  and  C13_4
REMARK    3  A    between atoms: C8_11  and  N3_12
REMARK                            x       y       z     vdW  Elec       q    Type
REMARK                         _______ _______ _______ _____ _____    ______ ____
ROOT
ATOM      8  N   UNL     1      -2.668 -45.564 -22.391  0.00  0.00    -0.229 N 
ATOM      9  C   UNL     1      -1.949 -45.240 -23.522  0.00  0.00    +0.238 A 
ATOM     10  N   UNL     1      -2.628 -44.516 -24.381  0.00  0.00    -0.307 NA
ATOM     11  C   UNL     1      -3.878 -44.354 -23.787  0.00  0.00    +0.046 A 
ATOM     12  C   UNL     1      -4.994 -43.638 -24.202  0.00  0.00    +0.068 A 
ATOM     13  N   UNL     1      -6.111 -43.540 -23.472  0.00  0.00    -0.302 NA
ATOM     14  C   UNL     1      -6.142 -44.184 -22.292  0.00  0.00    +0.122 A 
ATOM     15  N   UNL     1      -7.183 -44.216 -21.410  0.00  0.00    -0.273 N 
ATOM     16  H   UNL     1      -8.083 -43.730 -21.531  0.00  0.00    +0.229 HD
ATOM     17  C   UNL     1      -6.841 -44.997 -20.340  0.00  0.00    +0.113 A 
ATOM     18  C   UNL     1      -5.573 -45.464 -20.494  0.00  0.00    -0.031 A 
ATOM     19  C   UNL     1      -5.084 -44.970 -21.750  0.00  0.00    +0.022 A 
ATOM     20  C   UNL     1      -3.936 -45.020 -22.534  0.00  0.00    +0.094 A 
ENDROOT
BRANCH   8   7
ATOM      4  C   UNL     1      -0.958 -49.235 -19.996  0.00  0.00    +0.205 C 
ATOM      5  N   UNL     1      -0.810 -47.919 -20.250  0.00  0.00    -0.269 N 
ATOM      6  C   UNL     1      -1.174 -47.253 -21.503  0.00  0.00    +0.175 C 
ATOM      7  C   UNL     1      -2.261 -46.262 -21.178  0.00  0.00    +0.157 C 
ATOM     21  C   UNL     1      -1.899 -45.277 -20.070  0.00  0.00    +0.040 C 
ATOM     22  C   UNL     1      -1.365 -46.007 -18.838  0.00  0.00    +0.028 C 
ATOM     23  C   UNL     1      -0.291 -47.001 -19.242  0.00  0.00    +0.139 C 
ATOM     24  O   UNL     1      -1.419 -50.003 -20.834  0.00  0.00    -0.395 OA
BRANCH   4   3
ATOM      3  C   UNL     1      -0.567 -49.780 -18.551  0.00  0.00    +0.321 C 
BRANCH   3   2
ATOM      1  N   UNL     1      -1.608 -52.128 -18.133  0.00  0.00    -0.301 NA
ATOM      2  C   UNL     1      -1.228 -51.059 -18.311  0.00  0.00    +0.112 C 
ENDBRANCH   3   2
ENDBRANCH   4   3
ENDBRANCH   8   7
TORSDOF 3
