REMARK  Name = 5XS2
REMARK  2 active torsions:
REMARK  status: ('A' for Active; 'I' for Inactive)
REMARK    1  A    between atoms: C_1  and  C_9
REMARK    2  A    between atoms: C_4  and  C_6
REMARK                            x       y       z     vdW  Elec       q    Type
REMARK                         _______ _______ _______ _____ _____    ______ ____
ROOT
ATOM      6  C   UNL     1       7.354  25.655 -10.562  0.00  0.00    +0.021 A 
ATOM      7  C   UNL     1       6.131  25.417  -9.939  0.00  0.00    +0.121 A 
ATOM      8  N   UNL     1       5.462  24.460 -10.628  0.00  0.00    -0.248 NA
ATOM      9  C   UNL     1       6.214  24.092 -11.701  0.00  0.00    +0.144 A 
ATOM     15  C   UNL     1       7.386  24.837 -11.676  0.00  0.00    +0.081 A 
ATOM     16 CL   UNL     1       8.664  24.688 -12.840  0.00  0.00    -0.081 Cl
ENDROOT
BRANCH   6   1
ATOM      1  C   UNL     1       8.313  26.710 -10.104  0.00  0.00    -0.012 A 
ATOM      2  C   UNL     1       9.108  27.419 -11.022  0.00  0.00    +0.028 A 
ATOM      3  C   UNL     1       9.934  28.447 -10.564  0.00  0.00    +0.111 A 
ATOM      4  N   UNL     1       9.944  28.780  -9.249  0.00  0.00    -0.263 NA
ATOM      5  C   UNL     1       9.182  28.135  -8.337  0.00  0.00    +0.111 A 
ATOM     17  C   UNL     1       8.333  27.111  -8.757  0.00  0.00    +0.028 A 
ENDBRANCH   6   1
BRANCH   9  10
ATOM     10  C   UNL     1       5.812  23.063 -12.702  0.00  0.00    +0.261 C 
ATOM     11  O   UNL     1       6.334  22.984 -13.802  0.00  0.00    -0.269 OA
ATOM     12  N   UNL     1       4.752  22.176 -12.360  0.00  0.00    -0.324 N 
ATOM     13  H   UNL     1       4.290  22.240 -11.397  0.00  0.00    +0.145 HD
ATOM     14  H   UNL     1       4.417  21.445 -13.066  0.00  0.00    +0.145 HD
ENDBRANCH   9  10
TORSDOF 2
