REMARK  Name = 6MZW
REMARK  6 active torsions:
REMARK  status: ('A' for Active; 'I' for Inactive)
REMARK    1  A    between atoms: O01_2  and  C0E_3
REMARK    2  A    between atoms: C0D_6  and  O02_7
REMARK    3  A    between atoms: C0J_10  and  C0S_11
REMARK    4  A    between atoms: C0H_12  and  C0G_13
REMARK    5  A    between atoms: N04_22  and  C0K_23
REMARK    6  A    between atoms: C0P_28  and  C0M_30
REMARK                            x       y       z     vdW  Elec       q    Type
REMARK                         _______ _______ _______ _____ _____    ______ ____
ROOT
ATOM     10  C   UNL     1     -17.461  10.882  12.354  0.00  0.00    +0.100 C 
ATOM     11  C   UNL     1     -17.819  11.905  13.261  0.00  0.00    +0.000 A 
ATOM     12  C   UNL     1     -19.102  11.542  13.695  0.00  0.00    +0.400 A 
ATOM     13  N   UNL     1     -19.451  10.379  13.051  0.00  0.00    -0.150 N 
ATOM     23  N   UNL     1     -19.885  12.192  14.580  0.00  0.00    -0.730 NA
ATOM     24  C   UNL     1     -19.281  13.289  15.013  0.00  0.00    +0.630 A 
ATOM     25  N   UNL     1     -18.065  13.797  14.711  0.00  0.00    -0.760 NA
ATOM     26  C   UNL     1     -17.319  13.104  13.842  0.00  0.00    +0.430 A 
ATOM     27  N   UNL     1     -16.127  13.583  13.532  0.00  0.00    -0.550 NA
ATOM     28  N   UNL     1     -18.432   9.948  12.219  0.00  0.00    -0.350 NA
ENDROOT
BRANCH  13  14
ATOM     14  C   UNL     1     -20.731   9.659  13.252  0.00  0.00    +0.050 C 
ATOM     15  C   UNL     1     -21.776   9.888  12.172  0.00  0.00    -0.100 C 
ATOM     16  C   UNL     1     -21.481   8.913  11.086  0.00  0.00    +0.000 C 
ATOM     17  N   UNL     1     -20.756   7.842  11.854  0.00  0.00    +0.750 N 
ATOM     18  C   UNL     1     -20.407   6.641  11.307  0.00  0.00    +0.200 C 
ATOM     21  O   UNL     1     -20.678   6.402  10.110  0.00  0.00    -0.550 OA
ATOM     22  C   UNL     1     -20.489   8.205  13.272  0.00  0.00    +0.000 C 
BRANCH  18  19
ATOM     19  C   UNL     1     -19.678   5.630  12.128  0.00  0.00    -0.100 C 
ATOM     20  C   UNL     1     -19.325   4.450  11.625  0.00  0.00    -0.100 C 
ENDBRANCH  18  19
ENDBRANCH  13  14
BRANCH  10   9
ATOM      8  C   UNL     1     -15.298  10.824  11.171  0.00  0.00    +0.000 C 
ATOM      9  C   UNL     1     -16.276  10.873  11.706  0.00  0.00    +0.000 C 
BRANCH   8   7
ATOM      3  C   UNL     1     -12.738  11.893   8.769  0.00  0.00    +0.185 A 
ATOM      4  C   UNL     1     -11.701  10.985   8.991  0.00  0.00    -0.130 A 
ATOM      5  C   UNL     1     -11.897  10.020   9.981  0.00  0.00    +0.185 A 
ATOM      6  C   UNL     1     -13.079   9.938  10.724  0.00  0.00    -0.130 A 
ATOM      7  C   UNL     1     -14.078  10.883  10.479  0.00  0.00    +0.000 A 
ATOM     31  C   UNL     1     -13.894  11.840   9.498  0.00  0.00    -0.130 A 
BRANCH   3   2
ATOM      1  C   UNL     1     -11.701  12.912   6.879  0.00  0.00    +0.030 C 
ATOM      2  O   UNL     1     -12.752  12.929   7.848  0.00  0.00    -0.365 OA
ENDBRANCH   3   2
BRANCH   5  29
ATOM     29  O   UNL     1     -10.987   9.079  10.300  0.00  0.00    -0.365 OA
ATOM     30  C   UNL     1      -9.622   9.143   9.890  0.00  0.00    +0.030 C 
ENDBRANCH   5  29
ENDBRANCH   8   7
ENDBRANCH  10   9
TORSDOF 6
