REMARK  Name = 2GQG
REMARK  9 active torsions:
REMARK  status: ('A' for Active; 'I' for Inactive)
REMARK    1  A    between atoms: C_2  and  C_3
REMARK    2  A    between atoms: N_4  and  C_16
REMARK    3  A    between atoms: C_7  and  C_8
REMARK    4  A    between atoms: C_11  and  N_30
REMARK    5  A    between atoms: C_12  and  C_13
REMARK    6  A    between atoms: C_16  and  C_17
REMARK    7  A    between atoms: C_17  and  O_33
REMARK    8  A    between atoms: N_18  and  C_19
REMARK    9  A    between atoms: N_22  and  C_23
REMARK                            x       y       z     vdW  Elec       q    Type
REMARK                         _______ _______ _______ _____ _____    ______ ____
ROOT
ATOM      6  N   UNL     1      43.977  80.118  38.257  0.00  0.00    -0.224 NA
ATOM      7  C   UNL     1      43.345  79.045  38.824  0.00  0.00    +0.156 A 
ATOM      8  N   UNL     1      43.764  78.558  40.012  0.00  0.00    -0.216 NA
ATOM      9  C   UNL     1      43.138  77.525  40.561  0.00  0.00    +0.108 A 
ATOM     10  N   UNL     1      42.097  76.905  39.975  0.00  0.00    -0.332 N 
ATOM     11  H   UNL     1      41.631  76.065  40.447  0.00  0.00    +0.168 HD
ATOM     12  C   UNL     1      41.641  77.364  38.764  0.00  0.00    +0.104 A 
ATOM     23  C   UNL     1      43.600  77.097  41.919  0.00  0.00    +0.086 C 
ATOM     24  C   UNL     1      42.260  78.466  38.141  0.00  0.00    +0.089 A 
ENDROOT
BRANCH   6   4
ATOM      1  C   UNL     1      46.611  82.620  38.841  0.00  0.00    +0.090 C 
ATOM      2  N   UNL     1      45.540  81.939  38.102  0.00  0.00    -0.313 N 
ATOM      3  H   UNL     1      45.205  82.262  37.139  0.00  0.00    +0.149 HD
ATOM      4  C   UNL     1      45.012  80.868  38.742  0.00  0.00    +0.231 C 
ATOM      5  S   UNL     1      45.812  80.677  40.296  0.00  0.00    -0.065 S 
ATOM     25  C   UNL     1      46.775  82.067  40.044  0.00  0.00    +0.087 C 
BRANCH  25  26
ATOM     26  C   UNL     1      47.687  82.494  41.148  0.00  0.00    +0.256 C 
ATOM     27  O   UNL     1      47.726  81.705  42.092  0.00  0.00    -0.269 OA
ATOM     28  N   UNL     1      48.393  83.626  41.104  0.00  0.00    -0.280 N 
ATOM     29  H   UNL     1      48.212  84.323  40.312  0.00  0.00    +0.155 HD
BRANCH  28  30
ATOM     30  C   UNL     1      49.333  83.915  42.037  0.00  0.00    +0.055 A 
ATOM     31  C   UNL     1      49.021  84.653  43.201  0.00  0.00    +0.062 A 
ATOM     32 CL   UNL     1      47.394  85.056  43.589  0.00  0.00    -0.082 Cl
ATOM     33  C   UNL     1      50.005  85.071  44.107  0.00  0.00    +0.022 A 
ATOM     34  C   UNL     1      51.328  84.711  43.846  0.00  0.00    +0.002 A 
ATOM     35  C   UNL     1      51.649  83.922  42.733  0.00  0.00    +0.005 A 
ATOM     36  C   UNL     1      50.660  83.535  41.822  0.00  0.00    -0.028 A 
ATOM     37  C   UNL     1      51.054  82.746  40.606  0.00  0.00    +0.045 C 
ENDBRANCH  28  30
ENDBRANCH  25  26
ENDBRANCH   6   4
BRANCH  12  13
ATOM     13  N   UNL     1      40.490  76.717  38.165  0.00  0.00    -0.314 N 
ATOM     14  C   UNL     1      39.905  77.149  36.884  0.00  0.00    +0.122 C 
ATOM     15  C   UNL     1      39.911  75.979  35.896  0.00  0.00    +0.103 C 
ATOM     16  N   UNL     1      39.154  74.848  36.462  0.00  0.00    -0.297 NA
ATOM     17  C   UNL     1      39.622  74.410  37.799  0.00  0.00    +0.103 C 
ATOM     22  C   UNL     1      39.820  75.566  38.809  0.00  0.00    +0.122 C 
BRANCH  16  18
ATOM     18  C   UNL     1      39.221  73.737  35.503  0.00  0.00    +0.112 C 
BRANCH  18  19
ATOM     19  C   UNL     1      38.355  73.889  34.227  0.00  0.00    +0.171 C 
BRANCH  19  20
ATOM     20  O   UNL     1      37.496  75.015  34.261  0.00  0.00    -0.394 OA
ATOM     21  H   UNL     1      36.842  74.932  35.078  0.00  0.00    +0.209 HD
ENDBRANCH  19  20
ENDBRANCH  18  19
ENDBRANCH  16  18
ENDBRANCH  12  13
TORSDOF 7
