REMARK  Name = 89J
REMARK  2 active torsions:
REMARK  status: ('A' for Active; 'I' for Inactive)
REMARK    1  A    between atoms: C6_3  and  C8_5
REMARK    2  A    between atoms: C9_10  and  N15_15
REMARK                            x       y       z     vdW  Elec       q    Type
REMARK                         _______ _______ _______ _____ _____    ______ ____
ROOT
ATOM      7  C   UNL     1     -13.709  11.932   1.241  0.00  0.00    +0.116 C 
ATOM      8  C   UNL     1     -12.623  12.904   1.491  0.00  0.00    +0.089 C 
ATOM     11  C   UNL     1     -11.461  12.705   0.841  0.00  0.00    +0.080 C 
ATOM     12  C   UNL     1     -11.299  11.500   0.001  0.00  0.00    +0.278 C 
ATOM     13  N   UNL     1     -12.358  10.637  -0.021  0.00  0.00    -0.215 N 
ATOM     14  C   UNL     1     -12.247   9.405  -0.768  0.00  0.00    +0.157 C 
ATOM     15  O   UNL     1     -10.218  11.295  -0.556  0.00  0.00    -0.266 OA
ATOM     16  N   UNL     1     -13.577  10.877   0.518  0.00  0.00    -0.166 NA
ENDROOT
BRANCH   7   6
ATOM      1  C   UNL     1     -15.634  11.361   2.674  0.00  0.00    +0.002 A 
ATOM      2  C   UNL     1     -16.928  11.609   3.106  0.00  0.00    +0.000 A 
ATOM      3  C   UNL     1     -17.641  12.671   2.578  0.00  0.00    +0.000 A 
ATOM      4  C   UNL     1     -17.080  13.498   1.625  0.00  0.00    +0.000 A 
ATOM      5  C   UNL     1     -15.786  13.259   1.194  0.00  0.00    +0.002 A 
ATOM      6  C   UNL     1     -15.071  12.198   1.731  0.00  0.00    +0.021 A 
ENDBRANCH   7   6
BRANCH   8   9
ATOM      9  N   UNL     1     -12.892  13.965   2.332  0.00  0.00    -0.234 NA
ATOM     10  C   UNL     1     -11.829  14.863   2.709  0.00  0.00    +0.136 C 
ENDBRANCH   8   9
TORSDOF 2
