REMARK  Name = 4YP8
REMARK  8 active torsions:
REMARK  status: ('A' for Active; 'I' for Inactive)
REMARK    1  A    between atoms: N_1  and  C_13
REMARK    2  A    between atoms: C_2  and  C_4
REMARK    3  A    between atoms: C_15  and  C_18
REMARK    4  A    between atoms: N_17  and  C_27
REMARK    5  A    between atoms: N_21  and  C_24
REMARK    6  A    between atoms: C_24  and  C_25
REMARK    7  A    between atoms: C_24  and  C_26
REMARK    8  A    between atoms: C_30  and  C_34
REMARK                            x       y       z     vdW  Elec       q    Type
REMARK                         _______ _______ _______ _____ _____    ______ ____
ROOT
ATOM      3  C   UNL     1      28.699   6.168  -6.358  0.00  0.00    +0.129 A 
ATOM      4  N   UNL     1      28.227   7.354  -5.789  0.00  0.00    -0.215 N 
ATOM     15  N   UNL     1      27.478   7.138  -4.655  0.00  0.00    -0.169 NA
ATOM     16  C   UNL     1      27.521   5.783  -4.482  0.00  0.00    +0.069 A 
ATOM     26  C   UNL     1      28.260   5.149  -5.532  0.00  0.00    +0.069 A 
ENDROOT
BRANCH   4   5
ATOM      5  C   UNL     1      28.425   8.681  -6.265  0.00  0.00    +0.102 A 
ATOM      6  C   UNL     1      27.429   9.304  -7.015  0.00  0.00    +0.031 A 
ATOM      7  C   UNL     1      27.645  10.564  -7.552  0.00  0.00    +0.006 A 
ATOM      8  C   UNL     1      28.873  11.206  -7.430  0.00  0.00    -0.041 A 
ATOM     12  C   UNL     1      29.897  10.575  -6.728  0.00  0.00    +0.044 A 
ATOM     13  C   UNL     1      29.665   9.337  -6.188  0.00  0.00    +0.149 A 
ATOM     14  F   UNL     1      30.666   8.726  -5.522  0.00  0.00    -0.203 F 
BRANCH   8   9
ATOM      9  C   UNL     1      29.084  12.574  -8.050  0.00  0.00    +0.019 C 
ATOM     10  C   UNL     1      28.438  13.734  -7.340  0.00  0.00    +0.009 C 
ATOM     11  C   UNL     1      29.915  13.635  -7.375  0.00  0.00    +0.009 C 
ENDBRANCH   8   9
ENDBRANCH   4   5
BRANCH  16  17
ATOM     17  C   UNL     1      26.785   5.137  -3.349  0.00  0.00    +0.042 C 
ATOM     18  C   UNL     1      26.509   6.152  -2.230  0.00  0.00    +0.025 C 
ATOM     19  C   UNL     1      25.740   5.473  -1.099  0.00  0.00    +0.085 C 
ATOM     20  N   UNL     1      26.492   4.333  -0.546  0.00  0.00    -0.300 NA
ATOM     24  C   UNL     1      26.655   3.343  -1.623  0.00  0.00    +0.085 C 
ATOM     25  C   UNL     1      27.491   3.905  -2.768  0.00  0.00    +0.025 C 
BRANCH  20  21
ATOM     21  C   UNL     1      25.897   3.783   0.690  0.00  0.00    +0.050 C 
ATOM     22  C   UNL     1      26.884   2.911   1.462  0.00  0.00    +0.024 C 
ATOM     23  C   UNL     1      25.281   4.860   1.579  0.00  0.00    +0.024 C 
ENDBRANCH  20  21
ENDBRANCH  16  17
BRANCH   3   1
ATOM      1  N   UNL     1      29.432   6.231  -7.549  0.00  0.00    -0.266 N 
ATOM      2  H   UNL     1      29.471   7.184  -8.034  0.00  0.00    +0.157 HD
ATOM     27  C   UNL     1      30.104   5.209  -8.160  0.00  0.00    +0.254 C 
ATOM     38  O   UNL     1      29.979   4.028  -7.839  0.00  0.00    -0.270 OA
BRANCH  27  28
ATOM     28  C   UNL     1      31.024   5.615  -9.225  0.00  0.00    +0.098 A 
ATOM     29  C   UNL     1      31.248   6.858  -9.848  0.00  0.00    +0.162 A 
ATOM     30  N   UNL     1      30.758   8.167  -9.669  0.00  0.00    -0.261 NA
ATOM     31  C   UNL     1      31.326   9.142 -10.434  0.00  0.00    +0.172 C 
ATOM     32  C   UNL     1      32.325   8.926 -11.367  0.00  0.00    +0.016 C 
ATOM     33  C   UNL     1      32.876   7.661 -11.559  0.00  0.00    +0.110 C 
ATOM     34  N   UNL     1      32.328   6.603 -10.789  0.00  0.00    -0.244 N 
ATOM     35  N   UNL     1      32.710   5.276 -10.772  0.00  0.00    -0.298 N 
ATOM     36  H   UNL     1      33.484   4.814 -11.348  0.00  0.00    +0.187 HD
ATOM     37  C   UNL     1      31.898   4.691  -9.874  0.00  0.00    +0.118 A 
ENDBRANCH  27  28
ENDBRANCH   3   1
TORSDOF 6
