REMARK  Name = 501
REMARK  0 active torsions:
REMARK  status: ('A' for Active; 'I' for Inactive)
REMARK                            x       y       z     vdW  Elec       q    Type
REMARK                         _______ _______ _______ _____ _____    ______ ____
ROOT
ATOM      1  O   UNL     1      -8.000   4.897  20.445  0.00  0.00    +0.000 OA
ATOM      2  O   UNL     1      -8.000   4.398  21.114  0.00  0.00    +0.000 OA
ATOM      3  O   UNL     1      -7.000   3.728  22.318  0.00  0.00    +0.000 OA
ENDROOT
TORSDOF 0
