REMARK  Name = 3WYX
REMARK  7 active torsions:
REMARK  status: ('A' for Active; 'I' for Inactive)
REMARK    1  A    between atoms: C_2  and  C_3
REMARK    2  A    between atoms: C_3  and  O_4
REMARK    3  A    between atoms: O_4  and  C_5
REMARK    4  A    between atoms: N_11  and  C_12
REMARK    5  A    between atoms: C_14  and  N_17
REMARK    6  A    between atoms: C_21  and  C_22
REMARK    7  A    between atoms: N_26  and  C_27
REMARK                            x       y       z     vdW  Elec       q    Type
REMARK                         _______ _______ _______ _____ _____    ______ ____
ROOT
ATOM      8  N   UNL     1     -34.668 -19.700  -9.753  0.00  0.00    -0.036 NA
ATOM      9  C   UNL     1     -35.506 -19.759 -10.833  0.00  0.00    +0.370 C 
ATOM     10  C   UNL     1     -35.972 -21.011 -11.257  0.00  0.00    +0.104 C 
ATOM     11  C   UNL     1     -36.815 -21.114 -12.359  0.00  0.00    +0.017 C 
ATOM     12  C   UNL     1     -37.194 -19.953 -13.014  0.00  0.00    +0.210 C 
ATOM     15  C   UNL     1     -36.710 -18.714 -12.560  0.00  0.00    +0.318 C 
ATOM     16  N   UNL     1     -37.066 -17.557 -13.166  0.00  0.00    -0.233 N 
ATOM     17  H   UNL     1     -37.644 -17.623 -14.064  0.00  0.00    +0.291 HD
ATOM     24  N   UNL     1     -35.896 -18.650 -11.499  0.00  0.00    +0.002 NA
ENDROOT
BRANCH   8   7
ATOM      5  C   UNL     1     -33.211 -17.604  -7.177  0.00  0.00    +0.130 C 
ATOM      6  C   UNL     1     -33.678 -18.693  -7.907  0.00  0.00    +0.101 C 
ATOM      7  C   UNL     1     -34.195 -18.562  -9.173  0.00  0.00    +0.177 C 
ATOM     25  C   UNL     1     -34.241 -17.285  -9.723  0.00  0.00    +0.033 C 
ATOM     26  C   UNL     1     -33.774 -16.187  -9.009  0.00  0.00    +0.070 C 
ATOM     27  C   UNL     1     -33.257 -16.325  -7.715  0.00  0.00    +0.004 C 
ATOM     28  C   UNL     1     -32.792 -15.217  -6.993  0.00  0.00    -0.002 C 
ATOM     29  C   UNL     1     -32.242 -15.220  -5.704  0.00  0.00    +0.135 C 
ATOM     30  N   UNL     1     -31.904 -13.957  -5.361  0.00  0.00    -0.192 NA
ATOM     31  N   UNL     1     -32.251 -13.157  -6.458  0.00  0.00    -0.254 N 
ATOM     32  C   UNL     1     -31.984 -11.699  -6.313  0.00  0.00    +0.152 C 
ATOM     33  C   UNL     1     -32.779 -13.897  -7.440  0.00  0.00    +0.162 C 
BRANCH   5   4
ATOM      4  O   UNL     1     -32.739 -17.858  -5.914  0.00  0.00    -0.477 OA
BRANCH   4   3
ATOM      3  C   UNL     1     -33.655 -18.404  -4.959  0.00  0.00    +0.346 C 
BRANCH   3   2
ATOM      1  N   UNL     1     -33.200 -20.984  -4.682  0.00  0.00    -0.193 NA
ATOM      2  C   UNL     1     -33.409 -19.848  -4.809  0.00  0.00    +0.104 C 
ENDBRANCH   3   2
ENDBRANCH   4   3
ENDBRANCH   5   4
ENDBRANCH   8   7
BRANCH  16  18
ATOM     18  C   UNL     1     -36.716 -16.228 -12.680  0.00  0.00    +0.165 C 
ATOM     19  C   UNL     1     -35.673 -15.614 -13.618  0.00  0.00    +0.047 C 
ATOM     20  C   UNL     1     -35.422 -14.135 -13.364  0.00  0.00    +0.004 C 
ATOM     21  C   UNL     1     -36.737 -13.379 -13.474  0.00  0.00    +0.000 C 
ATOM     22  C   UNL     1     -37.746 -13.892 -12.455  0.00  0.00    +0.004 C 
ATOM     23  C   UNL     1     -37.995 -15.391 -12.585  0.00  0.00    +0.047 C 
ENDBRANCH  16  18
BRANCH  12  13
ATOM     13  C   UNL     1     -37.992 -20.035 -14.022  0.00  0.00    +0.088 C 
ATOM     14  N   UNL     1     -38.778 -20.072 -14.881  0.00  0.00    -0.195 NA
ENDBRANCH  12  13
TORSDOF 6
