REMARK  Name = 57E
REMARK  5 active torsions:
REMARK  status: ('A' for Active; 'I' for Inactive)
REMARK    1  A    between atoms: C2_2  and  C3_3
REMARK    2  A    between atoms: C4_4  and  C27_15
REMARK    3  A    between atoms: C7_6  and  C8_17
REMARK    4  A    between atoms: C13_9  and  S18_24
REMARK    5  A    between atoms: S18_24  and  N21_27
REMARK                            x       y       z     vdW  Elec       q    Type
REMARK                         _______ _______ _______ _____ _____    ______ ____
ROOT
ATOM      8  C   UNL     1      -7.975   7.015   1.112  0.00  0.00    +0.282 C 
ATOM      9  O   UNL     1      -7.433   6.927   2.215  0.00  0.00    -0.265 OA
ATOM     10  N   UNL     1      -7.349   7.570   0.068  0.00  0.00    -0.272 N 
ATOM     11  C   UNL     1      -6.319   8.516   0.230  0.00  0.00    +0.068 A 
ATOM     12  C   UNL     1      -5.724   9.019   1.409  0.00  0.00    +0.038 A 
ATOM     13  C   UNL     1      -4.675   9.949   1.313  0.00  0.00    +0.125 A 
ATOM     19  C   UNL     1      -4.226  10.327   0.044  0.00  0.00    +0.020 A 
ATOM     20  C   UNL     1      -4.811   9.809  -1.125  0.00  0.00    +0.003 A 
ATOM     21  C   UNL     1      -5.862   8.906  -1.001  0.00  0.00    +0.018 A 
ATOM     22  C   UNL     1      -6.625   8.222  -2.103  0.00  0.00    +0.021 A 
ATOM     23  C   UNL     1      -7.491   7.206  -1.347  0.00  0.00    +0.083 A 
ENDROOT
BRANCH   8   4
ATOM      3  C   UNL     1     -10.552   6.939   0.403  0.00  0.00    +0.004 A 
ATOM      4  C   UNL     1      -9.350   6.435   1.125  0.00  0.00    +0.133 A 
ATOM      5  N   UNL     1      -9.679   5.385   1.888  0.00  0.00    -0.245 NA
ATOM      6  C   UNL     1     -10.973   5.089   1.778  0.00  0.00    +0.062 A 
ATOM      7  C   UNL     1     -11.650   3.950   2.490  0.00  0.00    +0.052 C 
ATOM     24  C   UNL     1     -11.557   6.066   0.827  0.00  0.00    +0.046 A 
BRANCH  24  25
ATOM     25  C   UNL     1     -13.012   6.063   0.491  0.00  0.00    +0.174 C 
ATOM     26  O   UNL     1     -13.639   5.020   0.462  0.00  0.00    -0.291 OA
ATOM     27  C   UNL     1     -13.719   7.372   0.298  0.00  0.00    +0.077 C 
ENDBRANCH  24  25
BRANCH   3   2
ATOM      1  C   UNL     1     -11.010   7.605  -1.927  0.00  0.00    +0.005 C 
ATOM      2  C   UNL     1     -10.662   8.105  -0.544  0.00  0.00    +0.028 C 
ENDBRANCH   3   2
ENDBRANCH   8   4
BRANCH  13  14
ATOM     14  S   UNL     1      -3.993  10.545   2.657  0.00  0.00    +0.077 S 
ATOM     15  O   UNL     1      -4.992  10.850   3.623  0.00  0.00    -0.152 OA
ATOM     18  O   UNL     1      -3.209  11.725   2.340  0.00  0.00    -0.152 OA
BRANCH  14  16
ATOM     16  N   UNL     1      -3.015   9.436   3.260  0.00  0.00    -0.076 NA
ATOM     17  C   UNL     1      -3.534   8.234   3.891  0.00  0.00    +0.136 C 
ENDBRANCH  14  16
ENDBRANCH  13  14
TORSDOF 5
