REMARK  Name = 3mj2_ligand
REMARK  16 active torsions:
REMARK  status: ('A' for Active; 'I' for Inactive)
REMARK    1  A    between atoms: C1_1  and  O7_7
REMARK    2  A    between atoms: C2_2  and  C9_9
REMARK    3  A    between atoms: C4_4  and  S20_20
REMARK    4  A    between atoms: C5_5  and  C42_42
REMARK    5  A    between atoms: O7_7  and  C8_8
REMARK    6  A    between atoms: C17_17  and  C18_18
REMARK    7  A    between atoms: S20_20  and  C22_22
REMARK    8  A    between atoms: C27_27  and  C28_28
REMARK    9  A    between atoms: C31_31  and  C35_35
REMARK   10  A    between atoms: C35_35  and  N36_36
REMARK   11  A    between atoms: N36_36  and  C37_37
REMARK   12  A    between atoms: C37_37  and  C38_38
REMARK   13  A    between atoms: C37_37  and  C43_43
REMARK   14  A    between atoms: C38_38  and  C39_39
REMARK   15  A    between atoms: C38_38  and  C40_40
REMARK   16  A    between atoms: C38_38  and  C41_41
REMARK                            x       y       z     vdW  Elec       q    Type
REMARK                         _______ _______ _______ _____ _____    ______ ____
ROOT
ATOM      9  C   UNL     1      13.047   3.204  -3.818  0.00  0.00    +0.082 A 
ATOM     10  S   UNL     1      14.143   4.572  -3.887  0.00  0.00    +0.031 S 
ATOM     11  C   UNL     1      12.825   5.649  -3.448  0.00  0.00    +0.199 A 
ATOM     12  N   UNL     1      12.928   7.028  -3.338  0.00  0.00    -0.199 N 
ATOM     13  H   UNL     1      12.102   7.558  -3.147  0.00  0.00    +0.238 HD
ATOM     14  C   UNL     1      14.104   7.686  -3.479  0.00  0.00    +0.237 C 
ATOM     15  O   UNL     1      15.140   7.077  -3.693  0.00  0.00    -0.372 OA
ATOM     32  N   UNL     1      11.733   4.961  -3.318  0.00  0.00    -0.337 NA
ATOM     33  C   UNL     1      11.823   3.654  -3.498  0.00  0.00    -0.002 A 
ENDROOT
BRANCH  14  16
ATOM     16  C   UNL     1      14.137   9.165  -3.422  0.00  0.00    +0.051 A 
ATOM     17  C   UNL     1      12.948   9.893  -3.531  0.00  0.00    +0.017 A 
ATOM     18  C   UNL     1      12.975  11.276  -3.506  0.00  0.00    +0.008 A 
ATOM     19  C   UNL     1      14.185  11.946  -3.392  0.00  0.00    +0.006 A 
ATOM     30  C   UNL     1      15.372  11.233  -3.299  0.00  0.00    +0.008 A 
ATOM     31  C   UNL     1      15.356   9.850  -3.323  0.00  0.00    +0.017 A 
BRANCH  19  20
ATOM     20  C   UNL     1      14.197  13.456  -3.378  0.00  0.00    +0.201 C 
BRANCH  20  21
ATOM     21  N   UNL     1      14.639  14.046  -4.667  0.00  0.00    +0.242 N 
ATOM     22  H   UNL     1      14.342  15.009  -4.684  0.00  0.00    +0.203 HD
ATOM     23  H   UNL     1      15.646  14.005  -4.696  0.00  0.00    +0.203 HD
BRANCH  21  24
ATOM     24  C   UNL     1      14.122  13.390  -5.893  0.00  0.00    +0.066 C 
ATOM     25  C   UNL     1      12.788  14.025  -6.327  0.00  0.00    +0.064 C 
BRANCH  24  26
ATOM     26  C   UNL     1      15.179  13.341  -7.027  0.00  0.00    +0.005 C 
ATOM     27  C   UNL     1      15.839  14.695  -7.309  0.00  0.00    +0.016 C 
ATOM     28  C   UNL     1      14.553  12.836  -8.332  0.00  0.00    +0.016 C 
ATOM     29  C   UNL     1      16.290  12.370  -6.624  0.00  0.00    +0.016 C 
ENDBRANCH  24  26
ENDBRANCH  21  24
ENDBRANCH  20  21
ENDBRANCH  19  20
ENDBRANCH  14  16
BRANCH   9   8
ATOM      8  S   UNL     1      13.526   1.549  -4.140  0.00  0.00    -0.052 S 
BRANCH   8   7
ATOM      1  C   UNL     1      17.064   1.102  -1.297  0.00  0.00    +0.099 A 
ATOM      4  C   UNL     1      15.849   0.484  -1.016  0.00  0.00    +0.017 A 
ATOM      5  C   UNL     1      14.773   0.622  -1.872  0.00  0.00    -0.035 A 
ATOM      6  C   UNL     1      13.478  -0.062  -1.528  0.00  0.00    +0.083 C 
ATOM      7  C   UNL     1      14.901   1.374  -3.043  0.00  0.00    +0.026 A 
ATOM     34  C   UNL     1      16.113   1.990  -3.342  0.00  0.00    +0.015 A 
ATOM     35  C   UNL     1      17.208   1.867  -2.467  0.00  0.00    +0.066 A 
BRANCH  35  36
ATOM     36  C   UNL     1      18.510   2.508  -2.777  0.00  0.00    +0.196 C 
ATOM     37  O   UNL     1      19.382   1.821  -3.274  0.00  0.00    -0.394 OA
ATOM     38  N   UNL     1      18.765   3.814  -2.538  0.00  0.00    -0.271 N 
ATOM     39  C   UNL     1      17.750   4.691  -1.926  0.00  0.00    +0.162 C 
ATOM     40  C   UNL     1      17.676   6.066  -2.594  0.00  0.00    +0.163 C 
ATOM     41  N   UNL     1      18.985   6.562  -3.072  0.00  0.00    -0.270 N 
ATOM     42  C   UNL     1      19.304   7.877  -2.928  0.00  0.00    +0.175 C 
ATOM     43  O   UNL     1      18.526   8.639  -2.389  0.00  0.00    -0.397 OA
ATOM     44  C   UNL     1      20.622   8.433  -3.416  0.00  0.00    +0.166 C 
ATOM     45  C   UNL     1      19.907   5.619  -3.737  0.00  0.00    +0.163 C 
ATOM     46  C   UNL     1      20.090   4.373  -2.863  0.00  0.00    +0.162 C 
ENDBRANCH  35  36
BRANCH   1   2
ATOM      2  O   UNL     1      18.113   0.962  -0.440  0.00  0.00    -0.322 OA
ATOM      3  C   UNL     1      17.827   0.943   0.961  0.00  0.00    +0.233 C 
ENDBRANCH   1   2
ENDBRANCH   8   7
ENDBRANCH   9   8
TORSDOF 9
