REMARK  Name = FQD
REMARK  1 active torsions:
REMARK  status: ('A' for Active; 'I' for Inactive)
REMARK    1  A    between atoms: C1_1  and  C5_10
REMARK                            x       y       z     vdW  Elec       q    Type
REMARK                         _______ _______ _______ _____ _____    ______ ____
ROOT
ATOM      1  C   UNL     1     -30.047   6.042 -36.577  0.00  0.00    +0.013 A 
ATOM      9  C   UNL     1     -29.389   4.781 -36.695  0.00  0.00    +0.082 A 
ATOM     10  C   UNL     1     -28.566   4.041 -35.853  0.00  0.00    +0.283 A 
ATOM     11  O   UNL     1     -28.243   4.498 -34.600  0.00  0.00    -0.265 OA
ATOM     12  N   UNL     1     -28.069   2.848 -36.211  0.00  0.00    -0.186 NA
ATOM     13  C   UNL     1     -28.393   2.407 -37.433  0.00  0.00    +0.202 A 
ATOM     14  N   UNL     1     -29.157   3.018 -38.350  0.00  0.00    -0.217 NA
ATOM     15  C   UNL     1     -29.628   4.197 -37.928  0.00  0.00    +0.117 A 
ATOM     16  S   UNL     1     -30.622   5.179 -38.924  0.00  0.00    -0.067 S 
ATOM     17  C   UNL     1     -30.752   6.374 -37.711  0.00  0.00    +0.037 A 
ENDROOT
BRANCH   1   2
ATOM      2  C   UNL     1     -30.132   6.958 -35.469  0.00  0.00    +0.001 A 
ATOM      3  C   UNL     1     -30.493   6.469 -34.227  0.00  0.00    +0.002 A 
ATOM      4  C   UNL     1     -30.669   7.355 -33.188  0.00  0.00    +0.030 A 
ATOM      5  C   UNL     1     -30.516   8.707 -33.412  0.00  0.00    +0.140 A 
ATOM      6  F   UNL     1     -30.706   9.537 -32.387  0.00  0.00    -0.204 F 
ATOM      7  C   UNL     1     -30.143   9.206 -34.642  0.00  0.00    +0.030 A 
ATOM      8  C   UNL     1     -29.942   8.316 -35.677  0.00  0.00    +0.002 A 
ENDBRANCH   1   2
TORSDOF 1
