REMARK  Name = 5BUI
REMARK  2 active torsions:
REMARK  status: ('A' for Active; 'I' for Inactive)
REMARK    1  A    between atoms: C_1  and  N_19
REMARK    2  A    between atoms: C_4  and  C_5
REMARK                            x       y       z     vdW  Elec       q    Type
REMARK                         _______ _______ _______ _____ _____    ______ ____
ROOT
ATOM      7  N   UNL     1     -14.000   1.807  14.254  0.00  0.00    -0.310 N 
ATOM      8  C   UNL     1     -14.003   1.483  12.820  0.00  0.00    +0.113 C 
ATOM      9  C   UNL     1     -14.768   0.208  12.465  0.00  0.00    +0.074 C 
ATOM     10  C   UNL     1     -16.090   0.260  13.161  0.00  0.00    +0.043 A 
ATOM     11  N   UNL     1     -17.263  -0.392  12.854  0.00  0.00    -0.281 N 
ATOM     12  H   UNL     1     -17.379  -1.084  12.046  0.00  0.00    +0.189 HD
ATOM     13  N   UNL     1     -18.261  -0.037  13.721  0.00  0.00    -0.173 NA
ATOM     14  C   UNL     1     -17.750   0.837  14.595  0.00  0.00    +0.097 A 
ATOM     22  C   UNL     1     -16.366   1.043  14.273  0.00  0.00    +0.018 A 
ATOM     23  C   UNL     1     -15.333   1.906  14.931  0.00  0.00    +0.145 C 
ENDROOT
BRANCH  14  15
ATOM     15  C   UNL     1     -18.545   1.443  15.692  0.00  0.00    +0.003 A 
ATOM     16  C   UNL     1     -19.931   1.483  15.602  0.00  0.00    +0.013 A 
ATOM     17  C   UNL     1     -20.693   2.065  16.600  0.00  0.00    +0.039 A 
ATOM     18  C   UNL     1     -20.052   2.583  17.691  0.00  0.00    +0.123 A 
ATOM     19  F   UNL     1     -20.814   3.122  18.699  0.00  0.00    -0.205 F 
ATOM     20  C   UNL     1     -18.691   2.556  17.836  0.00  0.00    +0.039 A 
ATOM     21  C   UNL     1     -17.936   1.986  16.825  0.00  0.00    +0.013 A 
ENDBRANCH  14  15
BRANCH   7   1
ATOM      1  C   UNL     1     -12.826   2.093  14.940  0.00  0.00    +0.122 A 
ATOM      2  N   UNL     1     -11.682   1.941  14.242  0.00  0.00    -0.240 NA
ATOM      3  C   UNL     1     -10.529   2.236  14.870  0.00  0.00    +0.113 A 
ATOM      4  C   UNL     1     -10.459   2.672  16.180  0.00  0.00    +0.020 A 
ATOM      5  C   UNL     1     -11.639   2.833  16.877  0.00  0.00    +0.005 A 
ATOM      6  C   UNL     1     -12.853   2.545  16.269  0.00  0.00    +0.043 A 
ENDBRANCH   7   1
TORSDOF 2
