REMARK  Name = 4Y46
REMARK  6 active torsions:
REMARK  status: ('A' for Active; 'I' for Inactive)
REMARK    1  A    between atoms: C_2  and  N_24
REMARK    2  A    between atoms: C_9  and  N_28
REMARK    3  A    between atoms: C_15  and  C_16
REMARK    4  A    between atoms: C_16  and  C_17
REMARK    5  A    between atoms: C_16  and  N_18
REMARK    6  A    between atoms: N_21  and  C_22
REMARK                            x       y       z     vdW  Elec       q    Type
REMARK                         _______ _______ _______ _____ _____    ______ ____
ROOT
ATOM     16  N   UNL     1       3.683 -30.575 -31.710  0.00  0.00    -0.311 N 
ATOM     17  H   UNL     1       3.978 -31.554 -31.783  0.00  0.00    +0.149 HD
ATOM     18  C   UNL     1       4.486 -29.484 -32.047  0.00  0.00    +0.217 A 
ATOM     19  N   UNL     1       4.013 -28.208 -31.893  0.00  0.00    -0.196 NA
ATOM     20  C   UNL     1       4.749 -27.124 -32.255  0.00  0.00    +0.149 A 
ATOM     21  N   UNL     1       4.262 -25.807 -32.076  0.00  0.00    -0.290 N 
ATOM     27  C   UNL     1       4.995 -24.618 -32.406  0.00  0.00    +0.253 C 
ATOM     28  O   UNL     1       4.594 -23.474 -32.252  0.00  0.00    -0.268 OA
ATOM     29  C   UNL     1       6.320 -24.907 -32.982  0.00  0.00    +0.071 C 
ATOM     30  C   UNL     1       6.778 -26.173 -33.165  0.00  0.00    +0.018 C 
ATOM     31  C   UNL     1       6.039 -27.317 -32.817  0.00  0.00    +0.036 A 
ATOM     32  C   UNL     1       6.441 -28.617 -32.946  0.00  0.00    +0.126 A 
ATOM     33  N   UNL     1       5.743 -29.692 -32.588  0.00  0.00    -0.222 NA
ENDROOT
BRANCH  16  15
ATOM      1  C   UNL     1       2.284 -30.382 -29.693  0.00  0.00    +0.024 C 
ATOM      2  C   UNL     1       0.921 -30.211 -29.121  0.00  0.00    +0.024 C 
ATOM      3  C   UNL     1      -0.017 -31.391 -29.448  0.00  0.00    +0.075 C 
ATOM     13  C   UNL     1       0.005 -31.710 -30.961  0.00  0.00    +0.024 C 
ATOM     14  C   UNL     1       1.397 -31.720 -31.579  0.00  0.00    +0.024 C 
ATOM     15  C   UNL     1       2.294 -30.510 -31.200  0.00  0.00    +0.073 C 
BRANCH   3   4
ATOM      4  N   UNL     1      -1.360 -31.096 -28.875  0.00  0.00    -0.297 N 
ATOM      5  H   UNL     1      -1.462 -30.134 -28.627  0.00  0.00    +0.150 HD
ATOM      6  C   UNL     1      -2.367 -32.066 -28.655  0.00  0.00    +0.300 C 
ATOM      7  O   UNL     1      -3.434 -31.707 -28.158  0.00  0.00    -0.253 OA
ATOM      8  N   UNL     1      -2.123 -33.461 -29.041  0.00  0.00    -0.297 N 
ATOM      9  H   UNL     1      -1.247 -33.738 -29.442  0.00  0.00    +0.150 HD
BRANCH   8  10
ATOM     10  C   UNL     1      -3.070 -34.595 -28.893  0.00  0.00    +0.068 C 
ATOM     11  C   UNL     1      -4.557 -34.330 -29.312  0.00  0.00    +0.027 C 
ATOM     12  C   UNL     1      -2.542 -35.789 -29.739  0.00  0.00    +0.027 C 
ENDBRANCH   8  10
ENDBRANCH   3   4
ENDBRANCH  16  15
BRANCH  21  22
ATOM     22  C   UNL     1       2.928 -25.544 -31.410  0.00  0.00    +0.092 C 
ATOM     23  C   UNL     1       1.692 -26.276 -31.847  0.00  0.00    +0.025 C 
ATOM     24  C   UNL     1       0.815 -26.370 -30.598  0.00  0.00    +0.002 C 
ATOM     25  C   UNL     1       1.776 -26.724 -29.480  0.00  0.00    +0.002 C 
ATOM     26  C   UNL     1       2.972 -25.875 -29.873  0.00  0.00    +0.025 C 
ENDBRANCH  21  22
TORSDOF 4
