REMARK  Name = 5C26
REMARK  8 active torsions:
REMARK  status: ('A' for Active; 'I' for Inactive)
REMARK    1  A    between atoms: C_3  and  C_16
REMARK    2  A    between atoms: C_6  and  O_28
REMARK    3  A    between atoms: C_7  and  O_29
REMARK    4  A    between atoms: C_15  and  C_19
REMARK    5  A    between atoms: C_17  and  N_26
REMARK    6  A    between atoms: C_20  and  N_26
REMARK    7  A    between atoms: C_21  and  O_28
REMARK    8  A    between atoms: C_22  and  O_29
REMARK                            x       y       z     vdW  Elec       q    Type
REMARK                         _______ _______ _______ _____ _____    ______ ____
ROOT
ATOM      1  N   UNL     1      -1.876   0.266 -13.748  0.00  0.00    -0.227 NA
ATOM      2  C   UNL     1      -2.275  -0.471 -14.751  0.00  0.00    +0.167 A 
ATOM     15  C   UNL     1      -3.633  -0.311 -15.145  0.00  0.00    +0.178 A 
ATOM     16  N   UNL     1      -4.464   0.561 -14.511  0.00  0.00    -0.302 N 
ATOM     17  C   UNL     1      -5.685   0.497 -15.112  0.00  0.00    +0.112 A 
ATOM     18  C   UNL     1      -5.523  -0.443 -16.105  0.00  0.00    +0.131 A 
ATOM     19  C   UNL     1      -4.007   1.343 -13.492  0.00  0.00    +0.121 A 
ATOM     20  N   UNL     1      -4.240  -0.942 -16.125  0.00  0.00    -0.233 NA
ATOM     21  C   UNL     1      -2.727   1.175 -13.131  0.00  0.00    +0.090 A 
ENDROOT
BRANCH  21  22
ATOM     22  C   UNL     1      -2.172   2.029 -12.065  0.00  0.00    +0.003 A 
ATOM     23  C   UNL     1      -0.935   1.720 -11.536  0.00  0.00    +0.010 A 
ATOM     24  C   UNL     1      -0.345   2.490 -10.550  0.00  0.00    +0.001 A 
ATOM     25  C   UNL     1      -1.006   3.597 -10.067  0.00  0.00    +0.013 A 
ATOM     26  C   UNL     1      -2.250   3.909 -10.577  0.00  0.00    +0.037 A 
ATOM     32  C   UNL     1      -2.838   3.144 -11.577  0.00  0.00    +0.023 A 
BRANCH  26  27
ATOM     27  C   UNL     1      -2.926   5.104 -10.038  0.00  0.00    +0.242 C 
ATOM     28  O   UNL     1      -2.263   6.007  -9.545  0.00  0.00    -0.270 OA
ATOM     29  N   UNL     1      -4.297   5.098 -10.137  0.00  0.00    -0.325 N 
ATOM     30  H   UNL     1      -4.864   5.928  -9.770  0.00  0.00    +0.145 HD
ATOM     31  H   UNL     1      -4.798   4.263 -10.582  0.00  0.00    +0.145 HD
ENDBRANCH  26  27
ENDBRANCH  21  22
BRANCH   2   3
ATOM      3  N   UNL     1      -1.488  -1.399 -15.424  0.00  0.00    -0.296 N 
ATOM      4  H   UNL     1      -1.998  -2.045 -16.107  0.00  0.00    +0.154 HD
BRANCH   3   5
ATOM      5  C   UNL     1      -0.091  -1.588 -15.310  0.00  0.00    +0.036 A 
ATOM      6  C   UNL     1       0.744  -0.804 -14.526  0.00  0.00    +0.072 A 
ATOM      7  C   UNL     1       2.108  -1.052 -14.468  0.00  0.00    +0.163 A 
ATOM     10  C   UNL     1       2.650  -2.088 -15.211  0.00  0.00    +0.162 A 
ATOM     13  C   UNL     1       1.830  -2.883 -15.995  0.00  0.00    +0.051 A 
ATOM     14  C   UNL     1       0.472  -2.622 -16.043  0.00  0.00    +0.027 A 
BRANCH   7   8
ATOM      8  O   UNL     1       2.997  -0.289 -13.700  0.00  0.00    -0.491 OA
ATOM      9  C   UNL     1       2.305   0.584 -12.809  0.00  0.00    +0.277 C 
ENDBRANCH   7   8
BRANCH  10  11
ATOM     11  O   UNL     1       4.031  -2.304 -15.095  0.00  0.00    -0.491 OA
ATOM     12  C   UNL     1       4.603  -2.832 -16.293  0.00  0.00    +0.277 C 
ENDBRANCH  10  11
ENDBRANCH   3   5
ENDBRANCH   2   3
TORSDOF 6
