REMARK  Name = A9P
REMARK  1 active torsions:
REMARK  status: ('A' for Active; 'I' for Inactive)
REMARK    1  A    between atoms: C6_5  and  C7_8
REMARK                            x       y       z     vdW  Elec       q    Type
REMARK                         _______ _______ _______ _____ _____    ______ ____
ROOT
ATOM      1  C   UNL     1      18.863   9.363  -6.714  0.00  0.00    +0.056 C 
ATOM      2  C   UNL     1      19.806   8.993  -7.811  0.00  0.00    +0.101 A 
ATOM      3  N   UNL     1      20.881   8.320  -7.520  0.00  0.00    -0.082 NA
ATOM      4  O   UNL     1      21.567   8.119  -8.747  0.00  0.00    -0.358 OA
ATOM      5  C   UNL     1      20.849   8.700  -9.720  0.00  0.00    +0.154 A 
ATOM      6  C   UNL     1      21.398   8.613 -11.095  0.00  0.00    +0.075 C 
ATOM      7  C   UNL     1      19.733   9.273  -9.189  0.00  0.00    +0.050 A 
ENDROOT
BRANCH   7   8
ATOM      8  C   UNL     1      18.676  10.012  -9.925  0.00  0.00    +0.004 A 
ATOM      9  C   UNL     1      17.341   9.612  -9.857  0.00  0.00    +0.000 A 
ATOM     10  C   UNL     1      16.351  10.351 -10.510  0.00  0.00    +0.000 A 
ATOM     11  C   UNL     1      16.697  11.489 -11.228  0.00  0.00    +0.000 A 
ATOM     12  C   UNL     1      18.013  11.886 -11.291  0.00  0.00    +0.000 A 
ATOM     13  C   UNL     1      19.001  11.154 -10.641  0.00  0.00    +0.000 A 
ENDBRANCH   7   8
TORSDOF 1
