REMARK  Name = 3c1x_ligand
REMARK  8 active torsions:
REMARK  status: ('A' for Active; 'I' for Inactive)
REMARK    1  A    between atoms: N14_1  and  C15_4
REMARK    2  A    between atoms: C21_7  and  O22_25
REMARK    3  A    between atoms: C23_8  and  O22_25
REMARK    4  A    between atoms: C7_18  and  C8_19
REMARK    5  A    between atoms: C8_19  and  C9_20
REMARK    6  A    between atoms: C31_32  and  C32_33
REMARK    7  A    between atoms: C32_33  and  N34_34
REMARK    8  A    between atoms: C37_37  and  N39_39
REMARK                            x       y       z     vdW  Elec       q    Type
REMARK                         _______ _______ _______ _____ _____    ______ ____
ROOT
ATOM     17  C   UNL     1      -0.176   7.485  53.014  0.00  0.00    +0.056 A 
ATOM     18  C   UNL     1       0.146   7.604  54.394  0.00  0.00    -0.006 A 
ATOM     19  C   UNL     1       0.293   8.894  54.956  0.00  0.00    +0.011 A 
ATOM     20  C   UNL     1       0.109  10.023  54.132  0.00  0.00    +0.146 A 
ATOM     43  C   UNL     1      -0.197   9.888  52.796  0.00  0.00    +0.154 A 
ATOM     44  F   UNL     1      -0.368  10.960  52.017  0.00  0.00    -0.192 F 
ATOM     45  C   UNL     1      -0.334   8.637  52.252  0.00  0.00    +0.033 A 
ENDROOT
BRANCH  17   1
ATOM      1  N   UNL     1      -0.337   6.224  52.396  0.00  0.00    -0.221 N 
ATOM      2  H   UNL     1      -0.183   5.414  52.962  0.00  0.00    +0.223 HD
ATOM      3  C   UNL     1      -0.679   6.022  51.115  0.00  0.00    +0.315 C 
ATOM      4  O   UNL     1      -0.771   6.826  50.227  0.00  0.00    -0.382 OA
ATOM      5  N   UNL     1      -0.953   4.771  50.790  0.00  0.00    -0.179 N 
ATOM      6  H   UNL     1      -1.142   4.558  49.831  0.00  0.00    +0.226 HD
ATOM      7  C   UNL     1      -0.990   3.769  51.690  0.00  0.00    +0.216 C 
ATOM      8  O   UNL     1      -0.815   3.980  52.894  0.00  0.00    -0.384 OA
BRANCH   7   9
ATOM      9  C   UNL     1      -1.183   2.444  51.035  0.00  0.00    +0.205 C 
BRANCH   9  10
ATOM     10  C   UNL     1      -1.240   1.418  52.062  0.00  0.00    -0.028 A 
ATOM     11  C   UNL     1      -2.347   1.337  52.947  0.00  0.00    -0.004 A 
ATOM     12  C   UNL     1      -2.403   0.350  53.931  0.00  0.00    +0.024 A 
ATOM     13  C   UNL     1      -1.320  -0.521  53.973  0.00  0.00    +0.125 A 
ATOM     14  C   UNL     1      -0.242  -0.456  53.142  0.00  0.00    +0.024 A 
ATOM     15  F   UNL     1      -1.301  -1.480  54.874  0.00  0.00    -0.189 F 
ATOM     16  C   UNL     1      -0.169   0.537  52.160  0.00  0.00    -0.004 A 
ENDBRANCH   9  10
ENDBRANCH   7   9
ENDBRANCH  17   1
BRANCH  20  21
ATOM     21  O   UNL     1       0.217  11.331  54.587  0.00  0.00    -0.231 OA
BRANCH  21  22
ATOM     22  C   UNL     1      -0.840  11.680  55.378  0.00  0.00    +0.223 A 
ATOM     23  N   UNL     1      -2.024  11.219  55.241  0.00  0.00    -0.266 NA
ATOM     24  C   UNL     1      -2.944  11.650  56.140  0.00  0.00    +0.183 A 
ATOM     25  N   UNL     1      -2.746  12.499  57.098  0.00  0.00    -0.168 NA
ATOM     26  N   UNL     1      -1.502  12.973  57.205  0.00  0.00    -0.170 N 
ATOM     27  C   UNL     1      -1.063  13.858  58.125  0.00  0.00    +0.131 A 
ATOM     28  C   UNL     1       0.292  14.043  57.931  0.00  0.00    -0.035 A 
ATOM     29  C   UNL     1       0.692  13.262  56.779  0.00  0.00    +0.006 A 
ATOM     42  C   UNL     1      -0.475  12.603  56.386  0.00  0.00    +0.165 A 
BRANCH  29  30
ATOM     30  C   UNL     1       2.069  13.242  56.181  0.00  0.00    +0.171 C 
BRANCH  30  31
ATOM     31  N   UNL     1       3.026  12.547  57.048  0.00  0.00    +0.243 N 
ATOM     32  H   UNL     1       2.779  12.691  58.015  0.00  0.00    +0.204 HD
ATOM     33  C   UNL     1       4.417  13.048  56.831  0.00  0.00    +0.137 C 
ATOM     34  C   UNL     1       5.507  12.185  57.494  0.00  0.00    +0.105 C 
ATOM     35  C   UNL     1       5.276  10.696  57.181  0.00  0.00    +0.071 C 
ATOM     40  C   UNL     1       3.862  10.275  57.509  0.00  0.00    +0.105 C 
ATOM     41  C   UNL     1       2.900  11.119  56.710  0.00  0.00    +0.137 C 
BRANCH  35  36
ATOM     36  N   UNL     1       6.151   9.807  57.982  0.00  0.00    +0.221 N 
ATOM     37  H   UNL     1       5.949   9.930  58.962  0.00  0.00    +0.200 HD
ATOM     38  H   UNL     1       5.983   8.848  57.722  0.00  0.00    +0.200 HD
ATOM     39  H   UNL     1       7.116  10.039  57.807  0.00  0.00    +0.200 HD
ENDBRANCH  35  36
ENDBRANCH  30  31
ENDBRANCH  29  30
ENDBRANCH  21  22
ENDBRANCH  20  21
TORSDOF 8
