REMARK  Name = 4CFX
REMARK  5 active torsions:
REMARK  status: ('A' for Active; 'I' for Inactive)
REMARK    1  A    between atoms: C6_7  and  O6_8
REMARK    2  A    between atoms: O6_8  and  CAL_12
REMARK    3  A    between atoms: C8_10  and  CAS_19
REMARK    4  A    between atoms: CAL_12  and  CAM_13
REMARK    5  A    between atoms: CAW_23  and  SAY_25
REMARK                            x       y       z     vdW  Elec       q    Type
REMARK                         _______ _______ _______ _____ _____    ______ ____
ROOT
ATOM      1  N   UNL     1      -8.389 -22.265  23.112  0.00  0.00    -0.187 NA
ATOM      2  C   UNL     1      -7.200 -22.842  23.265  0.00  0.00    +0.200 A 
ATOM     11  C   UNL     1      -6.968 -23.792  24.134  0.00  0.00    +0.158 A 
ATOM     12  N   UNL     1      -5.866 -24.465  24.417  0.00  0.00    -0.222 NA
ATOM     13  C   UNL     1      -6.195 -25.303  25.375  0.00  0.00    +0.139 A 
ATOM     24  N   UNL     1      -7.470 -25.152  25.676  0.00  0.00    -0.153 NA
ATOM     25  C   UNL     1      -7.946 -24.206  24.900  0.00  0.00    +0.166 A 
ATOM     26  N   UNL     1      -9.155 -23.658  24.783  0.00  0.00    -0.193 NA
ATOM     27  C   UNL     1      -9.376 -22.689  23.892  0.00  0.00    +0.224 A 
ATOM     28  N   UNL     1     -10.573 -22.157  23.777  0.00  0.00    -0.049 NA
ENDROOT
BRANCH  13  14
ATOM     14  C   UNL     1      -5.384 -26.169  25.962  0.00  0.00    +0.016 A 
ATOM     15  C   UNL     1      -4.122 -26.444  25.454  0.00  0.00    -0.001 A 
ATOM     16  C   UNL     1      -3.320 -27.368  26.116  0.00  0.00    -0.063 A 
ATOM     21  C   UNL     1      -3.768 -27.989  27.268  0.00  0.00    -0.013 A 
ATOM     22  C   UNL     1      -5.015 -27.710  27.775  0.00  0.00    -0.001 A 
ATOM     23  C   UNL     1      -5.817 -26.805  27.118  0.00  0.00    +0.012 A 
BRANCH  16  17
ATOM     17  S   UNL     1      -1.752 -27.798  25.603  0.00  0.00    +1.152 S 
ATOM     18  O   UNL     1      -1.641 -29.311  25.485  0.00  0.00    -0.868 OA
ATOM     19  N   UNL     1      -1.418 -27.208  24.319  0.00  0.00    -0.323 NA
ATOM     20  O   UNL     1      -0.757 -27.325  26.660  0.00  0.00    -0.868 OA
ENDBRANCH  16  17
ENDBRANCH  13  14
BRANCH   2   3
ATOM      3  O   UNL     1      -6.115 -22.535  22.568  0.00  0.00    -0.327 OA
BRANCH   3   4
ATOM      4  C   UNL     1      -6.199 -21.450  21.691  0.00  0.00    +0.173 C 
BRANCH   4   5
ATOM      5  C   UNL     1      -4.824 -21.505  21.150  0.00  0.00    +0.015 C 
ATOM      6  C   UNL     1      -4.572 -20.235  20.428  0.00  0.00    +0.006 C 
ATOM      7  C   UNL     1      -3.202 -20.318  19.809  0.00  0.00    +0.000 C 
ATOM      8  C   UNL     1      -3.129 -21.548  18.886  0.00  0.00    +0.000 C 
ATOM      9  C   UNL     1      -3.376 -22.821  19.689  0.00  0.00    +0.000 C 
ATOM     10  C   UNL     1      -4.737 -22.706  20.199  0.00  0.00    +0.006 C 
ENDBRANCH   4   5
ENDBRANCH   3   4
ENDBRANCH   2   3
TORSDOF 5
