REMARK  Name = 5MJB
REMARK  4 active torsions:
REMARK  status: ('A' for Active; 'I' for Inactive)
REMARK    1  A    between atoms: C_4  and  C_22
REMARK    2  A    between atoms: C_7  and  N_15
REMARK    3  A    between atoms: C_9  and  O_14
REMARK    4  A    between atoms: C_19  and  N_21
REMARK                            x       y       z     vdW  Elec       q    Type
REMARK                         _______ _______ _______ _____ _____    ______ ____
ROOT
ATOM      1  C   UNL     1       0.377  47.806 -11.405  0.00  0.00    +0.025 A 
ATOM      2  C   UNL     1       1.063  48.899 -10.968  0.00  0.00    +0.078 A 
ATOM      3  C   UNL     1       0.397  50.077 -10.621  0.00  0.00    +0.204 A 
ATOM      9  C   UNL     1      -0.984  50.138 -10.696  0.00  0.00    +0.104 A 
ATOM     10  C   UNL     1      -1.723  49.039 -11.194  0.00  0.00    +0.062 A 
ATOM     11  N   UNL     1      -3.089  49.153 -11.276  0.00  0.00    -0.345 N 
ATOM     12  H   UNL     1      -3.607  50.056 -11.029  0.00  0.00    +0.167 HD
ATOM     13  C   UNL     1      -3.724  48.048 -11.688  0.00  0.00    +0.203 A 
ATOM     14  N   UNL     1      -3.197  46.876 -12.078  0.00  0.00    -0.176 NA
ATOM     15  C   UNL     1      -1.864  46.750 -11.973  0.00  0.00    +0.314 A 
ATOM     16  N   UNL     1      -1.278  45.599 -12.351  0.00  0.00    -0.186 N 
ATOM     17  H   UNL     1      -0.209  45.634 -12.329  0.00  0.00    +0.455 HD
ATOM     27  C   UNL     1      -1.036  47.849 -11.554  0.00  0.00    +0.091 A 
ENDROOT
BRANCH  16  18
ATOM     18  C   UNL     1      -1.777  44.402 -12.755  0.00  0.00    +0.230 A 
ATOM     19  C   UNL     1      -2.256  44.250 -14.059  0.00  0.00    +0.112 A 
ATOM     20 CL   UNL     1      -2.226  45.598 -15.153  0.00  0.00    -0.077 Cl
ATOM     21  C   UNL     1      -2.690  43.025 -14.525  0.00  0.00    +0.030 A 
ATOM     22  C   UNL     1      -2.712  41.935 -13.673  0.00  0.00    +0.047 A 
ATOM     23  C   UNL     1      -2.241  42.064 -12.372  0.00  0.00    +0.123 A 
ATOM     26  C   UNL     1      -1.775  43.290 -11.913  0.00  0.00    +0.125 A 
BRANCH  23  24
ATOM     24  O   UNL     1      -2.212  40.999 -11.517  0.00  0.00    -0.506 OA
ATOM     25  H   UNL     1      -1.222  40.816 -11.218  0.00  0.00    +0.292 HD
ENDBRANCH  23  24
ENDBRANCH  16  18
BRANCH   3   4
ATOM      4  N   UNL     1       1.238  51.093 -10.115  0.00  0.00    -0.149 N 
ATOM      5  H   UNL     1       2.209  50.770  -9.801  0.00  0.00    +0.447 HD
ATOM      6  C   UNL     1       0.993  52.411  -9.971  0.00  0.00    +0.379 C 
ATOM      7  O   UNL     1      -0.016  52.993 -10.381  0.00  0.00    -0.220 OA
ATOM      8  C   UNL     1       2.076  53.142  -9.209  0.00  0.00    +0.173 C 
ENDBRANCH   3   4
TORSDOF 3
