REMARK  Name = 2LO
REMARK  8 active torsions:
REMARK  status: ('A' for Active; 'I' for Inactive)
REMARK    1  A    between atoms: C15_3  and  O_4
REMARK    2  A    between atoms: C12_9  and  C11_10
REMARK    3  A    between atoms: C11_10  and  C10_11
REMARK    4  A    between atoms: C10_11  and  C9_12
REMARK    5  A    between atoms: N1_13  and  C19_14
REMARK    6  A    between atoms: C19_14  and  C20_15
REMARK    7  A    between atoms: C20_15  and  N2_16
REMARK    8  A    between atoms: C3_29  and  C2_30
REMARK                            x       y       z     vdW  Elec       q    Type
REMARK                         _______ _______ _______ _____ _____    ______ ____
ROOT
ATOM     11  C   UNL     1      34.423  63.016  23.951  0.00  0.00    +0.121 A 
ATOM     12  N   UNL     1      34.219  61.693  23.861  0.00  0.00    -0.314 N 
ATOM     22  C   UNL     1      33.806  61.465  22.589  0.00  0.00    +0.079 A 
ATOM     23  C   UNL     1      33.460  60.329  21.953  0.00  0.00    +0.019 A 
ATOM     24  C   UNL     1      33.077  60.377  20.608  0.00  0.00    +0.002 A 
ATOM     25  C   UNL     1      33.056  61.575  19.896  0.00  0.00    +0.005 A 
ATOM     26  C   UNL     1      33.412  62.735  20.612  0.00  0.00    +0.021 A 
ATOM     34  C   UNL     1      33.783  62.639  21.926  0.00  0.00    +0.098 A 
ATOM     35  N   UNL     1      34.150  63.606  22.791  0.00  0.00    -0.231 NA
ENDROOT
BRANCH  25  27
ATOM     27  C   UNL     1      32.662  61.569  18.580  0.00  0.00    +0.050 A 
ATOM     28  C   UNL     1      31.640  62.245  18.048  0.00  0.00    +0.101 A 
ATOM     29  C   UNL     1      30.706  63.223  18.741  0.00  0.00    +0.056 C 
ATOM     30  N   UNL     1      31.484  61.994  16.730  0.00  0.00    -0.082 NA
ATOM     31  O   UNL     1      32.495  61.085  16.369  0.00  0.00    -0.358 OA
ATOM     32  C   UNL     1      33.182  60.832  17.567  0.00  0.00    +0.154 A 
ATOM     33  C   UNL     1      34.348  59.857  17.574  0.00  0.00    +0.075 C 
ENDBRANCH  25  27
BRANCH  11  10
ATOM     10  C   UNL     1      34.889  63.769  25.228  0.00  0.00    +0.069 C 
BRANCH  10   9
ATOM      9  C   UNL     1      35.860  64.925  24.909  0.00  0.00    +0.034 C 
BRANCH   9   8
ATOM      1 CL   UNL     1      39.155  63.962  28.745  0.00  0.00    -0.079 Cl
ATOM      2  C   UNL     1      38.044  65.039  27.935  0.00  0.00    +0.091 A 
ATOM      3  C   UNL     1      37.778  66.322  28.416  0.00  0.00    +0.149 A 
ATOM      6  C   UNL     1      36.880  67.150  27.736  0.00  0.00    +0.037 A 
ATOM      7  C   UNL     1      36.247  66.681  26.579  0.00  0.00    -0.001 A 
ATOM      8  C   UNL     1      36.505  65.400  26.091  0.00  0.00    -0.021 A 
ATOM     36  C   UNL     1      37.413  64.585  26.772  0.00  0.00    +0.010 A 
BRANCH   3   4
ATOM      4  O   UNL     1      38.462  66.674  29.552  0.00  0.00    -0.471 OA
ATOM      5  C   UNL     1      38.096  67.909  30.209  0.00  0.00    +0.253 C 
ENDBRANCH   3   4
ENDBRANCH   9   8
ENDBRANCH  10   9
ENDBRANCH  11  10
BRANCH  12  13
ATOM     13  C   UNL     1      34.382  60.664  24.962  0.00  0.00    +0.123 C 
BRANCH  13  14
ATOM     14  C   UNL     1      35.862  60.279  24.992  0.00  0.00    +0.080 C 
ATOM     21  C   UNL     1      36.219  59.321  23.852  0.00  0.00    +0.019 C 
BRANCH  14  15
ATOM     15  N   UNL     1      36.271  59.659  26.289  0.00  0.00    -0.268 NA
ATOM     16  C   UNL     1      36.571  60.706  27.257  0.00  0.00    +0.105 C 
ATOM     17  C   UNL     1      37.249  60.178  28.476  0.00  0.00    +0.160 C 
ATOM     18  O   UNL     1      36.272  59.287  29.094  0.00  0.00    -0.351 OA
ATOM     19  C   UNL     1      35.835  58.203  28.230  0.00  0.00    +0.160 C 
ATOM     20  C   UNL     1      35.263  58.776  26.917  0.00  0.00    +0.105 C 
ENDBRANCH  14  15
ENDBRANCH  13  14
ENDBRANCH  12  13
TORSDOF 8
