REMARK  Name = 5IH8
REMARK  5 active torsions:
REMARK  status: ('A' for Active; 'I' for Inactive)
REMARK    1  A    between atoms: C_1  and  C_22
REMARK    2  A    between atoms: C_5  and  C_9
REMARK    3  A    between atoms: C_10  and  C_11
REMARK    4  A    between atoms: C_10  and  N_26
REMARK    5  A    between atoms: N_16  and  C_24
REMARK                            x       y       z     vdW  Elec       q    Type
REMARK                         _______ _______ _______ _____ _____    ______ ____
ROOT
ATOM     11  C   UNL     1      -1.954  -8.733  -0.529  0.00  0.00    +0.065 A 
ATOM     12  C   UNL     1      -1.092  -9.842  -0.327  0.00  0.00    +0.028 A 
ATOM     13  C   UNL     1      -0.271 -10.308  -1.383  0.00  0.00    +0.015 A 
ATOM     14  C   UNL     1      -0.272  -9.654  -2.646  0.00  0.00    +0.037 A 
ATOM     26  C   UNL     1      -1.096  -8.508  -2.817  0.00  0.00    +0.015 A 
ATOM     27  C   UNL     1      -1.945  -8.060  -1.782  0.00  0.00    +0.028 A 
ENDROOT
BRANCH  11  10
ATOM      1  C   UNL     1      -4.061  -8.098   2.302  0.00  0.00    +0.020 A 
ATOM      8  C   UNL     1      -3.993  -6.874   1.592  0.00  0.00    +0.143 A 
ATOM      9  N   UNL     1      -3.223  -6.987   0.533  0.00  0.00    -0.174 NA
ATOM     10  N   UNL     1      -2.774  -8.266   0.533  0.00  0.00    -0.239 N 
ATOM     28  C   UNL     1      -3.273  -8.969   1.610  0.00  0.00    +0.123 A 
BRANCH   1   2
ATOM      2  C   UNL     1      -4.804  -8.360   3.536  0.00  0.00    -0.012 A 
ATOM      3  C   UNL     1      -5.446  -7.306   4.229  0.00  0.00    +0.028 A 
ATOM      4  C   UNL     1      -6.148  -7.608   5.414  0.00  0.00    +0.111 A 
ATOM      5  N   UNL     1      -6.207  -8.858   5.924  0.00  0.00    -0.263 NA
ATOM      6  C   UNL     1      -5.573  -9.864   5.282  0.00  0.00    +0.111 A 
ATOM      7  C   UNL     1      -4.844  -9.670   4.089  0.00  0.00    +0.028 A 
ENDBRANCH   1   2
ENDBRANCH  11  10
BRANCH  14  15
ATOM     15  C   UNL     1       0.666 -10.089  -3.750  0.00  0.00    +0.244 C 
ATOM     16  N   UNL     1       0.444  -9.593  -4.977  0.00  0.00    -0.306 N 
ATOM     17  H   UNL     1      -0.413  -8.962  -5.091  0.00  0.00    +0.149 HD
ATOM     25  O   UNL     1       1.609 -10.845  -3.503  0.00  0.00    -0.270 OA
BRANCH  16  18
ATOM     18  C   UNL     1       1.246  -9.823  -6.167  0.00  0.00    +0.160 C 
BRANCH  18  19
ATOM     19  C   UNL     1       0.915 -11.102  -6.928  0.00  0.00    +0.058 A 
ATOM     20  N   UNL     1       0.981 -11.011  -8.294  0.00  0.00    -0.258 NA
ATOM     21  C   UNL     1       0.703 -12.112  -9.038  0.00  0.00    +0.111 A 
ATOM     22  C   UNL     1       0.364 -13.351  -8.447  0.00  0.00    +0.020 A 
ATOM     23  C   UNL     1       0.291 -13.451  -7.040  0.00  0.00    +0.003 A 
ATOM     24  C   UNL     1       0.582 -12.307  -6.260  0.00  0.00    +0.025 A 
ENDBRANCH  18  19
ENDBRANCH  16  18
ENDBRANCH  14  15
TORSDOF 5
