REMARK  Name = 3sx9_ligand
REMARK  7 active torsions:
REMARK  status: ('A' for Active; 'I' for Inactive)
REMARK    1  A    between atoms: C6_6  and  NAB_8
REMARK    2  A    between atoms: CAA_7  and  CAJ_15
REMARK    3  A    between atoms: CAJ_15  and  OAT_23
REMARK    4  A    between atoms: CAO_20  and  CBC_29
REMARK    5  A    between atoms: CAO_20  and  NBD_30
REMARK    6  A    between atoms: OAT_23  and  CAU_24
REMARK    7  A    between atoms: CAV_25  and  CAX_26
REMARK                            x       y       z     vdW  Elec       q    Type
REMARK                         _______ _______ _______ _____ _____    ______ ____
ROOT
ATOM      1  N   UNL     1      16.526  11.817  63.058  0.00  0.00    -0.266 NA
ATOM      2  C   UNL     1      15.401  12.532  63.334  0.00  0.00    +0.127 A 
ATOM      6  C   UNL     1      15.484  13.928  63.383  0.00  0.00    +0.087 A 
ATOM      7  C   UNL     1      14.655  15.027  63.623  0.00  0.00    +0.071 A 
ATOM     21  N   UNL     1      15.416  16.121  63.505  0.00  0.00    -0.194 NA
ATOM     22  N   UNL     1      16.579  15.802  63.235  0.00  0.00    -0.183 N 
ATOM     32  C   UNL     1      16.733  14.488  63.141  0.00  0.00    +0.163 A 
ATOM     33  N   UNL     1      17.812  13.709  62.875  0.00  0.00    -0.268 NA
ATOM     34  C   UNL     1      17.727  12.380  62.839  0.00  0.00    +0.160 A 
ENDROOT
BRANCH   7   8
ATOM      8  C   UNL     1      13.285  15.007  63.911  0.00  0.00    -0.010 A 
ATOM      9  C   UNL     1      12.759  14.336  65.017  0.00  0.00    +0.011 A 
ATOM     10  C   UNL     1      11.391  14.356  65.267  0.00  0.00    -0.024 A 
ATOM     11  C   UNL     1      10.528  15.058  64.420  0.00  0.00    -0.029 A 
ATOM     12  C   UNL     1       9.162  15.065  64.684  0.00  0.00    +0.021 A 
ATOM     13  C   UNL     1       8.654  14.381  65.783  0.00  0.00    +0.092 A 
ATOM     17  C   UNL     1       9.521  13.684  66.625  0.00  0.00    +0.032 A 
ATOM     18  C   UNL     1      11.044  15.738  63.318  0.00  0.00    -0.000 A 
ATOM     19  C   UNL     1      10.891  13.670  66.366  0.00  0.00    +0.005 A 
ATOM     20  C   UNL     1      12.414  15.708  63.072  0.00  0.00    +0.004 A 
BRANCH  13  14
ATOM     14  O   UNL     1       7.318  14.387  66.048  0.00  0.00    -0.317 OA
BRANCH  14  15
ATOM     15  C   UNL     1       6.515  14.694  64.894  0.00  0.00    +0.190 C 
ATOM     16  C   UNL     1       5.091  14.209  65.144  0.00  0.00    +0.040 C 
ENDBRANCH  14  15
ENDBRANCH  13  14
ENDBRANCH   7   8
BRANCH   2   3
ATOM      3  N   UNL     1      14.267  11.882  63.553  0.00  0.00    -0.313 N 
ATOM      4  H   UNL     1      14.246  10.863  63.508  0.00  0.00    +0.184 HD
ATOM      5  H   UNL     1      13.415  12.401  63.766  0.00  0.00    +0.184 HD
ENDBRANCH   2   3
BRANCH  22  23
ATOM     23  C   UNL     1      17.688  16.768  63.042  0.00  0.00    +0.199 C 
BRANCH  23  24
ATOM     24  C   UNL     1      18.242  16.794  61.588  0.00  0.00    +0.030 C 
ATOM     25  C   UNL     1      17.126  17.262  60.637  0.00  0.00    +0.057 C 
ATOM     26  C   UNL     1      17.621  17.822  59.286  0.00  0.00    +0.130 C 
ATOM     27  N   UNL     1      18.764  18.737  59.467  0.00  0.00    +0.227 N 
ATOM     28  H   UNL     1      18.480  19.520  60.056  0.00  0.00    +0.201 HD
ATOM     29  H   UNL     1      19.067  19.082  58.556  0.00  0.00    +0.201 HD
ATOM     30  C   UNL     1      19.875  18.023  60.111  0.00  0.00    +0.130 C 
ATOM     31  C   UNL     1      19.453  17.733  61.547  0.00  0.00    +0.057 C 
ENDBRANCH  23  24
ENDBRANCH  22  23
TORSDOF 6
