REMARK  Name = 3nrm_ligand
REMARK  3 active torsions:
REMARK  status: ('A' for Active; 'I' for Inactive)
REMARK    1  A    between atoms: C1_1  and  C7_13
REMARK    2  A    between atoms: N1_2  and  C11_18
REMARK    3  A    between atoms: C13_20  and  C14_21
REMARK                            x       y       z     vdW  Elec       q    Type
REMARK                         _______ _______ _______ _____ _____    ______ ____
ROOT
ATOM      7  C   UNL     1       5.347  30.443   8.605  0.00  0.00    +0.084 A 
ATOM      8  C   UNL     1       4.577  31.226   9.488  0.00  0.00    +0.028 A 
ATOM      9  N   UNL     1       3.752  32.127   8.874  0.00  0.00    -0.327 NA
ATOM     10  C   UNL     1       3.990  31.899   7.524  0.00  0.00    +0.201 A 
ATOM     11  C   UNL     1       3.441  32.505   6.377  0.00  0.00    +0.197 A 
ATOM     12  N   UNL     1       3.916  32.075   5.130  0.00  0.00    -0.290 NA
ATOM     13  C   UNL     1       4.858  31.113   4.980  0.00  0.00    +0.079 A 
ATOM     14  C   UNL     1       5.372  30.523   6.149  0.00  0.00    +0.182 A 
ATOM     15  N   UNL     1       2.498  33.514   6.453  0.00  0.00    -0.218 N 
ATOM     16  H   UNL     1       2.168  33.804   7.374  0.00  0.00    +0.233 HD
ATOM     23  N   UNL     1       4.936  30.940   7.378  0.00  0.00    -0.204 N 
ENDROOT
BRANCH   7   1
ATOM      1  C   UNL     1       6.402  29.395   8.917  0.00  0.00    +0.021 A 
ATOM      2  C   UNL     1       6.378  28.372   9.855  0.00  0.00    +0.071 A 
ATOM      3  N   UNL     1       7.554  27.700   9.799  0.00  0.00    -0.218 NA
ATOM      4  N   UNL     1       8.323  28.251   8.845  0.00  0.00    -0.221 N 
ATOM      5  H   UNL     1       9.261  27.949   8.583  0.00  0.00    +0.258 HD
ATOM      6  C   UNL     1       7.639  29.272   8.295  0.00  0.00    +0.155 A 
ENDBRANCH   7   1
BRANCH  15  17
ATOM     17  C   UNL     1       1.987  34.142   5.348  0.00  0.00    +0.148 A 
ATOM     18  C   UNL     1       1.147  35.242   5.356  0.00  0.00    +0.017 A 
ATOM     19  C   UNL     1       0.780  35.650   4.072  0.00  0.00    -0.015 A 
ATOM     20  C   UNL     1      -0.119  36.807   3.768  0.00  0.00    +0.113 C 
ATOM     21  N   UNL     1       1.314  34.880   3.074  0.00  0.00    -0.312 NA
ATOM     22  S   UNL     1       2.201  33.739   3.673  0.00  0.00    +0.020 S 
ENDBRANCH  15  17
TORSDOF 2
