REMARK  Name = 4BGQ
REMARK  5 active torsions:
REMARK  status: ('A' for Active; 'I' for Inactive)
REMARK    1  A    between atoms: C_1  and  N_13
REMARK    2  A    between atoms: C_7  and  C_8
REMARK    3  A    between atoms: N_16  and  C_17
REMARK    4  A    between atoms: C_22  and  C_23
REMARK    5  A    between atoms: C_23  and  C_25
REMARK                            x       y       z     vdW  Elec       q    Type
REMARK                         _______ _______ _______ _____ _____    ______ ____
ROOT
ATOM      1  C   UNL     1      47.491  29.859  51.837  0.00  0.00    +0.129 A 
ATOM     15  N   UNL     1      47.584  30.916  52.652  0.00  0.00    -0.199 NA
ATOM     16  C   UNL     1      46.782  31.983  52.412  0.00  0.00    +0.221 A 
ATOM     17  N   UNL     1      46.811  33.156  53.192  0.00  0.00    -0.284 N 
ATOM     18  H   UNL     1      46.383  34.048  52.785  0.00  0.00    +0.155 HD
ATOM     28  N   UNL     1      45.936  32.008  51.383  0.00  0.00    -0.223 NA
ATOM     29  C   UNL     1      45.806  30.968  50.542  0.00  0.00    +0.118 A 
ATOM     30  C   UNL     1      46.597  29.863  50.767  0.00  0.00    +0.063 A 
ENDROOT
BRANCH   1   2
ATOM      2  N   UNL     1      48.271  28.671  52.003  0.00  0.00    -0.283 N 
ATOM      3  H   UNL     1      48.029  27.841  51.373  0.00  0.00    +0.155 HD
ATOM      4  C   UNL     1      49.332  28.489  52.921  0.00  0.00    +0.146 A 
ATOM      5  N   UNL     1      50.011  27.357  52.981  0.00  0.00    -0.158 NA
ATOM      6  N   UNL     1      50.923  27.462  53.957  0.00  0.00    -0.276 N 
ATOM      7  H   UNL     1      51.618  26.698  54.239  0.00  0.00    +0.189 HD
ATOM      8  C   UNL     1      50.831  28.660  54.520  0.00  0.00    +0.063 A 
ATOM     14  C   UNL     1      49.825  29.350  53.891  0.00  0.00    +0.073 A 
BRANCH   8   9
ATOM      9  C   UNL     1      51.682  29.188  55.605  0.00  0.00    -0.026 C 
ATOM     10  C   UNL     1      52.702  30.225  55.377  0.00  0.00    -0.021 C 
ATOM     11  C   UNL     1      52.705  31.102  56.561  0.00  0.00    +0.028 C 
ATOM     12  C   UNL     1      52.258  30.233  57.669  0.00  0.00    +0.009 C 
ATOM     13  C   UNL     1      51.249  29.289  57.044  0.00  0.00    +0.037 C 
ENDBRANCH   8   9
ENDBRANCH   1   2
BRANCH  17  19
ATOM     19  C   UNL     1      47.377  33.213  54.486  0.00  0.00    +0.034 A 
ATOM     20  C   UNL     1      48.083  34.350  54.809  0.00  0.00    +0.023 A 
ATOM     21  C   UNL     1      48.654  34.474  56.063  0.00  0.00    +0.006 A 
ATOM     22  C   UNL     1      48.478  33.472  57.000  0.00  0.00    -0.034 A 
ATOM     26  C   UNL     1      47.757  32.345  56.660  0.00  0.00    +0.006 A 
ATOM     27  C   UNL     1      47.196  32.207  55.409  0.00  0.00    +0.023 A 
BRANCH  22  23
ATOM     23  C   UNL     1      49.102  33.614  58.341  0.00  0.00    +0.153 C 
BRANCH  23  24
ATOM     24  C   UNL     1      50.546  33.956  58.365  0.00  0.00    +0.067 C 
ATOM     25  N   UNL     1      51.645  34.273  58.368  0.00  0.00    -0.196 NA
ENDBRANCH  23  24
ENDBRANCH  22  23
ENDBRANCH  17  19
TORSDOF 5
