REMARK  Name = 5UR1
REMARK  8 active torsions:
REMARK  status: ('A' for Active; 'I' for Inactive)
REMARK    1  A    between atoms: C_1  and  O_2
REMARK    2  A    between atoms: O_2  and  C_3
REMARK    3  A    between atoms: C_7  and  O_8
REMARK    4  A    between atoms: O_8  and  C_9
REMARK    5  A    between atoms: C_12  and  N_13
REMARK    6  A    between atoms: N_21  and  C_22
REMARK    7  A    between atoms: N_30  and  C_31
REMARK    8  A    between atoms: C_37  and  C_39
REMARK                            x       y       z     vdW  Elec       q    Type
REMARK                         _______ _______ _______ _____ _____    ______ ____
ROOT
ATOM      8  N   UNL     1     -14.966 -14.119  11.346  0.00  0.00    -0.248 N 
ATOM      9  C   UNL     1     -14.830 -13.241  12.549  0.00  0.00    +0.155 C 
ATOM     10  C   UNL     1     -16.165 -12.984  13.093  0.00  0.00    +0.029 A 
ATOM     11  C   UNL     1     -17.154 -13.925  12.942  0.00  0.00    +0.139 A 
ATOM     12  N   UNL     1     -16.845 -15.220  12.277  0.00  0.00    -0.236 N 
ATOM     22  N   UNL     1     -18.371 -13.690  13.443  0.00  0.00    -0.199 NA
ATOM     23  C   UNL     1     -18.651 -12.540  14.062  0.00  0.00    +0.221 A 
ATOM     24  N   UNL     1     -19.957 -12.223  14.628  0.00  0.00    -0.284 N 
ATOM     25  H   UNL     1     -20.255 -11.303  14.170  0.00  0.00    +0.155 HD
ATOM     32  N   UNL     1     -17.711 -11.598  14.227  0.00  0.00    -0.222 NA
ATOM     33  C   UNL     1     -16.437 -11.802  13.746  0.00  0.00    +0.123 A 
ATOM     34  C   UNL     1     -15.770 -15.190  11.449  0.00  0.00    +0.315 C 
ATOM     35  O   UNL     1     -15.497 -16.178  10.797  0.00  0.00    -0.252 OA
ENDROOT
BRANCH  12  13
ATOM     13  C   UNL     1     -18.125 -15.877  11.836  0.00  0.00    +0.087 C 
ATOM     14  C   UNL     1     -18.683 -15.395  10.512  0.00  0.00    +0.042 C 
ATOM     15  C   UNL     1     -19.985 -16.117  10.189  0.00  0.00    +0.109 C 
ATOM     16  N   UNL     1     -20.450 -17.190  11.161  0.00  0.00    -0.302 N 
ATOM     17  C   UNL     1     -21.755 -17.544  11.280  0.00  0.00    +0.212 C 
ATOM     18  C   UNL     1     -22.809 -16.824  10.415  0.00  0.00    +0.109 C 
ATOM     19  O   UNL     1     -22.143 -18.412  12.062  0.00  0.00    -0.276 OA
ATOM     20  C   UNL     1     -19.463 -17.915  12.017  0.00  0.00    +0.109 C 
ATOM     21  C   UNL     1     -18.048 -17.393  11.786  0.00  0.00    +0.042 C 
ENDBRANCH  12  13
BRANCH   8   7
ATOM      3  C   UNL     1     -12.310 -13.393   8.868  0.00  0.00    +0.144 A 
ATOM      4  C   UNL     1     -11.189 -14.050   9.382  0.00  0.00    +0.094 A 
ATOM      5  C   UNL     1     -11.304 -14.775  10.581  0.00  0.00    +0.144 A 
ATOM      6  C   UNL     1     -12.515 -14.842  11.261  0.00  0.00    +0.106 A 
ATOM      7  C   UNL     1     -13.624 -14.193  10.712  0.00  0.00    +0.082 A 
ATOM     36 CL   UNL     1     -12.512 -15.733  12.727  0.00  0.00    -0.078 Cl
ATOM     39  C   UNL     1     -13.492 -13.475   9.543  0.00  0.00    +0.106 A 
ATOM     40 CL   UNL     1     -14.849 -12.736   9.013  0.00  0.00    -0.078 Cl
BRANCH   3   2
ATOM      1  C   UNL     1     -11.132 -12.636   6.972  0.00  0.00    +0.277 C 
ATOM      2  O   UNL     1     -12.359 -12.653   7.729  0.00  0.00    -0.493 OA
ENDBRANCH   3   2
BRANCH   5  37
ATOM     37  O   UNL     1     -10.273 -15.459  11.176  0.00  0.00    -0.493 OA
ATOM     38  C   UNL     1      -9.022 -15.463  10.459  0.00  0.00    +0.277 C 
ENDBRANCH   5  37
ENDBRANCH   8   7
BRANCH  24  26
ATOM     26  C   UNL     1     -21.127 -13.102  14.546  0.00  0.00    +0.034 A 
ATOM     27  C   UNL     1     -22.062 -12.975  15.581  0.00  0.00    +0.023 A 
ATOM     28  C   UNL     1     -23.224 -13.736  15.577  0.00  0.00    +0.002 A 
ATOM     29  C   UNL     1     -23.465 -14.615  14.524  0.00  0.00    +0.000 A 
ATOM     30  C   UNL     1     -22.545 -14.730  13.483  0.00  0.00    +0.002 A 
ATOM     31  C   UNL     1     -21.380 -13.961  13.478  0.00  0.00    +0.023 A 
ENDBRANCH  24  26
TORSDOF 5
