REMARK  Name = 6I3U
REMARK  6 active torsions:
REMARK  status: ('A' for Active; 'I' for Inactive)
REMARK    1  A    between atoms: C10_6  and  C11_7
REMARK    2  A    between atoms: C10_6  and  O1_20
REMARK    3  A    between atoms: C11_7  and  N1_21
REMARK    4  A    between atoms: C25_12  and  N2_31
REMARK    5  A    between atoms: C7_17  and  O1_20
REMARK    6  A    between atoms: C17_23  and  C21_27
REMARK                            x       y       z     vdW  Elec       q    Type
REMARK                         _______ _______ _______ _____ _____    ______ ____
ROOT
ATOM      1  C   UNL     1      17.019  11.567  77.324  0.00  0.00    +0.000 A 
ATOM      2  C   UNL     1      16.397  12.040  76.171  0.00  0.00    -0.130 A 
ATOM      3  C   UNL     1      17.075  12.848  75.286  0.00  0.00    -0.130 A 
ATOM      4  C   UNL     1      18.382  13.226  75.542  0.00  0.00    -0.130 A 
ATOM      5  C   UNL     1      19.020  12.817  76.705  0.00  0.00    +0.000 A 
ATOM     19  C   UNL     1      16.237  10.706  78.279  0.00  0.00    -0.100 C 
ATOM     20  C   UNL     1      17.002   9.569  78.892  0.00  0.00    +0.000 A 
ATOM     21  C   UNL     1      16.412   8.320  79.080  0.00  0.00    -0.130 A 
ATOM     22  C   UNL     1      17.158   7.285  79.640  0.00  0.00    +0.185 A 
ATOM     33  C   UNL     1      18.481   7.499  80.038  0.00  0.00    -0.130 A 
ATOM     34  C   UNL     1      19.048   8.736  79.871  0.00  0.00    -0.130 A 
ATOM     35  C   UNL     1      18.320   9.774  79.299  0.00  0.00    +0.060 A 
ATOM     36  S   UNL     1      19.099  11.328  79.060  0.00  0.00    -0.120 S 
ATOM     37  C   UNL     1      18.341  11.949  77.587  0.00  0.00    +0.060 A 
ENDROOT
BRANCH   5   6
ATOM      6  C   UNL     1      20.451  13.183  76.902  0.00  0.00    +0.000 A 
ATOM      7  O   UNL     1      21.227  12.110  77.235  0.00  0.00    +0.000 OA
ATOM      8  C   UNL     1      22.542  12.274  77.498  0.00  0.00    +0.050 A 
ATOM     15  C   UNL     1      23.153  13.504  77.303  0.00  0.00    -0.100 A 
ATOM     16  C   UNL     1      22.385  14.622  76.932  0.00  0.00    +0.550 A 
ATOM     17  O   UNL     1      22.910  15.753  76.811  0.00  0.00    -0.550 OA
ATOM     18  C   UNL     1      21.026  14.431  76.717  0.00  0.00    -0.100 A 
BRANCH   8   9
ATOM      9  N   UNL     1      23.248  11.138  77.782  0.00  0.00    -0.250 N 
ATOM     10  C   UNL     1      22.616   9.818  77.635  0.00  0.00    +0.000 C 
ATOM     11  C   UNL     1      23.189   8.852  78.637  0.00  0.00    +0.080 C 
ATOM     12  O   UNL     1      24.594   8.775  78.536  0.00  0.00    -0.360 OA
ATOM     13  C   UNL     1      25.162  10.042  78.846  0.00  0.00    +0.080 C 
ATOM     14  C   UNL     1      24.714  11.112  77.873  0.00  0.00    +0.000 C 
ENDBRANCH   8   9
ENDBRANCH   5   6
BRANCH  22  23
ATOM     23  O   UNL     1      16.670   6.026  79.859  0.00  0.00    -0.365 OA
BRANCH  23  24
ATOM     24  C   UNL     1      15.296   5.737  79.463  0.00  0.00    +0.130 C 
ATOM     25  C   UNL     1      14.325   6.279  80.521  0.00  0.00    -0.150 C 
BRANCH  24  26
ATOM     26  C   UNL     1      15.189   4.231  79.259  0.00  0.00    +0.100 C 
BRANCH  26  27
ATOM     27  N   UNL     1      16.148   3.722  78.281  0.00  0.00    -0.600 NA
ATOM     28  C   UNL     1      15.943   2.283  78.067  0.00  0.00    +0.100 C 
ATOM     29  C   UNL     1      16.930   1.760  77.057  0.00  0.00    +0.080 C 
ATOM     30  O   UNL     1      16.813   2.438  75.813  0.00  0.00    -0.360 OA
ATOM     31  C   UNL     1      17.019   3.832  76.003  0.00  0.00    +0.080 C 
ATOM     32  C   UNL     1      16.039   4.413  76.986  0.00  0.00    +0.100 C 
ENDBRANCH  26  27
ENDBRANCH  24  26
ENDBRANCH  23  24
ENDBRANCH  22  23
TORSDOF 6
