REMARK  Name = DVJ
REMARK  6 active torsions:
REMARK  status: ('A' for Active; 'I' for Inactive)
REMARK    1  A    between atoms: C11_3  and  N10_13
REMARK    2  A    between atoms: C13_7  and  C19_18
REMARK    3  A    between atoms: C23_22  and  N28_27
REMARK    4  A    between atoms: C24_23  and  C25_24
REMARK    5  A    between atoms: C25_24  and  C26_25
REMARK    6  A    between atoms: C29_28  and  C31_30
REMARK                            x       y       z     vdW  Elec       q    Type
REMARK                         _______ _______ _______ _____ _____    ______ ____
ROOT
ATOM     14  C   UNL     1      38.183  28.023  11.373  0.00  0.00    +0.017 A 
ATOM     15  C   UNL     1      39.213  27.927  12.309  0.00  0.00    +0.001 A 
ATOM     16  C   UNL     1      40.504  27.654  11.897  0.00  0.00    +0.001 A 
ATOM     17  C   UNL     1      40.791  27.474  10.556  0.00  0.00    +0.016 A 
ATOM     18  C   UNL     1      39.774  27.562   9.616  0.00  0.00    +0.070 A 
ATOM     31  C   UNL     1      38.476  27.830  10.021  0.00  0.00    -0.003 A 
ENDROOT
BRANCH  14  13
ATOM     11  C   UNL     1      35.012  27.960  13.420  0.00  0.00    +0.133 A 
ATOM     12  C   UNL     1      36.292  27.698  13.005  0.00  0.00    +0.042 A 
ATOM     13  C   UNL     1      36.793  28.309  11.829  0.00  0.00    +0.104 A 
ATOM     35  N   UNL     1      36.030  29.125  11.139  0.00  0.00    -0.145 NA
ATOM     36  N   UNL     1      34.720  29.404  11.539  0.00  0.00    -0.104 NA
ATOM     37  C   UNL     1      34.213  28.839  12.650  0.00  0.00    +0.312 A 
ATOM     38  O   UNL     1      33.067  29.087  12.995  0.00  0.00    -0.262 OA
BRANCH  11  10
ATOM      1  C   UNL     1      37.862  25.488  17.609  0.00  0.00    +0.144 C 
ATOM      2  C   UNL     1      37.808  25.782  19.113  0.00  0.00    +0.099 C 
ATOM      3  N   UNL     1      36.602  25.180  19.703  0.00  0.00    -0.265 NA
ATOM      4  C   UNL     1      36.664  25.237  21.172  0.00  0.00    +0.090 C 
ATOM      5  C   UNL     1      35.359  25.812  19.211  0.00  0.00    +0.118 C 
ATOM      6  C   UNL     1      35.494  26.178  17.752  0.00  0.00    +0.075 A 
ATOM      7  C   UNL     1      34.563  26.696  16.937  0.00  0.00    +0.054 A 
ATOM      8  C   UNL     1      35.139  26.880  15.667  0.00  0.00    +0.173 A 
ATOM      9  N   UNL     1      36.387  26.471  15.731  0.00  0.00    -0.153 NA
ATOM     10  N   UNL     1      34.443  27.396  14.564  0.00  0.00    -0.188 NA
ATOM     39  N   UNL     1      36.629  26.028  17.032  0.00  0.00    -0.251 N 
ENDBRANCH  11  10
ENDBRANCH  14  13
BRANCH  18  19
ATOM     19  N   UNL     1      40.036  27.379   8.253  0.00  0.00    -0.175 NA
ATOM     20  C   UNL     1      40.689  28.302   7.519  0.00  0.00    +0.275 C 
ATOM     21  O   UNL     1      41.077  29.334   8.035  0.00  0.00    -0.268 OA
BRANCH  20  22
ATOM     22  C   UNL     1      40.930  28.047   6.090  0.00  0.00    +0.085 A 
ATOM     23  C   UNL     1      40.530  26.950   5.440  0.00  0.00    +0.012 A 
ATOM     24  C   UNL     1      40.861  26.892   4.076  0.00  0.00    +0.007 A 
ATOM     25  C   UNL     1      41.567  28.022   3.646  0.00  0.00    +0.030 A 
ATOM     26  C   UNL     1      41.974  28.124   2.309  0.00  0.00    +0.006 A 
ATOM     27  C   UNL     1      41.682  27.118   1.419  0.00  0.00    +0.001 A 
ATOM     28  C   UNL     1      40.981  25.994   1.841  0.00  0.00    +0.000 A 
ATOM     29  C   UNL     1      40.576  25.873   3.134  0.00  0.00    +0.001 A 
ATOM     30  S   UNL     1      41.785  29.123   5.001  0.00  0.00    -0.082 S 
ENDBRANCH  20  22
ENDBRANCH  18  19
BRANCH  31  32
ATOM     32  C   UNL     1      37.411  27.927   8.962  0.00  0.00    +0.063 C 
BRANCH  32  33
ATOM     33  C   UNL     1      37.475  29.341   8.375  0.00  0.00    +0.187 C 
ATOM     34  O   UNL     1      36.590  29.442   7.256  0.00  0.00    -0.220 OA
ENDBRANCH  32  33
ENDBRANCH  31  32
TORSDOF 6
