REMARK  Name = 4e5w_ligand
REMARK  5 active torsions:
REMARK  status: ('A' for Active; 'I' for Inactive)
REMARK    1  A    between atoms: C2_2  and  C1_5
REMARK    2  A    between atoms: C2_2  and  C3_6
REMARK    3  A    between atoms: C2_2  and  N4_7
REMARK    4  A    between atoms: C10_3  and  C8_9
REMARK    5  A    between atoms: C15_14  and  N18_17
REMARK                            x       y       z     vdW  Elec       q    Type
REMARK                         _______ _______ _______ _____ _____    ______ ____
ROOT
ATOM      9  C   UNL     1       6.435  52.217   1.715  0.00  0.00    +0.227 C 
ATOM     10  N   UNL     1       6.261  53.564   1.900  0.00  0.00    -0.268 N 
ATOM     11  C   UNL     1       7.140  54.403   2.764  0.00  0.00    +0.141 C 
ATOM     12  C   UNL     1       7.767  55.535   1.921  0.00  0.00    +0.061 C 
ATOM     13  C   UNL     1       6.634  56.336   1.230  0.00  0.00    +0.139 C 
ATOM     27  C   UNL     1       5.698  55.454   0.381  0.00  0.00    +0.061 C 
ATOM     28  C   UNL     1       5.147  54.284   1.240  0.00  0.00    +0.141 C 
ATOM     29  O   UNL     1       5.661  51.581   1.000  0.00  0.00    -0.391 OA
ENDROOT
BRANCH  13  14
ATOM     14  N   UNL     1       7.143  57.541   0.552  0.00  0.00    -0.231 N 
ATOM     15  C   UNL     1       6.498  58.755   0.460  0.00  0.00    +0.094 A 
ATOM     16  C   UNL     1       5.242  59.250   0.860  0.00  0.00    +0.022 A 
ATOM     17  C   UNL     1       4.940  60.611   0.616  0.00  0.00    +0.122 A 
ATOM     18  N   UNL     1       5.839  61.415   0.019  0.00  0.00    -0.302 NA
ATOM     19  C   UNL     1       7.031  60.983  -0.367  0.00  0.00    +0.068 A 
ATOM     20  N   UNL     1       3.677  60.818   1.116  0.00  0.00    -0.273 N 
ATOM     21  H   UNL     1       3.182  61.721   1.103  0.00  0.00    +0.229 HD
ATOM     22  C   UNL     1       3.168  59.656   1.634  0.00  0.00    +0.113 A 
ATOM     23  C   UNL     1       4.066  58.663   1.516  0.00  0.00    -0.031 A 
ATOM     24  C   UNL     1       7.409  59.644  -0.160  0.00  0.00    +0.046 A 
ATOM     25  N   UNL     1       8.543  58.940  -0.408  0.00  0.00    -0.307 NA
ATOM     26  C   UNL     1       8.400  57.717   0.015  0.00  0.00    +0.238 A 
ENDBRANCH  13  14
BRANCH   9   2
ATOM      1  C   UNL     1       8.875  51.678   1.484  0.00  0.00    +0.082 C 
ATOM      2  C   UNL     1       7.589  51.451   2.340  0.00  0.00    +0.179 C 
ATOM      3  N   UNL     1       7.328  49.966   2.357  0.00  0.00    +0.256 N 
ATOM      4  H   UNL     1       6.654  49.739   1.643  0.00  0.00    +0.206 HD
ATOM      5  C   UNL     1       8.659  49.374   2.001  0.00  0.00    +0.134 C 
ATOM     30  C   UNL     1       9.187  50.294   0.888  0.00  0.00    +0.059 C 
BRANCH   3   6
ATOM      6  C   UNL     1       6.801  49.446   3.656  0.00  0.00    +0.060 C 
ATOM      7  C   UNL     1       5.418  50.015   4.007  0.00  0.00    +0.063 C 
ATOM      8  C   UNL     1       6.622  47.919   3.635  0.00  0.00    +0.063 C 
ENDBRANCH   3   6
ENDBRANCH   9   2
TORSDOF 3
