REMARK  Name = 1XA
REMARK  1 active torsions:
REMARK  status: ('A' for Active; 'I' for Inactive)
REMARK    1  A    between atoms: CAH_6  and  CAD_7
REMARK                            x       y       z     vdW  Elec       q    Type
REMARK                         _______ _______ _______ _____ _____    ______ ____
ROOT
ATOM      7  C   UNL     1     -10.886  -5.983   0.207  0.00  0.00    +0.071 A 
ATOM      8  C   UNL     1     -12.144  -6.374   0.651  0.00  0.00    +0.265 A 
ATOM      9  N   UNL     1     -12.422  -7.240   1.623  0.00  0.00    -0.085 NA
ATOM     10  O   UNL     1     -13.089  -5.725  -0.082  0.00  0.00    -0.336 OA
ATOM     11  N   UNL     1     -12.402  -4.900  -1.005  0.00  0.00    -0.080 NA
ATOM     12  C   UNL     1     -11.096  -5.060  -0.816  0.00  0.00    +0.102 A 
ATOM     13  C   UNL     1     -10.031  -4.326  -1.632  0.00  0.00    +0.056 C 
ENDROOT
BRANCH   7   6
ATOM      1  C   UNL     1      -9.498  -6.592   2.094  0.00  0.00    +0.000 A 
ATOM      2  C   UNL     1      -8.270  -6.989   2.619  0.00  0.00    +0.000 A 
ATOM      3  C   UNL     1      -7.180  -7.187   1.777  0.00  0.00    +0.000 A 
ATOM      4  C   UNL     1      -7.324  -6.984   0.407  0.00  0.00    +0.000 A 
ATOM      5  C   UNL     1      -8.553  -6.590  -0.119  0.00  0.00    +0.000 A 
ATOM      6  C   UNL     1      -9.652  -6.395   0.718  0.00  0.00    +0.006 A 
ENDBRANCH   7   6
TORSDOF 1
