REMARK  Name = 5CT7
REMARK  7 active torsions:
REMARK  status: ('A' for Active; 'I' for Inactive)
REMARK    1  A    between atoms: O_4  and  C_20
REMARK    2  A    between atoms: O_4  and  C_22
REMARK    3  A    between atoms: C_6  and  C_26
REMARK    4  A    between atoms: C_8  and  N_28
REMARK    5  A    between atoms: C_9  and  N_29
REMARK    6  A    between atoms: C_12  and  C_17
REMARK    7  A    between atoms: C_16  and  C_18
REMARK                            x       y       z     vdW  Elec       q    Type
REMARK                         _______ _______ _______ _____ _____    ______ ____
ROOT
ATOM      1  C   UNL     1     -19.280   9.437  -8.935  0.00  0.00    +0.094 A 
ATOM      2  N   UNL     1     -19.744   8.984  -7.695  0.00  0.00    -0.214 NA
ATOM      3  C   UNL     1     -20.608   8.032  -7.992  0.00  0.00    +0.201 A 
ATOM      4  N   UNL     1     -21.290   7.244  -7.119  0.00  0.00    -0.285 N 
ATOM      5  H   UNL     1     -21.526   6.258  -7.463  0.00  0.00    +0.155 HD
ATOM     16  N   UNL     1     -20.762   7.840  -9.345  0.00  0.00    -0.315 N 
ATOM     17  C   UNL     1     -21.705   6.935 -10.000  0.00  0.00    +0.152 C 
ATOM     18  C   UNL     1     -18.367  10.449  -9.236  0.00  0.00    +0.076 A 
ATOM     19  C   UNL     1     -18.134  10.729 -10.581  0.00  0.00    +0.131 A 
ATOM     20  C   UNL     1     -18.785  10.044 -11.609  0.00  0.00    +0.048 A 
ATOM     21  C   UNL     1     -19.674   9.025 -11.312  0.00  0.00    +0.031 A 
ATOM     39  C   UNL     1     -19.907   8.738  -9.971  0.00  0.00    +0.070 A 
ENDROOT
BRANCH   4   6
ATOM      6  C   UNL     1     -21.726   7.565  -5.815  0.00  0.00    +0.034 A 
ATOM      7  C   UNL     1     -21.644   8.851  -5.289  0.00  0.00    +0.024 A 
ATOM      8  C   UNL     1     -22.104   9.109  -4.010  0.00  0.00    +0.014 A 
ATOM      9  C   UNL     1     -22.658   8.099  -3.232  0.00  0.00    +0.055 A 
ATOM     14  C   UNL     1     -22.736   6.821  -3.765  0.00  0.00    +0.014 A 
ATOM     15  C   UNL     1     -22.276   6.551  -5.042  0.00  0.00    +0.024 A 
BRANCH   9  10
ATOM     10  C   UNL     1     -23.233   8.390  -1.889  0.00  0.00    +0.417 C 
ATOM     11  F   UNL     1     -22.719   7.659  -0.942  0.00  0.00    -0.166 F 
ATOM     12  F   UNL     1     -24.510   8.144  -1.853  0.00  0.00    -0.166 F 
ATOM     13  F   UNL     1     -23.082   9.649  -1.475  0.00  0.00    -0.166 F 
ENDBRANCH   9  10
ENDBRANCH   4   6
BRANCH  19  22
ATOM     22  O   UNL     1     -17.140  11.635 -10.927  0.00  0.00    -0.456 OA
BRANCH  22  23
ATOM     23  C   UNL     1     -17.408  12.990 -11.106  0.00  0.00    +0.132 A 
ATOM     24  C   UNL     1     -18.652  13.572 -10.922  0.00  0.00    +0.066 A 
ATOM     25  C   UNL     1     -18.754  14.936 -11.121  0.00  0.00    +0.115 A 
ATOM     26  N   UNL     1     -17.724  15.725 -11.474  0.00  0.00    -0.252 NA
ATOM     27  C   UNL     1     -16.526  15.138 -11.628  0.00  0.00    +0.109 A 
ATOM     38  C   UNL     1     -16.323  13.774 -11.466  0.00  0.00    +0.077 A 
BRANCH  27  28
ATOM     28  C   UNL     1     -15.402  16.035 -11.922  0.00  0.00    +0.157 A 
ATOM     29  N   UNL     1     -14.125  15.686 -12.008  0.00  0.00    -0.334 N 
ATOM     30  H   UNL     1     -13.700  14.711 -11.898  0.00  0.00    +0.167 HD
ATOM     31  C   UNL     1     -13.477  16.865 -12.271  0.00  0.00    +0.140 A 
ATOM     36  C   UNL     1     -14.330  17.919 -12.342  0.00  0.00    +0.143 A 
ATOM     37  N   UNL     1     -15.576  17.424 -12.129  0.00  0.00    -0.234 NA
BRANCH  31  32
ATOM     32  C   UNL     1     -12.012  16.855 -12.450  0.00  0.00    +0.434 C 
ATOM     33  F   UNL     1     -11.413  16.103 -11.541  0.00  0.00    -0.164 F 
ATOM     34  F   UNL     1     -11.483  18.067 -12.355  0.00  0.00    -0.164 F 
ATOM     35  F   UNL     1     -11.660  16.349 -13.615  0.00  0.00    -0.164 F 
ENDBRANCH  31  32
ENDBRANCH  27  28
ENDBRANCH  22  23
ENDBRANCH  19  22
TORSDOF 6
