REMARK  Name = 4UB7
REMARK  4 active torsions:
REMARK  status: ('A' for Active; 'I' for Inactive)
REMARK    1  A    between atoms: C_3  and  C_19
REMARK    2  A    between atoms: C_4  and  C_16
REMARK    3  A    between atoms: C_9  and  O_23
REMARK    4  A    between atoms: C_12  and  O_21
REMARK                            x       y       z     vdW  Elec       q    Type
REMARK                         _______ _______ _______ _____ _____    ______ ____
ROOT
ATOM      3  C   UNL     1     -17.591   5.080  19.339  0.00  0.00    +0.165 C 
ATOM      4  O   UNL     1     -17.736   4.791  18.058  0.00  0.00    -0.351 OA
ATOM      5  C   UNL     1     -17.155   5.501  17.077  0.00  0.00    +0.128 C 
ATOM      6  C   UNL     1     -16.354   6.578  17.351  0.00  0.00    +0.054 C 
ATOM      7  C   UNL     1     -15.765   7.295  16.291  0.00  0.00    +0.025 C 
ATOM      8  C   UNL     1     -15.989   6.908  14.973  0.00  0.00    +0.050 C 
ATOM      9 BR   UNL     1     -15.179   7.890  13.544  0.00  0.00    -0.082 Br
ATOM     10  C   UNL     1     -16.805   5.811  14.700  0.00  0.00    +0.034 C 
ATOM     11  C   UNL     1     -16.155   6.928  18.734  0.00  0.00    +0.142 C 
ATOM     14  C   UNL     1     -17.389   5.107  15.747  0.00  0.00    +0.081 C 
ATOM     15 BR   UNL     1     -18.519   3.601  15.412  0.00  0.00    -0.079 Br
ATOM     16  C   UNL     1     -16.791   6.152  19.749  0.00  0.00    +0.168 C 
ENDROOT
BRANCH   3   2
ATOM      1  C   UNL     1     -17.949   4.020  21.624  0.00  0.00    +0.007 A 
ATOM      2  C   UNL     1     -18.317   4.151  20.294  0.00  0.00    -0.010 A 
ATOM     19  C   UNL     1     -19.348   3.373  19.791  0.00  0.00    +0.007 A 
ATOM     20  C   UNL     1     -20.029   2.490  20.613  0.00  0.00    +0.010 A 
ATOM     21  C   UNL     1     -19.665   2.378  21.945  0.00  0.00    -0.003 A 
ATOM     25  C   UNL     1     -18.629   3.143  22.451  0.00  0.00    +0.010 A 
BRANCH  21  22
ATOM     22  C   UNL     1     -20.393   1.416  22.852  0.00  0.00    +0.072 C 
ATOM     23  O   UNL     1     -21.347   0.726  22.409  0.00  0.00    -0.545 OA
ATOM     24  O   UNL     1     -20.025   1.298  24.048  0.00  0.00    -0.545 OA
ENDBRANCH  21  22
ENDBRANCH   3   2
BRANCH  11  12
ATOM     12  O   UNL     1     -15.344   8.026  19.075  0.00  0.00    -0.382 OA
ATOM     13  H   UNL     1     -15.913   8.731  19.605  0.00  0.00    +0.210 HD
ENDBRANCH  11  12
BRANCH  16  17
ATOM     17  O   UNL     1     -16.601   6.493  21.101  0.00  0.00    -0.379 OA
ATOM     18  H   UNL     1     -15.579   6.439  21.336  0.00  0.00    +0.211 HD
ENDBRANCH  16  17
TORSDOF 4
