REMARK  Name = 1pmu_ligand
REMARK  2 active torsions:
REMARK  status: ('A' for Active; 'I' for Inactive)
REMARK    1  A    between atoms: C17_12  and  C24_17
REMARK    2  A    between atoms: C27_20  and  O32_21
REMARK                            x       y       z     vdW  Elec       q    Type
REMARK                         _______ _______ _______ _____ _____    ______ ____
ROOT
ATOM      1  C   UNL     1      22.311  23.479  47.097  0.00  0.00    +0.022 A 
ATOM      2  C   UNL     1      22.353  24.191  45.806  0.00  0.00    +0.020 A 
ATOM      3  C   UNL     1      21.280  24.286  44.861  0.00  0.00    +0.046 A 
ATOM      4  C   UNL     1      21.418  24.988  43.646  0.00  0.00    +0.005 A 
ATOM     13  C   UNL     1      22.667  25.590  43.376  0.00  0.00    +0.103 A 
ATOM     14  N   UNL     1      23.704  25.509  44.262  0.00  0.00    -0.293 NA
ATOM     15  C   UNL     1      23.634  24.833  45.470  0.00  0.00    +0.052 A 
ATOM     16  C   UNL     1      24.777  24.819  46.308  0.00  0.00    +0.035 A 
ATOM     17  C   UNL     1      24.741  24.145  47.538  0.00  0.00    +0.027 A 
ATOM     18  C   UNL     1      21.177  22.777  47.634  0.00  0.00    +0.107 A 
ATOM     19  N   UNL     1      21.222  22.149  48.847  0.00  0.00    -0.297 NA
ATOM     20  C   UNL     1      22.364  22.163  49.605  0.00  0.00    +0.089 A 
ATOM     21  C   UNL     1      23.540  22.816  49.195  0.00  0.00    +0.043 A 
ATOM     22  C   UNL     1      23.530  23.488  47.930  0.00  0.00    +0.003 A 
ENDROOT
BRANCH   4   5
ATOM      5  C   UNL     1      20.277  25.113  42.679  0.00  0.00    -0.021 A 
ATOM      6  C   UNL     1      19.913  26.400  42.244  0.00  0.00    +0.001 A 
ATOM      7  C   UNL     1      18.851  26.601  41.363  0.00  0.00    +0.024 A 
ATOM      8  C   UNL     1      18.113  25.511  40.890  0.00  0.00    +0.090 A 
ATOM     11  C   UNL     1      18.454  24.192  41.303  0.00  0.00    +0.024 A 
ATOM     12  C   UNL     1      19.538  24.002  42.201  0.00  0.00    +0.001 A 
BRANCH   8   9
ATOM      9  O   UNL     1      17.073  25.759  40.036  0.00  0.00    -0.331 OA
ATOM     10  H   UNL     1      16.660  24.939  39.793  0.00  0.00    +0.249 HD
ENDBRANCH   8   9
ENDBRANCH   4   5
TORSDOF 2
