REMARK  Name = 3WYY
REMARK  14 active torsions:
REMARK  status: ('A' for Active; 'I' for Inactive)
REMARK    1  A    between atoms: C_2  and  C_3
REMARK    2  A    between atoms: C_3  and  O_4
REMARK    3  A    between atoms: O_4  and  C_5
REMARK    4  A    between atoms: C_6  and  C_7
REMARK    5  A    between atoms: C_7  and  C_8
REMARK    6  A    between atoms: C_8  and  C_9
REMARK    7  A    between atoms: N_11  and  C_12
REMARK    8  A    between atoms: C_12  and  C_13
REMARK    9  A    between atoms: C_13  and  O_14
REMARK   10  A    between atoms: O_14  and  C_15
REMARK   11  A    between atoms: C_17  and  N_20
REMARK   12  A    between atoms: C_24  and  C_25
REMARK   13  A    between atoms: C_27  and  N_28
REMARK   14  A    between atoms: N_30  and  C_31
REMARK                            x       y       z     vdW  Elec       q    Type
REMARK                         _______ _______ _______ _____ _____    ______ ____
ROOT
ATOM      8  N   UNL     1     -34.564 -19.594  -9.892  0.00  0.00    -0.200 N 
ATOM      9  H   UNL     1     -34.036 -20.486  -9.626  0.00  0.00    +0.298 HD
ATOM     10  C   UNL     1     -35.437 -19.720 -10.941  0.00  0.00    +0.322 C 
ATOM     11  C   UNL     1     -35.822 -21.023 -11.277  0.00  0.00    +0.120 C 
ATOM     12  C   UNL     1     -36.690 -21.281 -12.329  0.00  0.00    +0.044 C 
ATOM     16  C   UNL     1     -37.206 -20.137 -13.103  0.00  0.00    +0.237 C 
ATOM     19  C   UNL     1     -36.757 -18.779 -12.706  0.00  0.00    +0.369 C 
ATOM     20  N   UNL     1     -37.218 -17.718 -13.422  0.00  0.00    -0.073 NA
ATOM     31  N   UNL     1     -35.904 -18.652 -11.654  0.00  0.00    +0.002 NA
ENDROOT
BRANCH  20  21
ATOM     21  C   UNL     1     -36.923 -16.323 -13.147  0.00  0.00    +0.153 C 
ATOM     22  C   UNL     1     -35.427 -16.068 -12.893  0.00  0.00    +0.060 C 
ATOM     23  C   UNL     1     -35.187 -14.574 -12.612  0.00  0.00    -0.006 C 
ATOM     24  C   UNL     1     -36.038 -14.149 -11.402  0.00  0.00    +0.007 C 
ATOM     25  C   UNL     1     -37.528 -14.373 -11.686  0.00  0.00    -0.006 C 
ATOM     26  C   UNL     1     -37.917 -13.573 -12.939  0.00  0.00    +0.007 C 
ATOM     27  C   UNL     1     -37.074 -13.999 -14.148  0.00  0.00    -0.006 C 
ATOM     28  C   UNL     1     -35.593 -13.750 -13.840  0.00  0.00    +0.007 C 
ATOM     29  C   UNL     1     -37.745 -15.869 -11.931  0.00  0.00    +0.060 C 
ATOM     30  C   UNL     1     -37.317 -15.501 -14.387  0.00  0.00    +0.060 C 
ENDBRANCH  20  21
BRANCH   8   7
ATOM      5  C   UNL     1     -33.525 -17.662  -6.984  0.00  0.00    +0.129 A 
ATOM      6  C   UNL     1     -33.856 -18.727  -7.823  0.00  0.00    +0.095 A 
ATOM      7  C   UNL     1     -34.271 -18.498  -9.139  0.00  0.00    +0.122 A 
ATOM     32  C   UNL     1     -34.338 -17.189  -9.643  0.00  0.00    +0.049 A 
ATOM     33  C   UNL     1     -34.016 -16.081  -8.852  0.00  0.00    +0.011 A 
ATOM     34  C   UNL     1     -33.590 -16.277  -7.534  0.00  0.00    -0.005 A 
BRANCH   5   4
ATOM      4  O   UNL     1     -33.120 -17.875  -5.678  0.00  0.00    -0.477 OA
BRANCH   4   3
ATOM      3  C   UNL     1     -34.067 -17.982  -4.601  0.00  0.00    +0.346 C 
BRANCH   3   2
ATOM      1  N   UNL     1     -32.962 -17.413  -2.269  0.00  0.00    -0.193 NA
ATOM      2  C   UNL     1     -33.447 -17.664  -3.299  0.00  0.00    +0.104 C 
ENDBRANCH   3   2
ENDBRANCH   4   3
ENDBRANCH   5   4
BRANCH  34  35
ATOM     35  C   UNL     1     -33.297 -15.149  -6.623  0.00  0.00    +0.048 C 
BRANCH  35  36
ATOM     36  C   UNL     1     -34.370 -15.051  -5.828  0.00  0.00    +0.100 C 
BRANCH  36  37
ATOM     37  C   UNL     1     -34.664 -14.129  -4.718  0.00  0.00    +0.213 C 
ATOM     38  N   UNL     1     -35.738 -13.337  -4.818  0.00  0.00    -0.313 N 
ATOM     39  H   UNL     1     -36.615 -13.589  -4.259  0.00  0.00    +0.149 HD
ATOM     44  O   UNL     1     -33.950 -14.155  -3.727  0.00  0.00    -0.276 OA
BRANCH  38  40
ATOM     40  C   UNL     1     -35.762 -12.146  -5.656  0.00  0.00    +0.132 C 
BRANCH  40  41
ATOM     41  C   UNL     1     -36.979 -11.266  -5.368  0.00  0.00    +0.178 C 
BRANCH  41  42
ATOM     42  O   UNL     1     -36.576 -10.110  -4.622  0.00  0.00    -0.381 OA
ATOM     43  C   UNL     1     -37.357  -8.947  -4.928  0.00  0.00    +0.193 C 
ENDBRANCH  41  42
ENDBRANCH  40  41
ENDBRANCH  38  40
ENDBRANCH  36  37
ENDBRANCH  35  36
ENDBRANCH  34  35
ENDBRANCH   8   7
BRANCH  12  13
ATOM     13  N   UNL     1     -37.060 -22.545 -12.642  0.00  0.00    -0.359 N 
ATOM     14  H   UNL     1     -36.681 -23.369 -12.075  0.00  0.00    +0.142 HD
ATOM     15  H   UNL     1     -37.732 -22.720 -13.456  0.00  0.00    +0.142 HD
ENDBRANCH  12  13
BRANCH  16  17
ATOM     17  C   UNL     1     -38.016 -20.312 -14.089  0.00  0.00    +0.091 C 
ATOM     18  N   UNL     1     -38.757 -20.486 -14.964  0.00  0.00    -0.195 NA
ENDBRANCH  16  17
TORSDOF 13
