REMARK  Name = 5NK2
REMARK  12 active torsions:
REMARK  status: ('A' for Active; 'I' for Inactive)
REMARK    1  A    between atoms: C_7  and  N_8
REMARK    2  A    between atoms: C_9  and  C_11
REMARK    3  A    between atoms: C_16  and  N_17
REMARK    4  A    between atoms: C_22  and  C_23
REMARK    5  A    between atoms: N_25  and  C_26
REMARK    6  A    between atoms: C_32  and  C_33
REMARK    7  A    between atoms: C_40  and  N_41
REMARK    8  A    between atoms: C_42  and  C_44
REMARK    9  A    between atoms: C_49  and  N_50
REMARK   10  A    between atoms: C_55  and  C_56
REMARK   11  A    between atoms: N_58  and  C_59
REMARK   12  A    between atoms: C_65  and  C_66
REMARK                            x       y       z     vdW  Elec       q    Type
REMARK                         _______ _______ _______ _____ _____    ______ ____
ROOT
ATOM     12  N   UNL     1     -87.075 -15.347   5.230  0.00  0.00    -0.294 N 
ATOM     13  H   UNL     1     -87.289 -14.869   4.297  0.00  0.00    +0.154 HD
ATOM     14  C   UNL     1     -88.112 -15.885   5.912  0.00  0.00    +0.163 A 
ATOM     15  N   UNL     1     -89.380 -15.867   5.452  0.00  0.00    -0.232 NA
ATOM     16  C   UNL     1     -90.299 -16.462   6.258  0.00  0.00    +0.133 A 
ATOM     17  C   UNL     1     -89.816 -16.970   7.406  0.00  0.00    +0.095 A 
ATOM     30  S   UNL     1     -88.139 -16.676   7.425  0.00  0.00    -0.048 S 
ENDROOT
BRANCH  12  11
ATOM      7  C   UNL     1     -83.457 -15.294   5.029  0.00  0.00    +0.039 A 
ATOM      8  C   UNL     1     -83.076 -15.362   6.362  0.00  0.00    +0.013 A 
ATOM      9  C   UNL     1     -84.049 -15.421   7.342  0.00  0.00    +0.003 A 
ATOM     10  C   UNL     1     -85.391 -15.409   6.975  0.00  0.00    +0.023 A 
ATOM     11  C   UNL     1     -85.791 -15.370   5.641  0.00  0.00    +0.034 A 
ATOM     31  C   UNL     1     -84.802 -15.299   4.665  0.00  0.00    +0.036 A 
BRANCH   7   6
ATOM      4  N   UNL     1     -81.367 -14.610   4.370  0.00  0.00    -0.306 N 
ATOM      5  H   UNL     1     -81.280 -14.217   5.362  0.00  0.00    +0.149 HD
ATOM      6  C   UNL     1     -82.494 -15.241   4.030  0.00  0.00    +0.244 C 
ATOM     32  O   UNL     1     -82.710 -15.736   2.924  0.00  0.00    -0.270 OA
BRANCH   4   3
ATOM      1  F   UNL     1     -81.208 -12.635   2.431  0.00  0.00    -0.242 F 
ATOM      2  C   UNL     1     -80.141 -12.959   3.063  0.00  0.00    +0.200 C 
ATOM      3  C   UNL     1     -80.238 -14.431   3.440  0.00  0.00    +0.110 C 
ATOM     33  C   UNL     1     -78.944 -14.841   4.123  0.00  0.00    +0.040 C 
ATOM     34  C   UNL     1     -77.775 -14.577   3.169  0.00  0.00    +0.083 C 
ATOM     35  N   UNL     1     -77.704 -13.157   2.777  0.00  0.00    -0.313 NA
ATOM     36  H   UNL     1     -77.543 -12.557   3.649  0.00  0.00    +0.122 HD
ATOM     37  C   UNL     1     -78.957 -12.746   2.130  0.00  0.00    +0.119 C 
ENDBRANCH   4   3
ENDBRANCH   7   6
ENDBRANCH  12  11
BRANCH  17  18
ATOM     18  C   UNL     1     -90.462 -17.623   8.416  0.00  0.00    +0.257 C 
ATOM     19  N   UNL     1     -91.768 -17.981   8.260  0.00  0.00    -0.280 N 
ATOM     20  H   UNL     1     -92.284 -17.756   7.350  0.00  0.00    +0.155 HD
ATOM     29  O   UNL     1     -89.838 -17.886   9.447  0.00  0.00    -0.269 OA
BRANCH  19  21
ATOM     21  C   UNL     1     -92.416 -18.632   9.280  0.00  0.00    +0.055 A 
ATOM     22  C   UNL     1     -92.625 -20.009   9.223  0.00  0.00    -0.028 A 
ATOM     23  C   UNL     1     -92.157 -20.764   8.143  0.00  0.00    +0.045 C 
ATOM     24  C   UNL     1     -93.295 -20.663  10.263  0.00  0.00    +0.005 A 
ATOM     25  C   UNL     1     -93.767 -19.939  11.360  0.00  0.00    +0.002 A 
ATOM     26  C   UNL     1     -93.570 -18.554  11.402  0.00  0.00    +0.022 A 
ATOM     27  C   UNL     1     -92.891 -17.905  10.372  0.00  0.00    +0.062 A 
ATOM     28 CL   UNL     1     -92.668 -16.191  10.443  0.00  0.00    -0.082 Cl
ENDBRANCH  19  21
ENDBRANCH  17  18
TORSDOF 5
