REMARK  Name = 4RBL
REMARK  6 active torsions:
REMARK  status: ('A' for Active; 'I' for Inactive)
REMARK    1  A    between atoms: O_1  and  C_2
REMARK    2  A    between atoms: C_6  and  O_7
REMARK    3  A    between atoms: C_10  and  O_14
REMARK    4  A    between atoms: C_11  and  O_12
REMARK    5  A    between atoms: C_13  and  O_15
REMARK    6  A    between atoms: C_18  and  O_19
REMARK                            x       y       z     vdW  Elec       q    Type
REMARK                         _______ _______ _______ _____ _____    ______ ____
ROOT
ATOM      3  C   UNL     1     119.036  38.108   0.805  0.00  0.00    +0.128 A 
ATOM      4  C   UNL     1     118.096  37.525  -0.100  0.00  0.00    +0.073 A 
ATOM      5  C   UNL     1     118.060  37.978  -1.469  0.00  0.00    +0.073 A 
ATOM      6  C   UNL     1     117.043  37.348  -2.402  0.00  0.00    +0.140 A 
ATOM      7  C   UNL     1     116.067  36.266  -1.990  0.00  0.00    +0.073 A 
ATOM      8  C   UNL     1     115.077  35.642  -2.861  0.00  0.00    +0.128 A 
ATOM     11  C   UNL     1     114.260  34.666  -2.319  0.00  0.00    +0.050 A 
ATOM     12  C   UNL     1     114.315  34.271  -1.042  0.00  0.00    +0.050 A 
ATOM     13  C   UNL     1     115.208  34.817  -0.186  0.00  0.00    +0.128 A 
ATOM     16  C   UNL     1     116.117  35.826  -0.619  0.00  0.00    +0.073 A 
ATOM     19  C   UNL     1     119.015  39.016  -1.823  0.00  0.00    +0.128 A 
ATOM     22  C   UNL     1     119.882  39.507  -0.875  0.00  0.00    +0.050 A 
ATOM     23  C   UNL     1     117.123  36.441   0.342  0.00  0.00    +0.140 A 
ATOM     26  C   UNL     1     119.906  39.078   0.395  0.00  0.00    +0.050 A 
ENDROOT
BRANCH   3   1
ATOM      1  O   UNL     1     119.074  37.689   2.125  0.00  0.00    -0.506 OA
ATOM      2  H   UNL     1     120.025  37.300   2.342  0.00  0.00    +0.292 HD
ENDBRANCH   3   1
BRANCH   8   9
ATOM      9  O   UNL     1     114.862  35.964  -4.212  0.00  0.00    -0.506 OA
ATOM     10  H   UNL     1     115.008  35.109  -4.804  0.00  0.00    +0.292 HD
ENDBRANCH   8   9
BRANCH  13  14
ATOM     14  O   UNL     1     115.202  34.362   1.120  0.00  0.00    -0.506 OA
ATOM     15  H   UNL     1     116.141  33.954   1.353  0.00  0.00    +0.292 HD
ENDBRANCH  13  14
BRANCH   6  17
ATOM     17  O   UNL     1     116.995  37.769  -3.695  0.00  0.00    -0.505 OA
ATOM     18  H   UNL     1     116.780  38.796  -3.721  0.00  0.00    +0.292 HD
ENDBRANCH   6  17
BRANCH  19  20
ATOM     20  O   UNL     1     119.121  39.568  -3.090  0.00  0.00    -0.506 OA
ATOM     21  H   UNL     1     118.940  40.601  -3.039  0.00  0.00    +0.292 HD
ENDBRANCH  19  20
BRANCH  23  24
ATOM     24  O   UNL     1     117.148  36.003   1.657  0.00  0.00    -0.505 OA
ATOM     25  H   UNL     1     118.096  35.608   1.877  0.00  0.00    +0.292 HD
ENDBRANCH  23  24
TORSDOF 6
