REMARK  Name = R96
REMARK  7 active torsions:
REMARK  status: ('A' for Active; 'I' for Inactive)
REMARK    1  A    between atoms: C21_2  and  C14_3
REMARK    2  A    between atoms: N23_9  and  C31_10
REMARK    3  A    between atoms: C37_16  and  N41_17
REMARK    4  A    between atoms: C42_18  and  C51_20
REMARK    5  A    between atoms: C54_25  and  C61_26
REMARK    6  A    between atoms: C61_26  and  C71_28
REMARK    7  A    between atoms: C75_34  and  N91_35
REMARK                            x       y       z     vdW  Elec       q    Type
REMARK                         _______ _______ _______ _____ _____    ______ ____
ROOT
ATOM     14  C   UNL     1      12.645  12.050   0.957  0.00  0.00    +0.055 A 
ATOM     15  C   UNL     1      12.949  13.401   0.704  0.00  0.00    +0.005 A 
ATOM     16  C   UNL     1      13.765  13.743  -0.373  0.00  0.00    +0.003 A 
ATOM     17  C   UNL     1      14.249  12.718  -1.204  0.00  0.00    +0.039 A 
ATOM     18  C   UNL     1      13.949  11.380  -0.936  0.00  0.00    +0.003 A 
ATOM     36  C   UNL     1      13.145  11.040   0.140  0.00  0.00    +0.005 A 
ENDROOT
BRANCH  14  12
ATOM     11  N   UNL     1      11.113  10.501   2.076  0.00  0.00    -0.202 NA
ATOM     12  C   UNL     1      11.829  11.694   2.096  0.00  0.00    +0.265 C 
ATOM     13  O   UNL     1      11.792  12.413   3.099  0.00  0.00    -0.268 OA
BRANCH  11  10
ATOM      4  C   UNL     1       9.562   8.777   2.998  0.00  0.00    +0.133 C 
ATOM      5  C   UNL     1       9.856   7.343   3.436  0.00  0.00    +0.112 C 
ATOM      6  N   UNL     1      11.132   6.861   2.881  0.00  0.00    -0.216 NA
ATOM      7  C   UNL     1      12.237   7.040   3.821  0.00  0.00    +0.089 C 
ATOM      8  C   UNL     1      12.803   8.472   3.734  0.00  0.00    +0.021 C 
ATOM      9  C   UNL     1      11.799   9.499   4.298  0.00  0.00    +0.025 C 
ATOM     10  C   UNL     1      10.627   9.885   3.341  0.00  0.00    +0.117 C 
BRANCH   4   3
ATOM      1  O   UNL     1       7.255   9.220   1.599  0.00  0.00    -0.268 OA
ATOM      2  C   UNL     1       7.114   9.249   2.815  0.00  0.00    +0.265 C 
ATOM      3  N   UNL     1       8.253   9.115   3.591  0.00  0.00    -0.200 NA
BRANCH   2  37
ATOM     37  C   UNL     1       5.816   9.415   3.471  0.00  0.00    +0.058 A 
ATOM     38  C   UNL     1       5.665   9.359   4.864  0.00  0.00    +0.025 A 
ATOM     39  C   UNL     1       4.413   9.514   5.443  0.00  0.00    +0.099 A 
ATOM     40  N   UNL     1       3.340   9.713   4.670  0.00  0.00    -0.242 NA
ATOM     41  C   UNL     1       3.428   9.747   3.342  0.00  0.00    +0.099 A 
ATOM     42  C   UNL     1       4.664   9.622   2.713  0.00  0.00    +0.025 A 
ENDBRANCH   2  37
ENDBRANCH   4   3
ENDBRANCH  11  10
ENDBRANCH  14  12
BRANCH  17  19
ATOM     19  C   UNL     1      15.122  13.033  -2.333  0.00  0.00    +0.199 C 
ATOM     20  O   UNL     1      15.839  14.052  -2.233  0.00  0.00    -0.286 OA
BRANCH  19  21
ATOM     21  C   UNL     1      15.326  12.195  -3.521  0.00  0.00    +0.079 A 
ATOM     22  C   UNL     1      16.627  11.682  -3.608  0.00  0.00    +0.021 A 
ATOM     23  C   UNL     1      17.036  10.889  -4.698  0.00  0.00    +0.048 A 
ATOM     32  C   UNL     1      16.104  10.587  -5.706  0.00  0.00    +0.018 A 
ATOM     33  C   UNL     1      14.805  11.092  -5.629  0.00  0.00    +0.043 A 
ATOM     34  C   UNL     1      14.409  11.877  -4.553  0.00  0.00    +0.199 A 
ATOM     35  O   UNL     1      13.108  12.259  -4.598  0.00  0.00    -0.286 OA
BRANCH  23  24
ATOM     24  N   UNL     1      18.384  10.386  -4.775  0.00  0.00    -0.308 N 
ATOM     25  C   UNL     1      19.343  10.634  -3.640  0.00  0.00    +0.091 C 
ATOM     26  C   UNL     1      20.766  10.042  -3.780  0.00  0.00    +0.018 C 
ATOM     27  C   UNL     1      21.794  10.666  -2.803  0.00  0.00    +0.002 C 
ATOM     28  C   UNL     1      20.698   8.548  -3.432  0.00  0.00    +0.002 C 
ATOM     29  C   UNL     1      21.294  10.333  -5.188  0.00  0.00    +0.003 C 
ATOM     30  C   UNL     1      20.413   9.622  -6.218  0.00  0.00    +0.021 C 
ATOM     31  C   UNL     1      18.892   9.913  -6.097  0.00  0.00    +0.091 C 
ENDBRANCH  23  24
ENDBRANCH  19  21
ENDBRANCH  17  19
TORSDOF 7
