REMARK  Name = 3kce_ligand
REMARK  2 active torsions:
REMARK  status: ('A' for Active; 'I' for Inactive)
REMARK    1  A    between atoms: C1_1  and  C6_6
REMARK    2  A    between atoms: C11_11  and  C13_13
REMARK                            x       y       z     vdW  Elec       q    Type
REMARK                         _______ _______ _______ _____ _____    ______ ____
ROOT
ATOM      1  CA  UNL     1       4.657  44.526  11.576  0.00  0.00    +0.091 A 
ATOM      5  C   UNL     1       5.086  44.021  12.738  0.00  0.00    -0.015 A 
ATOM      6  C   UNL     1       5.010  42.688  12.628  0.00  0.00    -0.029 A 
ATOM      7  C   UNL     1       5.323  41.645  13.502  0.00  0.00    -0.026 A 
ATOM      8  C   UNL     1       5.147  40.308  13.101  0.00  0.00    -0.062 A 
ATOM      9  C   UNL     1       5.480  39.164  14.068  0.00  0.00    +0.074 C 
ATOM     10  C   UNL     1       4.668  40.018  11.821  0.00  0.00    -0.022 A 
ATOM     11  C   UNL     1       4.365  41.064  10.947  0.00  0.00    +0.008 A 
ATOM     12  C   UNL     1       4.522  42.391  11.348  0.00  0.00    +0.060 A 
ATOM     13  N   UNL     1       4.307  43.555  10.723  0.00  0.00    -0.273 N 
ATOM     14  H   UNL     1       3.942  43.680   9.768  0.00  0.00    +0.225 HD
ENDROOT
BRANCH   1   2
ATOM      2  C   UNL     1       4.549  46.004  11.233  0.00  0.00    +0.087 C 
ATOM      3  OXT UNL     1       5.026  46.850  12.029  0.00  0.00    -0.559 OA
ATOM      4  O   UNL     1       3.974  46.284  10.150  0.00  0.00    -0.559 OA
ENDBRANCH   1   2
TORSDOF 1
