REMARK  Name = 4REW
REMARK  5 active torsions:
REMARK  status: ('A' for Active; 'I' for Inactive)
REMARK    1  A    between atoms: C_4  and  N_34
REMARK    2  A    between atoms: C_5  and  O_32
REMARK    3  A    between atoms: C_6  and  C_7
REMARK    4  A    between atoms: O_32  and  C_33
REMARK    5  A    between atoms: N_34  and  C_35
REMARK                            x       y       z     vdW  Elec       q    Type
REMARK                         _______ _______ _______ _____ _____    ______ ____
ROOT
ATOM      1  O   UNL     1      66.257 -57.739  27.855  0.00  0.00    -0.328 OA
ATOM      2  C   UNL     1      65.902 -56.458  27.443  0.00  0.00    +0.174 C 
ATOM      3  N   UNL     1      64.573 -56.393  26.789  0.00  0.00    -0.307 N 
ATOM      4  C   UNL     1      63.625 -55.370  26.780  0.00  0.00    +0.053 A 
ATOM      5  C   UNL     1      63.603 -54.082  27.331  0.00  0.00    +0.026 A 
ATOM      6  C   UNL     1      62.483 -53.293  27.135  0.00  0.00    +0.002 A 
ATOM      7  C   UNL     1      61.395 -53.729  26.408  0.00  0.00    +0.001 A 
ATOM      8  C   UNL     1      61.376 -54.989  25.845  0.00  0.00    +0.010 A 
ATOM      9  C   UNL     1      62.496 -55.797  26.039  0.00  0.00    +0.008 A 
ATOM     10  C   UNL     1      62.771 -57.151  25.578  0.00  0.00    +0.015 A 
ATOM     11  C   UNL     1      62.056 -58.074  24.822  0.00  0.00    -0.008 A 
ATOM     12  C   UNL     1      60.694 -58.023  24.174  0.00  0.00    +0.141 C 
ATOM     13  N   UNL     1      60.505 -59.318  23.511  0.00  0.00    -0.307 N 
ATOM     14  H   UNL     1      59.641 -59.615  22.954  0.00  0.00    +0.149 HD
ATOM     15  C   UNL     1      61.600 -60.069  23.721  0.00  0.00    +0.245 C 
ATOM     16  O   UNL     1      61.749 -61.199  23.296  0.00  0.00    -0.270 OA
ATOM     17  C   UNL     1      62.585 -59.328  24.532  0.00  0.00    +0.052 A 
ATOM     18  C   UNL     1      63.874 -59.664  25.015  0.00  0.00    +0.022 A 
ATOM     19  C   UNL     1      64.731 -60.845  24.916  0.00  0.00    +0.009 A 
ATOM     20  C   UNL     1      64.557 -62.078  24.286  0.00  0.00    +0.010 A 
ATOM     21  C   UNL     1      65.594 -62.991  24.392  0.00  0.00    +0.001 A 
ATOM     22  C   UNL     1      66.754 -62.702  25.089  0.00  0.00    +0.002 A 
ATOM     23  C   UNL     1      66.946 -61.485  25.720  0.00  0.00    +0.026 A 
ATOM     24  C   UNL     1      65.917 -60.549  25.626  0.00  0.00    +0.052 A 
ATOM     25  N   UNL     1      65.787 -59.258  26.125  0.00  0.00    -0.312 N 
ATOM     26  C   UNL     1      64.591 -58.732  25.775  0.00  0.00    +0.077 A 
ATOM     27  C   UNL     1      64.047 -57.469  26.066  0.00  0.00    +0.077 A 
ATOM     28  C   UNL     1      65.802 -55.832  28.826  0.00  0.00    +0.069 C 
ATOM     29  C   UNL     1      67.043 -55.708  26.782  0.00  0.00    +0.187 C 
ATOM     32  C   UNL     1      67.518 -56.522  25.570  0.00  0.00    +0.091 C 
ATOM     36  C   UNL     1      67.888 -57.943  26.043  0.00  0.00    +0.076 C 
ATOM     37  C   UNL     1      66.811 -58.591  26.914  0.00  0.00    +0.224 C 
ENDROOT
BRANCH  32  33
ATOM     33  N   UNL     1      66.461 -56.570  24.552  0.00  0.00    -0.314 NA
ATOM     34  H   UNL     1      65.575 -56.097  24.921  0.00  0.00    +0.122 HD
ATOM     35  C   UNL     1      66.962 -55.852  23.375  0.00  0.00    +0.101 C 
ENDBRANCH  32  33
BRANCH  29  30
ATOM     30  O   UNL     1      66.622 -54.403  26.374  0.00  0.00    -0.374 OA
ATOM     31  C   UNL     1      67.699 -53.514  26.685  0.00  0.00    +0.194 C 
ENDBRANCH  29  30
TORSDOF 2
