REMARK  Name = 4XMO
REMARK  7 active torsions:
REMARK  status: ('A' for Active; 'I' for Inactive)
REMARK    1  A    between atoms: C_1  and  C_2
REMARK    2  A    between atoms: C_6  and  C_7
REMARK    3  A    between atoms: C_16  and  C_17
REMARK    4  A    between atoms: C_17  and  C_18
REMARK    5  A    between atoms: C_17  and  C_20
REMARK    6  A    between atoms: C_24  and  O_25
REMARK    7  A    between atoms: O_25  and  C_26
REMARK                            x       y       z     vdW  Elec       q    Type
REMARK                         _______ _______ _______ _____ _____    ______ ____
ROOT
ATOM      6  C   UNL     1      24.237  30.136  58.330  0.00  0.00    +0.039 A 
ATOM      7  C   UNL     1      23.349  30.598  57.350  0.00  0.00    +0.106 A 
ATOM      8  N   UNL     1      22.366  29.725  56.880  0.00  0.00    -0.281 N 
ATOM      9  C   UNL     1      21.345  29.832  55.966  0.00  0.00    +0.179 A 
ATOM     25  N   UNL     1      20.707  28.672  55.894  0.00  0.00    -0.130 NA
ATOM     26  N   UNL     1      21.243  27.856  56.683  0.00  0.00    -0.126 NA
ATOM     27  C   UNL     1      22.266  28.416  57.324  0.00  0.00    +0.197 A 
ATOM     28  C   UNL     1      23.163  27.968  58.288  0.00  0.00    +0.169 A 
ATOM     29  F   UNL     1      23.076  26.702  58.728  0.00  0.00    -0.202 F 
ATOM     30  C   UNL     1      24.148  28.819  58.773  0.00  0.00    +0.055 A 
ENDROOT
BRANCH   6   5
ATOM      1  C   UNL     1      28.266  32.070  60.449  0.00  0.00    +0.069 C 
ATOM      2  C   UNL     1      27.026  31.842  59.604  0.00  0.00    +0.081 A 
ATOM      3  N   UNL     1      26.563  32.745  58.755  0.00  0.00    -0.083 NA
ATOM      4  O   UNL     1      25.418  32.193  58.187  0.00  0.00    -0.354 OA
ATOM      5  C   UNL     1      25.257  30.968  58.764  0.00  0.00    +0.169 A 
ATOM     31  C   UNL     1      26.265  30.742  59.618  0.00  0.00    +0.075 A 
ENDBRANCH   6   5
BRANCH   9  10
ATOM     10  C   UNL     1      21.047  31.109  55.202  0.00  0.00    +0.193 C 
ATOM     23  F   UNL     1      22.207  31.675  54.909  0.00  0.00    -0.229 F 
ATOM     24  C   UNL     1      20.206  30.761  53.950  0.00  0.00    +0.061 C 
BRANCH  10  11
ATOM     11  C   UNL     1      20.256  32.038  56.145  0.00  0.00    -0.003 A 
ATOM     12  C   UNL     1      18.958  31.672  56.520  0.00  0.00    +0.009 A 
ATOM     13  C   UNL     1      18.220  32.486  57.374  0.00  0.00    +0.028 A 
ATOM     14  C   UNL     1      18.770  33.668  57.845  0.00  0.00    +0.071 A 
ATOM     15  N   UNL     1      18.036  34.435  58.666  0.00  0.00    -0.251 NA
ATOM     16  C   UNL     1      18.522  35.562  59.152  0.00  0.00    +0.157 A 
ATOM     17  C   UNL     1      19.800  36.004  58.841  0.00  0.00    +0.139 A 
ATOM     20  C   UNL     1      20.599  35.233  57.982  0.00  0.00    +0.057 A 
ATOM     21  C   UNL     1      20.071  34.041  57.486  0.00  0.00    +0.004 A 
ATOM     22  C   UNL     1      20.814  33.219  56.626  0.00  0.00    +0.017 A 
BRANCH  17  18
ATOM     18  O   UNL     1      20.189  37.191  59.396  0.00  0.00    -0.494 OA
ATOM     19  C   UNL     1      21.607  37.339  59.611  0.00  0.00    +0.277 C 
ENDBRANCH  17  18
ENDBRANCH  10  11
ENDBRANCH   9  10
TORSDOF 4
