REMARK  Name = 5CYI
REMARK  7 active torsions:
REMARK  status: ('A' for Active; 'I' for Inactive)
REMARK    1  A    between atoms: C_3  and  N_24
REMARK    2  A    between atoms: C_5  and  C_10
REMARK    3  A    between atoms: C_5  and  O_26
REMARK    4  A    between atoms: C_9  and  O_26
REMARK    5  A    between atoms: S_17  and  C_19
REMARK    6  A    between atoms: S_17  and  C_21
REMARK    7  A    between atoms: C_19  and  C_20
REMARK                            x       y       z     vdW  Elec       q    Type
REMARK                         _______ _______ _______ _____ _____    ______ ____
ROOT
ATOM     12  N   UNL     1       7.541  43.099  49.059  0.00  0.00    -0.283 N 
ATOM     13  H   UNL     1       8.300  42.844  48.349  0.00  0.00    +0.155 HD
ATOM     14  C   UNL     1       7.859  44.073  49.921  0.00  0.00    +0.225 A 
ATOM     15  N   UNL     1       6.877  44.726  50.572  0.00  0.00    -0.177 NA
ATOM     16  C   UNL     1       7.199  45.669  51.447  0.00  0.00    +0.246 A 
ATOM     25  C   UNL     1       8.533  45.996  51.658  0.00  0.00    +0.147 A 
ATOM     26  N   UNL     1       9.159  46.889  52.430  0.00  0.00    -0.339 N 
ATOM     27  H   UNL     1       8.714  47.583  53.112  0.00  0.00    +0.167 HD
ATOM     28  C   UNL     1      10.442  46.733  52.172  0.00  0.00    +0.199 A 
ATOM     29  N   UNL     1      10.667  45.746  51.289  0.00  0.00    -0.216 NA
ATOM     30  C   UNL     1       9.466  45.276  50.933  0.00  0.00    +0.186 A 
ATOM     31  N   UNL     1       9.176  44.291  50.076  0.00  0.00    -0.193 NA
ENDROOT
BRANCH  12  11
ATOM      1  C   UNL     1       5.913  41.783  47.741  0.00  0.00    +0.025 A 
ATOM      2  C   UNL     1       4.727  41.075  47.659  0.00  0.00    +0.029 A 
ATOM      3  C   UNL     1       3.931  40.928  48.784  0.00  0.00    +0.088 A 
ATOM      4  C   UNL     1       4.318  41.479  49.995  0.00  0.00    +0.029 A 
ATOM      5  C   UNL     1       5.499  42.185  50.086  0.00  0.00    +0.025 A 
ATOM     11  C   UNL     1       6.311  42.345  48.957  0.00  0.00    +0.034 A 
BRANCH   3   6
ATOM      6  S   UNL     1       2.427  39.997  48.693  0.00  0.00    -0.003 S 
ATOM      9  O   UNL     1       2.380  39.334  47.416  0.00  0.00    -0.169 OA
ATOM     10  O   UNL     1       2.324  39.197  49.885  0.00  0.00    -0.169 OA
BRANCH   6   7
ATOM      7  C   UNL     1       1.151  41.239  48.738  0.00  0.00    +0.168 C 
ATOM      8  C   UNL     1      -0.029  40.973  49.631  0.00  0.00    +0.028 C 
ENDBRANCH   6   7
ENDBRANCH   3   6
ENDBRANCH  12  11
BRANCH  16  17
ATOM     17  O   UNL     1       6.235  46.386  52.135  0.00  0.00    -0.475 OA
BRANCH  17  18
ATOM     18  C   UNL     1       4.856  46.126  51.789  0.00  0.00    +0.234 C 
BRANCH  18  19
ATOM     19  C   UNL     1       3.981  46.414  52.973  0.00  0.00    +0.027 C 
ATOM     20  C   UNL     1       4.532  45.772  54.244  0.00  0.00    +0.007 C 
ATOM     21  C   UNL     1       3.612  46.000  55.434  0.00  0.00    +0.000 C 
ATOM     22  C   UNL     1       2.208  45.488  55.144  0.00  0.00    +0.000 C 
ATOM     23  C   UNL     1       1.637  46.144  53.905  0.00  0.00    +0.000 C 
ATOM     24  C   UNL     1       2.551  45.935  52.696  0.00  0.00    +0.007 C 
ENDBRANCH  18  19
ENDBRANCH  17  18
ENDBRANCH  16  17
TORSDOF 6
