REMARK  Name = EO1
REMARK  1 active torsions:
REMARK  status: ('A' for Active; 'I' for Inactive)
REMARK    1  A    between atoms: C4_2  and  O_19
REMARK                            x       y       z     vdW  Elec       q    Type
REMARK                         _______ _______ _______ _____ _____    ______ ____
ROOT
ATOM      1  C   UNL     1      16.766  -5.325   7.037  0.00  0.00    +0.041 A 
ATOM      2  C   UNL     1      17.060  -5.901   8.297  0.00  0.00    +0.139 A 
ATOM      3  C   UNL     1      18.180  -5.511   9.025  0.00  0.00    +0.037 A 
ATOM      4  C   UNL     1      19.039  -4.534   8.526  0.00  0.00    +0.047 A 
ATOM      5  C   UNL     1      20.291  -3.938   8.973  0.00  0.00    +0.247 C 
ATOM      6  C   UNL     1      21.214  -4.067  10.053  0.00  0.00    +0.363 C 
ATOM      7  N   UNL     1      20.974  -4.851  11.188  0.00  0.00    +0.013 NA
ATOM      8  C   UNL     1      19.946  -5.361  11.910  0.00  0.00    +0.284 A 
ATOM      9  N   UNL     1      19.906  -6.626  12.447  0.00  0.00    -0.125 NA
ATOM     10  N   UNL     1      18.642  -6.833  12.987  0.00  0.00    -0.246 N 
ATOM     11  C   UNL     1      18.268  -8.116  13.570  0.00  0.00    +0.154 C 
ATOM     12  C   UNL     1      17.809  -5.718  12.864  0.00  0.00    +0.083 A 
ATOM     13  C   UNL     1      16.532  -5.386  13.310  0.00  0.00    +0.019 A 
ATOM     14  C   UNL     1      16.050  -4.111  13.054  0.00  0.00    +0.002 A 
ATOM     15  C   UNL     1      16.816  -3.194  12.351  0.00  0.00    +0.000 A 
ATOM     16  C   UNL     1      18.085  -3.531  11.901  0.00  0.00    +0.007 A 
ATOM     17  C   UNL     1      18.609  -4.794  12.169  0.00  0.00    +0.079 A 
ATOM     18  N   UNL     1      22.363  -3.369  10.017  0.00  0.00    +0.002 NA
ATOM     19  C   UNL     1      22.640  -2.553   8.992  0.00  0.00    +0.360 C 
ATOM     20  C   UNL     1      23.935  -1.807   9.043  0.00  0.00    +0.137 C 
ATOM     21  N   UNL     1      21.856  -2.346   7.927  0.00  0.00    +0.004 NA
ATOM     22  C   UNL     1      20.704  -3.041   7.936  0.00  0.00    +0.371 C 
ATOM     23  N   UNL     1      19.758  -3.074   6.934  0.00  0.00    -0.038 NA
ATOM     24  C   UNL     1      18.759  -3.969   7.267  0.00  0.00    +0.191 A 
ATOM     27  C   UNL     1      17.653  -4.359   6.531  0.00  0.00    +0.049 A 
ENDROOT
BRANCH   2  25
ATOM     25  O   UNL     1      16.180  -6.851   8.742  0.00  0.00    -0.471 OA
ATOM     26  C   UNL     1      16.584  -7.687   9.827  0.00  0.00    +0.253 C 
ENDBRANCH   2  25
TORSDOF 1
