REMARK  Name = 4U42
REMARK  3 active torsions:
REMARK  status: ('A' for Active; 'I' for Inactive)
REMARK    1  A    between atoms: C_1  and  N_13
REMARK    2  A    between atoms: C_3  and  C_4
REMARK    3  A    between atoms: C_9  and  C_10
REMARK                            x       y       z     vdW  Elec       q    Type
REMARK                         _______ _______ _______ _____ _____    ______ ____
ROOT
ATOM     14  N   UNL     1     -18.173   7.439 -29.405  0.00  0.00    -0.315 N 
ATOM     15  C   UNL     1     -18.808   7.959 -30.618  0.00  0.00    +0.116 C 
ATOM     16  C   UNL     1     -20.053   8.788 -30.342  0.00  0.00    +0.052 C 
ATOM     17  C   UNL     1     -20.990   7.998 -29.431  0.00  0.00    +0.012 C 
ATOM     18  C   UNL     1     -20.258   7.951 -28.096  0.00  0.00    +0.020 C 
ATOM     27  C   UNL     1     -19.064   7.032 -28.301  0.00  0.00    +0.106 C 
ENDROOT
BRANCH  14   1
ATOM      1  C   UNL     1     -17.438   6.325 -29.776  0.00  0.00    +0.122 A 
ATOM      2  N   UNL     1     -16.696   6.367 -30.862  0.00  0.00    -0.227 NA
ATOM      3  C   UNL     1     -15.970   5.314 -31.248  0.00  0.00    +0.131 A 
ATOM      4  C   UNL     1     -15.154   5.350 -32.404  0.00  0.00    +0.146 A 
ATOM      5  N   UNL     1     -15.094   6.498 -33.161  0.00  0.00    -0.341 N 
ATOM      6  H   UNL     1     -14.479   6.531 -34.036  0.00  0.00    +0.144 HD
ATOM      7  H   UNL     1     -15.663   7.358 -32.875  0.00  0.00    +0.144 HD
ATOM      8  N   UNL     1     -14.449   4.274 -32.726  0.00  0.00    -0.219 NA
ATOM      9  C   UNL     1     -14.507   3.176 -31.994  0.00  0.00    +0.224 A 
ATOM     10  N   UNL     1     -15.249   3.075 -30.911  0.00  0.00    -0.234 NA
ATOM     11  C   UNL     1     -15.993   4.116 -30.498  0.00  0.00    +0.094 A 
ATOM     12  C   UNL     1     -16.801   4.064 -29.342  0.00  0.00    +0.033 A 
ATOM     13  C   UNL     1     -17.515   5.171 -28.989  0.00  0.00    +0.046 A 
ENDBRANCH  14   1
BRANCH  16  19
ATOM     19  C   UNL     1     -20.716   9.172 -31.647  0.00  0.00    +0.024 C 
ATOM     20  N   UNL     1     -21.261  10.342 -31.871  0.00  0.00    -0.284 N 
ATOM     21  H   UNL     1     -21.310  11.151 -31.173  0.00  0.00    +0.166 HD
ATOM     22  N   UNL     1     -21.769  10.358 -33.175  0.00  0.00    -0.239 NA
ATOM     23  H   UNL     1     -22.228  11.098 -33.601  0.00  0.00    +0.144 HD
ATOM     24  C   UNL     1     -21.500   9.158 -33.734  0.00  0.00    +0.134 C 
ATOM     25  C   UNL     1     -20.849   8.404 -32.817  0.00  0.00    -0.039 C 
ATOM     26  C   UNL     1     -20.377   6.995 -33.056  0.00  0.00    +0.042 C 
ENDBRANCH  16  19
TORSDOF 2
