REMARK  Name = 4E8A
REMARK  15 active torsions:
REMARK  status: ('A' for Active; 'I' for Inactive)
REMARK    1  A    between atoms: P_2  and  O_4
REMARK    2  A    between atoms: P_2  and  O_13
REMARK    3  A    between atoms: O_4  and  C_5
REMARK    4  A    between atoms: C_5  and  C_6
REMARK    5  A    between atoms: C_6  and  O_7
REMARK    6  A    between atoms: C_6  and  C_9
REMARK    7  A    between atoms: O_7  and  C_8
REMARK    8  A    between atoms: C_9  and  O_10
REMARK    9  A    between atoms: O_10  and  C_11
REMARK   10  A    between atoms: C_11  and  C_12
REMARK   11  A    between atoms: O_13  and  C_14
REMARK   12  A    between atoms: C_15  and  O_16
REMARK   13  A    between atoms: C_17  and  O_18
REMARK   14  A    between atoms: C_19  and  O_23
REMARK   15  A    between atoms: C_21  and  O_22
REMARK                            x       y       z     vdW  Elec       q    Type
REMARK                         _______ _______ _______ _____ _____    ______ ____
ROOT
ATOM      4  C   UNL     1      -1.232   5.584 -38.740  0.00  0.00    +0.185 C 
ATOM      5  C   UNL     1      -1.686   4.705 -39.903  0.00  0.00    +0.149 C 
ATOM      8  C   UNL     1      -0.588   4.344 -40.908  0.00  0.00    +0.068 C 
ATOM      9  C   UNL     1       0.569   5.339 -40.959  0.00  0.00    +0.148 C 
ATOM     12  C   UNL     1       1.061   5.408 -39.559  0.00  0.00    +0.174 C 
ATOM     15  C   UNL     1       0.045   6.371 -39.011  0.00  0.00    +0.177 C 
ENDROOT
BRANCH   5   6
ATOM      6  O   UNL     1      -2.752   5.354 -40.591  0.00  0.00    -0.389 OA
ATOM      7  H   UNL     1      -3.554   5.507 -39.931  0.00  0.00    +0.210 HD
ENDBRANCH   5   6
BRANCH   9  10
ATOM     10  O   UNL     1       1.660   4.951 -41.797  0.00  0.00    -0.389 OA
ATOM     11  H   UNL     1       2.430   5.660 -41.720  0.00  0.00    +0.210 HD
ENDBRANCH   9  10
BRANCH  12  13
ATOM     13  O   UNL     1       2.400   5.905 -39.514  0.00  0.00    -0.387 OA
ATOM     14  H   UNL     1       2.466   6.787 -40.080  0.00  0.00    +0.210 HD
ENDBRANCH  12  13
BRANCH  15  16
ATOM     16  O   UNL     1       0.561   7.002 -37.848  0.00  0.00    -0.387 OA
ATOM     17  H   UNL     1      -0.153   7.671 -37.467  0.00  0.00    +0.210 HD
ENDBRANCH  15  16
BRANCH   4   3
ATOM      3  O   UNL     1      -2.326   6.322 -38.260  0.00  0.00    -0.319 OA
BRANCH   3   2
ATOM      1  O   UNL     1      -3.481   4.180 -38.880  0.00  0.00    -0.437 OA
ATOM      2  P   UNL     1      -3.734   5.671 -38.659  0.00  0.00    +0.213 P 
ATOM     27  O   UNL     1      -4.400   6.503 -39.729  0.00  0.00    -0.517 OA
BRANCH   2  18
ATOM     18  O   UNL     1      -4.578   5.808 -37.279  0.00  0.00    -0.325 OA
BRANCH  18  19
ATOM     19  C   UNL     1      -5.118   4.648 -36.649  0.00  0.00    +0.201 C 
BRANCH  19  20
ATOM     20  C   UNL     1      -5.176   5.022 -35.112  0.00  0.00    +0.169 C 
BRANCH  20  25
ATOM     25  O   UNL     1      -5.367   3.781 -34.430  0.00  0.00    -0.375 OA
ATOM     26  C   UNL     1      -5.819   3.981 -33.081  0.00  0.00    +0.194 C 
ENDBRANCH  20  25
BRANCH  20  21
ATOM     21  C   UNL     1      -6.388   5.877 -34.821  0.00  0.00    +0.193 C 
BRANCH  21  22
ATOM     22  O   UNL     1      -7.433   4.967 -34.473  0.00  0.00    -0.377 OA
BRANCH  22  23
ATOM     23  C   UNL     1      -7.321   4.462 -33.142  0.00  0.00    +0.156 C 
ATOM     24  C   UNL     1      -7.341   2.950 -33.209  0.00  0.00    +0.034 C 
ENDBRANCH  22  23
ENDBRANCH  21  22
ENDBRANCH  20  21
ENDBRANCH  19  20
ENDBRANCH  18  19
ENDBRANCH   2  18
ENDBRANCH   3   2
ENDBRANCH   4   3
TORSDOF 13
