REMARK  Name = 3fqs_ligand
REMARK  10 active torsions:
REMARK  status: ('A' for Active; 'I' for Inactive)
REMARK    1  A    between atoms: C9_9  and  C30_30
REMARK    2  A    between atoms: C9_9  and  C31_31
REMARK    3  A    between atoms: N10_10  and  C14_14
REMARK    4  A    between atoms: C12_12  and  O27_27
REMARK    5  A    between atoms: C15_15  and  O29_29
REMARK    6  A    between atoms: C16_16  and  O28_28
REMARK    7  A    between atoms: C18_18  and  N21_21
REMARK    8  A    between atoms: O27_27  and  C32_32
REMARK    9  A    between atoms: O28_28  and  C33_33
REMARK   10  A    between atoms: O29_29  and  C34_34
REMARK                            x       y       z     vdW  Elec       q    Type
REMARK                         _______ _______ _______ _____ _____    ______ ____
ROOT
ATOM     13  N   UNL     1       4.031   1.590  13.024  0.00  0.00    -0.250 N 
ATOM     14  H   UNL     1       4.972   1.948  12.809  0.00  0.00    +0.216 HD
ATOM     15  C   UNL     1       3.915   0.792  14.153  0.00  0.00    +0.170 A 
ATOM     16  C   UNL     1       5.051   0.601  14.935  0.00  0.00    +0.190 A 
ATOM     17  F   UNL     1       6.200   1.205  14.585  0.00  0.00    -0.186 F 
ATOM     18  C   UNL     1       4.952  -0.176  16.080  0.00  0.00    +0.117 A 
ATOM     19  N   UNL     1       3.779  -0.723  16.382  0.00  0.00    -0.272 NA
ATOM     20  C   UNL     1       2.712  -0.529  15.623  0.00  0.00    +0.189 A 
ATOM     21  N   UNL     1       1.519  -1.125  16.004  0.00  0.00    -0.257 N 
ATOM     22  H   UNL     1       1.561  -1.823  16.761  0.00  0.00    +0.214 HD
ATOM     35  N   UNL     1       2.778   0.208  14.522  0.00  0.00    -0.237 NA
ENDROOT
BRANCH  13  12
ATOM      1  N   UNL     1       2.323   4.880  10.175  0.00  0.00    -0.220 N 
ATOM      2  H   UNL     1       3.186   5.381  10.249  0.00  0.00    +0.230 HD
ATOM      3  C   UNL     1       1.254   5.428   9.541  0.00  0.00    +0.258 C 
ATOM      4  O   UNL     1       1.349   6.543   9.075  0.00  0.00    -0.332 OA
ATOM      5  C   UNL     1      -0.044   4.650   9.432  0.00  0.00    +0.166 C 
ATOM      6  C   UNL     1      -0.699   4.968   8.080  0.00  0.00    +0.049 C 
ATOM      7  C   UNL     1      -1.006   5.079  10.548  0.00  0.00    +0.049 C 
ATOM      8  O   UNL     1       0.151   3.233   9.482  0.00  0.00    -0.312 OA
ATOM      9  C   UNL     1       1.094   2.804  10.367  0.00  0.00    +0.128 A 
ATOM     10  C   UNL     1       0.971   1.531  10.926  0.00  0.00    +0.021 A 
ATOM     11  C   UNL     1       1.944   1.107  11.824  0.00  0.00    +0.012 A 
ATOM     12  C   UNL     1       3.006   1.960  12.147  0.00  0.00    +0.107 A 
ATOM     36  N   UNL     1       3.091   3.162  11.589  0.00  0.00    -0.276 NA
ATOM     37  C   UNL     1       2.190   3.596  10.724  0.00  0.00    +0.159 A 
ENDBRANCH  13  12
BRANCH  21  23
ATOM     23  C   UNL     1       0.254  -0.856  15.442  0.00  0.00    +0.037 A 
ATOM     24  C   UNL     1      -0.075   0.344  14.785  0.00  0.00    +0.006 A 
ATOM     25  C   UNL     1      -1.366   0.531  14.254  0.00  0.00    +0.102 A 
ATOM     28  C   UNL     1      -2.327  -0.488  14.385  0.00  0.00    +0.135 A 
ATOM     31  C   UNL     1      -2.003  -1.681  15.059  0.00  0.00    +0.102 A 
ATOM     34  C   UNL     1      -0.718  -1.851  15.575  0.00  0.00    +0.006 A 
BRANCH  25  26
ATOM     26  O   UNL     1      -1.742   1.672  13.591  0.00  0.00    -0.331 OA
ATOM     27  C   UNL     1      -0.719   2.682  13.616  0.00  0.00    +0.228 C 
ENDBRANCH  25  26
BRANCH  28  29
ATOM     29  O   UNL     1      -3.594  -0.290  13.897  0.00  0.00    -0.337 OA
ATOM     30  C   UNL     1      -3.782  -0.805  12.577  0.00  0.00    +0.221 C 
ENDBRANCH  28  29
BRANCH  31  32
ATOM     32  O   UNL     1      -2.952  -2.665  15.194  0.00  0.00    -0.331 OA
ATOM     33  C   UNL     1      -2.402  -3.806  15.871  0.00  0.00    +0.228 C 
ENDBRANCH  31  32
ENDBRANCH  21  23
TORSDOF 5
