REMARK  Name = 1tvo_ligand
REMARK  2 active torsions:
REMARK  status: ('A' for Active; 'I' for Inactive)
REMARK    1  A    between atoms: C8_8  and  C11_11
REMARK    2  A    between atoms: C9_9  and  C10_10
REMARK                            x       y       z     vdW  Elec       q    Type
REMARK                         _______ _______ _______ _____ _____    ______ ____
ROOT
ATOM      1  C   UNL     1      11.504  -5.724  14.446  0.00  0.00    +0.009 A 
ATOM      2  C   UNL     1      10.402  -5.857  13.496  0.00  0.00    -0.003 A 
ATOM      3  C   UNL     1       9.018  -5.561  13.853  0.00  0.00    +0.014 A 
ATOM      4  C   UNL     1       8.711  -5.128  15.210  0.00  0.00    +0.049 A 
ATOM      5  C   UNL     1       7.501  -4.836  15.962  0.00  0.00    +0.061 A 
ATOM     19  C   UNL     1       7.941  -4.520  17.318  0.00  0.00    +0.120 A 
ATOM     26  N   UNL     1       9.348  -4.591  17.425  0.00  0.00    -0.203 N 
ATOM     27  H   UNL     1       9.925  -4.404  18.257  0.00  0.00    +0.259 HD
ATOM     28  N   UNL     1       9.805  -4.989  16.094  0.00  0.00    -0.261 N 
ATOM     29  C   UNL     1      11.156  -5.258  15.778  0.00  0.00    +0.079 A 
ENDROOT
BRANCH   5   6
ATOM      6  C   UNL     1       6.139  -4.820  15.429  0.00  0.00    +0.115 A 
ATOM      7  N   UNL     1       5.509  -6.006  14.966  0.00  0.00    -0.180 NA
ATOM      8  N   UNL     1       3.930  -6.035  14.741  0.00  0.00    -0.138 NA
ATOM      9  C   UNL     1       3.098  -4.909  14.975  0.00  0.00    +0.258 A 
ATOM     10  N   UNL     1       1.712  -4.651  14.957  0.00  0.00    -0.137 N 
ATOM     11  H   UNL     1       0.984  -5.329  14.690  0.00  0.00    +0.282 HD
ATOM     12  N   UNL     1       1.471  -3.292  15.370  0.00  0.00    -0.080 NA
ATOM     13  C   UNL     1       2.743  -2.744  15.632  0.00  0.00    +0.229 A 
ATOM     14  N   UNL     1       2.901  -1.433  16.117  0.00  0.00    -0.296 N 
ATOM     15  H   UNL     1       3.840  -1.080  16.350  0.00  0.00    +0.191 HD
ATOM     16  H   UNL     1       2.078  -0.826  16.239  0.00  0.00    +0.191 HD
ATOM     17  C   UNL     1       3.783  -3.715  15.405  0.00  0.00    +0.169 A 
ATOM     18  C   UNL     1       5.224  -3.686  15.609  0.00  0.00    +0.187 A 
ENDBRANCH   5   6
BRANCH  19  20
ATOM     20  C   UNL     1       7.243  -4.158  18.546  0.00  0.00    +0.025 A 
ATOM     21  C   UNL     1       5.890  -4.579  18.887  0.00  0.00    +0.020 A 
ATOM     22  C   UNL     1       5.122  -4.026  19.993  0.00  0.00    +0.006 A 
ATOM     23  C   UNL     1       5.699  -3.009  20.854  0.00  0.00    +0.006 A 
ATOM     24  C   UNL     1       7.064  -2.602  20.578  0.00  0.00    +0.006 A 
ATOM     25  C   UNL     1       7.809  -3.167  19.458  0.00  0.00    +0.020 A 
ENDBRANCH  19  20
TORSDOF 2
