REMARK  Name = 2e9o_ligand
REMARK  6 active torsions:
REMARK  status: ('A' for Active; 'I' for Inactive)
REMARK    1  A    between atoms: C1_1  and  C5_5
REMARK    2  A    between atoms: C2_2  and  N8_8
REMARK    3  A    between atoms: N8_8  and  C9_9
REMARK    4  A    between atoms: C9_9  and  C10_10
REMARK    5  A    between atoms: C19_19  and  C22_22
REMARK    6  A    between atoms: C25_25  and  C28_28
REMARK                            x       y       z     vdW  Elec       q    Type
REMARK                         _______ _______ _______ _____ _____    ______ ____
ROOT
ATOM     10  C   UNL     1       0.907   8.925 -19.802  0.00  0.00    -0.005 A 
ATOM     11  C   UNL     1       0.752  10.095 -20.675  0.00  0.00    -0.011 A 
ATOM     12  C   UNL     1      -0.543  10.769 -20.765  0.00  0.00    -0.010 A 
ATOM     13  C   UNL     1      -1.666  10.281 -19.998  0.00  0.00    -0.018 A 
ATOM     14  C   UNL     1      -2.993  10.672 -19.855  0.00  0.00    +0.040 A 
ATOM     15  N   UNL     1      -3.837  11.612 -20.313  0.00  0.00    -0.219 NA
ATOM     16  N   UNL     1      -5.086  11.474 -19.774  0.00  0.00    -0.222 N 
ATOM     17  H   UNL     1      -5.905  12.069 -19.965  0.00  0.00    +0.253 HD
ATOM     18  C   UNL     1      -5.041  10.391 -18.929  0.00  0.00    +0.093 A 
ATOM     28  C   UNL     1      -3.705   9.841 -18.953  0.00  0.00    +0.000 A 
ATOM     29  C   UNL     1      -2.796   8.856 -18.480  0.00  0.00    +0.117 C 
ATOM     30  C   UNL     1      -1.519   9.108 -19.117  0.00  0.00    -0.035 A 
ATOM     31  C   UNL     1      -0.251   8.452 -19.031  0.00  0.00    -0.003 A 
ENDROOT
BRANCH  18  19
ATOM     19  C   UNL     1      -6.217   9.879 -18.100  0.00  0.00    +0.005 A 
ATOM     20  C   UNL     1      -6.223   8.582 -17.405  0.00  0.00    +0.009 A 
ATOM     21  C   UNL     1      -7.359   8.146 -16.617  0.00  0.00    +0.014 A 
ATOM     22  C   UNL     1      -8.544   9.003 -16.492  0.00  0.00    +0.007 A 
ATOM     26  C   UNL     1      -8.554  10.307 -17.184  0.00  0.00    +0.014 A 
ATOM     27  C   UNL     1      -7.402  10.728 -17.974  0.00  0.00    +0.009 A 
BRANCH  22  23
ATOM     23  C   UNL     1      -9.696   8.574 -15.694  0.00  0.00    +0.061 C 
ATOM     24  O   UNL     1      -9.648   7.576 -15.024  0.00  0.00    -0.562 OA
ATOM     25  O   UNL     1     -10.796   9.336 -15.740  0.00  0.00    -0.562 OA
ENDBRANCH  22  23
ENDBRANCH  18  19
BRANCH  10   9
ATOM      9  C   UNL     1       2.211   8.177 -19.671  0.00  0.00    +0.194 C 
BRANCH   9   6
ATOM      6  N   UNL     1       2.032   6.712 -19.764  0.00  0.00    +0.241 N 
ATOM      7  H   UNL     1       1.199   6.537 -20.303  0.00  0.00    +0.203 HD
ATOM      8  H   UNL     1       1.908   6.357 -18.829  0.00  0.00    +0.203 HD
BRANCH   6   5
ATOM      1  C   UNL     1       3.008   2.923 -22.775  0.00  0.00    +0.007 C 
ATOM      2  C   UNL     1       4.163   3.665 -22.241  0.00  0.00    -0.014 C 
ATOM      3  C   UNL     1       4.183   5.218 -22.667  0.00  0.00    +0.009 C 
ATOM      4  C   UNL     1       3.079   6.066 -21.961  0.00  0.00    +0.055 C 
ATOM      5  C   UNL     1       3.167   5.942 -20.404  0.00  0.00    +0.064 C 
ATOM     32  C   UNL     1       3.085   4.445 -19.961  0.00  0.00    +0.055 C 
ATOM     33  C   UNL     1       4.140   3.535 -20.680  0.00  0.00    +0.009 C 
ENDBRANCH   6   5
ENDBRANCH   9   6
ENDBRANCH  10   9
TORSDOF 5
