REMARK  Name = 3AMY
REMARK  4 active torsions:
REMARK  status: ('A' for Active; 'I' for Inactive)
REMARK    1  A    between atoms: C_3  and  O_4
REMARK    2  A    between atoms: C_7  and  C_8
REMARK    3  A    between atoms: C_16  and  O_17
REMARK    4  A    between atoms: C_19  and  O_20
REMARK                            x       y       z     vdW  Elec       q    Type
REMARK                         _______ _______ _______ _____ _____    ______ ____
ROOT
ATOM      3  C   UNL     1      13.241  -5.583   9.651  0.00  0.00    +0.139 C 
ATOM      4  C   UNL     1      13.577  -5.397   8.308  0.00  0.00    +0.098 C 
ATOM      5  C   UNL     1      13.845  -6.506   7.503  0.00  0.00    +0.197 C 
ATOM      6  C   UNL     1      13.736  -7.790   8.050  0.00  0.00    +0.106 A 
ATOM      7  C   UNL     1      13.956  -8.957   7.291  0.00  0.00    +0.135 A 
ATOM     10  C   UNL     1      13.822 -10.211   7.891  0.00  0.00    +0.091 A 
ATOM     11  C   UNL     1      13.465 -10.299   9.235  0.00  0.00    +0.124 A 
ATOM     14  C   UNL     1      13.244  -9.156   9.985  0.00  0.00    +0.092 A 
ATOM     15  C   UNL     1      13.374  -7.907   9.397  0.00  0.00    +0.146 A 
ATOM     16  O   UNL     1      14.149  -6.339   6.320  0.00  0.00    -0.287 OA
ATOM     17  O   UNL     1      13.140  -6.830  10.193  0.00  0.00    -0.454 OA
ENDROOT
BRANCH   3   2
ATOM      1  C   UNL     1      12.167  -4.840  11.632  0.00  0.00    +0.015 A 
ATOM      2  C   UNL     1      12.937  -4.531  10.509  0.00  0.00    +0.018 A 
ATOM     18  C   UNL     1      13.352  -3.213  10.297  0.00  0.00    +0.015 A 
ATOM     19  C   UNL     1      12.987  -2.229  11.222  0.00  0.00    +0.046 A 
ATOM     20  C   UNL     1      12.219  -2.547  12.346  0.00  0.00    +0.117 A 
ATOM     23  C   UNL     1      11.803  -3.857  12.544  0.00  0.00    +0.046 A 
BRANCH  20  21
ATOM     21  O   UNL     1      11.857  -1.592  13.254  0.00  0.00    -0.507 OA
ATOM     22  H   UNL     1      10.810  -1.531  13.300  0.00  0.00    +0.292 HD
ENDBRANCH  20  21
ENDBRANCH   3   2
BRANCH   7   8
ATOM      8  O   UNL     1      14.303  -8.901   5.970  0.00  0.00    -0.506 OA
ATOM      9  H   UNL     1      13.550  -8.406   5.431  0.00  0.00    +0.292 HD
ENDBRANCH   7   8
BRANCH  11  12
ATOM     12  O   UNL     1      13.335 -11.499   9.839  0.00  0.00    -0.506 OA
ATOM     13  H   UNL     1      14.015 -11.566  10.636  0.00  0.00    +0.292 HD
ENDBRANCH  11  12
TORSDOF 4
