REMARK  Name = 5CF6
REMARK  10 active torsions:
REMARK  status: ('A' for Active; 'I' for Inactive)
REMARK    1  A    between atoms: C_1  and  C_13
REMARK    2  A    between atoms: C_2  and  N_21
REMARK    3  A    between atoms: C_3  and  N_19
REMARK    4  A    between atoms: C_4  and  C_5
REMARK    5  A    between atoms: C_4  and  C_20
REMARK    6  A    between atoms: C_4  and  O_25
REMARK    7  A    between atoms: C_5  and  O_24
REMARK    8  A    between atoms: C_6  and  N_22
REMARK    9  A    between atoms: N_11  and  C_20
REMARK   10  A    between atoms: N_22  and  C_26
REMARK                            x       y       z     vdW  Elec       q    Type
REMARK                         _______ _______ _______ _____ _____    ______ ____
ROOT
ATOM     10  C   UNL     1      -8.539 -57.638   0.389  0.00  0.00    +0.107 A 
ATOM     11  C   UNL     1      -8.884 -58.846   0.945  0.00  0.00    +0.044 A 
ATOM     12  C   UNL     1      -9.747 -59.510   0.028  0.00  0.00    +0.045 A 
ATOM     13  C   UNL     1     -10.486 -60.712  -0.087  0.00  0.00    +0.083 A 
ATOM     14  N   UNL     1     -10.691 -61.789   0.747  0.00  0.00    -0.333 N 
ATOM     15  C   UNL     1     -11.595 -62.586   0.111  0.00  0.00    +0.200 A 
ATOM     16  N   UNL     1     -11.973 -62.143  -1.067  0.00  0.00    -0.232 NA
ATOM     17  C   UNL     1     -10.082 -62.039   2.048  0.00  0.00    +0.150 C 
ATOM     18  C   UNL     1     -11.280 -60.951  -1.209  0.00  0.00    +0.129 A 
ATOM     19  C   UNL     1     -11.319 -60.014  -2.264  0.00  0.00    +0.148 A 
ATOM     20  N   UNL     1     -12.084 -60.229  -3.348  0.00  0.00    -0.330 N 
ATOM     21  H   UNL     1     -12.749 -61.068  -3.346  0.00  0.00    +0.147 HD
ATOM     22  C   UNL     1     -12.049 -59.376  -4.519  0.00  0.00    +0.127 C 
ATOM     23  N   UNL     1     -10.603 -58.887  -2.200  0.00  0.00    -0.212 NA
ATOM     24  C   UNL     1      -9.891 -58.664  -1.082  0.00  0.00    +0.146 A 
ATOM     25  N   UNL     1      -9.164 -57.509  -0.848  0.00  0.00    -0.319 N 
ENDROOT
BRANCH  10   1
ATOM      1  C   UNL     1      -7.553 -56.665   0.917  0.00  0.00    +0.264 C 
ATOM      2  O   UNL     1      -6.546 -56.479   0.277  0.00  0.00    -0.268 OA
ATOM      3  N   UNL     1      -7.672 -56.241   2.192  0.00  0.00    -0.290 N 
BRANCH   3   4
ATOM      4  C   UNL     1      -6.579 -55.642   3.017  0.00  0.00    +0.077 C 
ATOM      5  C   UNL     1      -5.817 -56.504   3.966  0.00  0.00    +0.024 C 
ATOM      6  C   UNL     1      -5.156 -55.983   2.731  0.00  0.00    +0.024 C 
ENDBRANCH   3   4
BRANCH   3   7
ATOM      7  C   UNL     1      -9.050 -56.293   2.735  0.00  0.00    +0.077 C 
ATOM      8  C   UNL     1      -9.317 -55.765   4.097  0.00  0.00    +0.024 C 
ATOM      9  C   UNL     1      -9.393 -57.232   3.833  0.00  0.00    +0.024 C 
ENDBRANCH   3   7
ENDBRANCH  10   1
BRANCH  25  26
ATOM     26  C   UNL     1      -9.124 -56.329  -1.733  0.00  0.00    +0.157 C 
BRANCH  26  27
ATOM     27  C   UNL     1     -10.511 -55.769  -2.034  0.00  0.00    +0.160 C 
BRANCH  27  28
ATOM     28  O   UNL     1     -11.123 -56.521  -3.086  0.00  0.00    -0.388 OA
ATOM     29  H   UNL     1     -12.117 -56.207  -3.209  0.00  0.00    +0.210 HD
ENDBRANCH  27  28
BRANCH  27  30
ATOM     30  C   UNL     1     -10.550 -54.312  -2.414  0.00  0.00    +0.188 C 
BRANCH  30  31
ATOM     31  O   UNL     1     -11.680 -54.075  -3.255  0.00  0.00    -0.392 OA
ATOM     32  H   UNL     1     -11.601 -54.663  -4.122  0.00  0.00    +0.209 HD
ENDBRANCH  30  31
ENDBRANCH  27  30
ENDBRANCH  26  27
ENDBRANCH  25  26
TORSDOF 8
