REMARK  Name = GVN
REMARK  4 active torsions:
REMARK  status: ('A' for Active; 'I' for Inactive)
REMARK    1  A    between atoms: C2_2  and  C3_3
REMARK    2  A    between atoms: C3_3  and  C4_4
REMARK    3  A    between atoms: C3_3  and  C11_11
REMARK    4  A    between atoms: C14_14  and  C17_17
REMARK                            x       y       z     vdW  Elec       q    Type
REMARK                         _______ _______ _______ _____ _____    ______ ____
ROOT
ATOM      4  C   UNL     1       9.211   9.385   3.308  0.00  0.00    -0.017 A 
ATOM      5  C   UNL     1       8.523   9.600   4.496  0.00  0.00    -0.004 A 
ATOM      6  C   UNL     1       7.152   9.752   4.492  0.00  0.00    -0.000 A 
ATOM      7  C   UNL     1       6.440   9.700   3.301  0.00  0.00    +0.003 A 
ATOM     13  C   UNL     1       7.127   9.466   2.116  0.00  0.00    -0.000 A 
ATOM     14  C   UNL     1       8.497   9.315   2.119  0.00  0.00    -0.004 A 
ENDROOT
BRANCH   7   8
ATOM      8  C   UNL     1       4.978   9.813   3.296  0.00  0.00    +0.042 A 
ATOM      9  C   UNL     1       4.121   9.849   4.390  0.00  0.00    +0.124 A 
ATOM     10  N   UNL     1       2.849   9.896   4.005  0.00  0.00    -0.146 NA
ATOM     11  N   UNL     1       2.891   9.869   2.649  0.00  0.00    -0.146 NA
ATOM     12  C   UNL     1       4.158   9.808   2.210  0.00  0.00    +0.124 A 
ENDBRANCH   7   8
BRANCH   4   3
ATOM      3  C   UNL     1      10.718   9.197   3.312  0.00  0.00    +0.064 C 
BRANCH   3  15
ATOM     15  C   UNL     1      11.410  10.195   2.401  0.00  0.00    -0.017 A 
ATOM     16  C   UNL     1      11.883  11.387   2.935  0.00  0.00    -0.003 A 
ATOM     17  C   UNL     1      12.498  12.319   2.128  0.00  0.00    +0.011 A 
ATOM     18  C   UNL     1      12.648  12.076   0.772  0.00  0.00    +0.058 A 
ATOM     19  C   UNL     1      12.174  10.891   0.229  0.00  0.00    +0.011 A 
ATOM     20 CL   UNL     1      13.424  13.253  -0.242  0.00  0.00    -0.082 Cl
ATOM     21  C   UNL     1      11.558   9.957   1.037  0.00  0.00    -0.003 A 
ENDBRANCH   3  15
BRANCH   3   2
ATOM      1  N   UNL     1      12.521   7.491   3.052  0.00  0.00    -0.131 NA
ATOM      2  C   UNL     1      11.055   7.740   2.999  0.00  0.00    +0.118 C 
ENDBRANCH   3   2
ENDBRANCH   4   3
TORSDOF 4
