REMARK  Name = 5CAO
REMARK  11 active torsions:
REMARK  status: ('A' for Active; 'I' for Inactive)
REMARK    1  A    between atoms: C_3  and  C_7
REMARK    2  A    between atoms: C_3  and  C_8
REMARK    3  A    between atoms: C_3  and  N_13
REMARK    4  A    between atoms: C_10  and  C_11
REMARK    5  A    between atoms: N_14  and  C_15
REMARK    6  A    between atoms: N_21  and  C_22
REMARK    7  A    between atoms: C_22  and  C_23
REMARK    8  A    between atoms: C_23  and  C_24
REMARK    9  A    between atoms: C_23  and  C_25
REMARK   10  A    between atoms: C_23  and  S_26
REMARK   11  A    between atoms: S_26  and  C_29
REMARK                            x       y       z     vdW  Elec       q    Type
REMARK                         _______ _______ _______ _____ _____    ______ ____
ROOT
ATOM     14  C   UNL     1     -56.058   1.174 -25.934  0.00  0.00    +0.129 A 
ATOM     15  N   UNL     1     -55.085   0.272 -26.125  0.00  0.00    -0.199 NA
ATOM     16  C   UNL     1     -55.126  -0.598 -27.141  0.00  0.00    +0.217 A 
ATOM     17  N   UNL     1     -54.127  -1.543 -27.310  0.00  0.00    -0.311 N 
ATOM     18  H   UNL     1     -54.212  -2.245 -28.113  0.00  0.00    +0.149 HD
ATOM     27  N   UNL     1     -56.133  -0.576 -28.009  0.00  0.00    -0.223 NA
ATOM     28  C   UNL     1     -57.141   0.291 -27.879  0.00  0.00    +0.118 A 
ATOM     29  C   UNL     1     -57.133   1.211 -26.837  0.00  0.00    +0.063 A 
ENDROOT
BRANCH  14  12
ATOM      1  C   UNL     1     -54.397   1.616 -21.074  0.00  0.00    +0.107 A 
ATOM      2  N   UNL     1     -53.720   1.285 -19.945  0.00  0.00    -0.231 NA
ATOM      3  C   UNL     1     -52.867   0.331 -20.191  0.00  0.00    +0.108 A 
ATOM      4  N   UNL     1     -52.944  -0.031 -21.527  0.00  0.00    -0.325 N 
ATOM      8  C   UNL     1     -51.965  -0.222 -19.109  0.00  0.00    +0.086 C 
ATOM      9  C   UNL     1     -53.910   0.776 -22.102  0.00  0.00    +0.074 A 
ATOM     10  C   UNL     1     -54.451   0.916 -23.386  0.00  0.00    +0.071 A 
ATOM     11  C   UNL     1     -55.472   1.851 -23.608  0.00  0.00    +0.126 A 
ATOM     12  N   UNL     1     -56.041   2.066 -24.873  0.00  0.00    -0.284 N 
ATOM     13  H   UNL     1     -56.509   3.015 -25.035  0.00  0.00    +0.155 HD
ATOM     30  N   UNL     1     -55.892   2.632 -22.607  0.00  0.00    -0.238 NA
ATOM     31  C   UNL     1     -55.390   2.556 -21.385  0.00  0.00    +0.142 A 
BRANCH   4   5
ATOM      5  C   UNL     1     -52.187  -1.043 -22.303  0.00  0.00    +0.083 C 
ATOM      6  C   UNL     1     -52.462  -2.490 -21.884  0.00  0.00    +0.030 C 
ATOM      7  C   UNL     1     -50.700  -0.721 -22.495  0.00  0.00    +0.030 C 
ENDBRANCH   4   5
ENDBRANCH  14  12
BRANCH  17  19
ATOM     19  C   UNL     1     -52.954  -1.616 -26.425  0.00  0.00    +0.133 C 
BRANCH  19  20
ATOM     20  C   UNL     1     -52.246  -2.977 -26.495  0.00  0.00    +0.097 C 
ATOM     25  C   UNL     1     -50.902  -2.817 -25.769  0.00  0.00    +0.037 C 
ATOM     26  C   UNL     1     -53.081  -4.042 -25.760  0.00  0.00    +0.037 C 
BRANCH  20  21
ATOM     21  S   UNL     1     -52.002  -3.412 -28.251  0.00  0.00    -0.027 S 
ATOM     22  C   UNL     1     -51.048  -4.963 -28.263  0.00  0.00    +0.194 C 
ATOM     23  O   UNL     1     -51.201  -2.388 -28.849  0.00  0.00    -0.174 OA
ATOM     24  O   UNL     1     -53.272  -3.709 -28.827  0.00  0.00    -0.174 OA
ENDBRANCH  20  21
ENDBRANCH  19  20
ENDBRANCH  17  19
TORSDOF 5
