REMARK  Name = 5U6B
REMARK  7 active torsions:
REMARK  status: ('A' for Active; 'I' for Inactive)
REMARK    1  A    between atoms: C_5  and  C_31
REMARK    2  A    between atoms: C_7  and  C_23
REMARK    3  A    between atoms: C_11  and  N_16
REMARK    4  A    between atoms: C_11  and  C_29
REMARK    5  A    between atoms: C_13  and  N_32
REMARK    6  A    between atoms: N_19  and  C_28
REMARK    7  A    between atoms: C_29  and  O_30
REMARK                            x       y       z     vdW  Elec       q    Type
REMARK                         _______ _______ _______ _____ _____    ______ ____
ROOT
ATOM      1  N   UNL     1      26.681 -12.626  14.037  0.00  0.00    -0.234 NA
ATOM      2  C   UNL     1      25.769 -13.625  14.054  0.00  0.00    +0.179 A 
ATOM      6  C   UNL     1      25.356 -14.110  15.345  0.00  0.00    +0.257 A 
ATOM      7  O   UNL     1      24.467 -15.130  15.367  0.00  0.00    -0.466 OA
ATOM      8  C   UNL     1      23.983 -15.689  16.588  0.00  0.00    +0.205 C 
ATOM      9  C   UNL     1      23.605 -17.132  16.325  0.00  0.00    +0.057 C 
ATOM     10  C   UNL     1      22.817 -14.845  17.173  0.00  0.00    +0.026 A 
ATOM     11  C   UNL     1      21.689 -14.471  16.436  0.00  0.00    +0.083 A 
ATOM     12 CL   UNL     1      21.488 -14.976  14.802  0.00  0.00    -0.080 Cl
ATOM     13  C   UNL     1      20.693 -13.703  16.962  0.00  0.00    +0.142 A 
ATOM     14  F   UNL     1      19.656 -13.311  16.185  0.00  0.00    -0.204 F 
ATOM     15  C   UNL     1      20.738 -13.283  18.267  0.00  0.00    +0.040 A 
ATOM     16  C   UNL     1      21.824 -13.647  19.045  0.00  0.00    +0.016 A 
ATOM     17  C   UNL     1      22.864 -14.413  18.507  0.00  0.00    +0.045 A 
ATOM     18  C   UNL     1      24.002 -14.802  19.408  0.00  0.00    +0.247 C 
ATOM     19  O   UNL     1      24.001 -15.921  19.878  0.00  0.00    -0.270 OA
ATOM     20  N   UNL     1      24.954 -13.894  19.694  0.00  0.00    -0.295 N 
ATOM     21  C   UNL     1      26.050 -14.270  20.580  0.00  0.00    +0.133 C 
ATOM     22  C   UNL     1      24.942 -12.517  19.214  0.00  0.00    +0.163 C 
ATOM     23  C   UNL     1      26.261 -11.850  18.896  0.00  0.00    +0.066 A 
ATOM     24  N   UNL     1      26.954 -11.063  19.761  0.00  0.00    -0.264 N 
ATOM     25  N   UNL     1      28.091 -10.526  19.202  0.00  0.00    -0.175 NA
ATOM     26  C   UNL     1      28.123 -10.964  17.954  0.00  0.00    +0.070 A 
ATOM     27  C   UNL     1      29.216 -10.517  17.039  0.00  0.00    +0.068 C 
ATOM     32  C   UNL     1      26.976 -11.837  17.699  0.00  0.00    +0.047 A 
ATOM     33  C   UNL     1      26.659 -12.554  16.427  0.00  0.00    +0.097 A 
ATOM     34  N   UNL     1      25.804 -13.587  16.476  0.00  0.00    -0.208 NA
ATOM     35  C   UNL     1      27.115 -12.106  15.192  0.00  0.00    +0.141 A 
ENDROOT
BRANCH   2   3
ATOM      3  N   UNL     1      25.301 -14.063  12.883  0.00  0.00    -0.339 N 
ATOM      4  H   UNL     1      24.579 -14.852  12.857  0.00  0.00    +0.144 HD
ATOM      5  H   UNL     1      25.648 -13.625  11.970  0.00  0.00    +0.144 HD
ENDBRANCH   2   3
BRANCH  24  28
ATOM     28  C   UNL     1      26.629 -10.711  21.143  0.00  0.00    +0.171 C 
BRANCH  28  29
ATOM     29  C   UNL     1      26.110  -9.292  21.278  0.00  0.00    +0.179 C 
BRANCH  29  30
ATOM     30  O   UNL     1      24.973  -9.069  20.468  0.00  0.00    -0.393 OA
ATOM     31  H   UNL     1      25.222  -9.234  19.461  0.00  0.00    +0.209 HD
ENDBRANCH  29  30
ENDBRANCH  28  29
ENDBRANCH  24  28
TORSDOF 4
