REMARK  Name = 2itp_ligand
REMARK  8 active torsions:
REMARK  status: ('A' for Active; 'I' for Inactive)
REMARK    1  A    between atoms: NBF_3  and  CAN_4
REMARK    2  A    between atoms: CAN_4  and  CAA_5
REMARK    3  A    between atoms: NBG_8  and  CAS_9
REMARK    4  A    between atoms: CAS_9  and  CAX_10
REMARK    5  A    between atoms: CAY_15  and  CBA_16
REMARK    6  A    between atoms: NAV_25  and  CBE_26
REMARK    7  A    between atoms: CBE_26  and  CAB_27
REMARK    8  A    between atoms: CBE_26  and  CAZ_28
REMARK                            x       y       z     vdW  Elec       q    Type
REMARK                         _______ _______ _______ _____ _____    ______ ____
ROOT
ATOM      9  C   UNL     1     -51.942   0.639 -19.457  0.00  0.00    +0.063 A 
ATOM     10  C   UNL     1     -51.590   0.170 -20.656  0.00  0.00    -0.011 A 
ATOM     11  C   UNL     1     -52.494   0.578 -21.540  0.00  0.00    +0.047 A 
ATOM     12  C   UNL     1     -52.652   0.406 -22.916  0.00  0.00    +0.122 A 
ATOM     13  N   UNL     1     -51.750  -0.302 -23.612  0.00  0.00    -0.288 N 
ATOM     14  H   UNL     1     -50.804  -0.451 -23.234  0.00  0.00    +0.189 HD
ATOM     23  N   UNL     1     -53.735   0.956 -23.530  0.00  0.00    -0.273 NA
ATOM     24  C   UNL     1     -54.633   1.653 -22.845  0.00  0.00    +0.148 A 
ATOM     25  N   UNL     1     -54.494   1.837 -21.527  0.00  0.00    -0.277 NA
ATOM     26  C   UNL     1     -53.447   1.314 -20.853  0.00  0.00    +0.136 A 
ATOM     27  N   UNL     1     -53.090   1.323 -19.573  0.00  0.00    -0.262 N 
ATOM     28  H   UNL     1     -53.605   1.776 -18.804  0.00  0.00    +0.228 HD
ENDROOT
BRANCH   9   8
ATOM      5  C   UNL     1     -49.908  -0.117 -15.888  0.00  0.00    +0.002 A 
ATOM      6  C   UNL     1     -49.591  -0.837 -17.035  0.00  0.00    +0.001 A 
ATOM      7  C   UNL     1     -50.270  -0.571 -18.218  0.00  0.00    +0.002 A 
ATOM      8  C   UNL     1     -51.260   0.410 -18.261  0.00  0.00    -0.002 A 
ATOM     29  C   UNL     1     -51.593   1.120 -17.098  0.00  0.00    +0.002 A 
ATOM     30  C   UNL     1     -50.913   0.855 -15.906  0.00  0.00    +0.001 A 
BRANCH   5   4
ATOM      4  C   UNL     1     -49.193  -0.448 -14.580  0.00  0.00    +0.199 C 
BRANCH   4   2
ATOM      1  C   UNL     1     -50.623  -0.583 -12.561  0.00  0.00    +0.185 C 
ATOM      2  N   UNL     1     -50.189  -1.267 -13.807  0.00  0.00    +0.255 N 
ATOM      3  H   UNL     1     -51.013  -1.299 -14.387  0.00  0.00    +0.205 HD
ATOM     31  C   UNL     1     -49.788  -2.709 -13.636  0.00  0.00    +0.185 C 
ATOM     32  C   UNL     1     -49.008  -3.080 -12.342  0.00  0.00    +0.183 C 
ATOM     33  N   UNL     1     -49.302  -2.224 -11.147  0.00  0.00    +0.242 N 
ATOM     34  H   UNL     1     -48.453  -2.234 -10.604  0.00  0.00    +0.204 HD
ATOM     37  C   UNL     1     -49.561  -0.778 -11.452  0.00  0.00    +0.183 C 
BRANCH  33  35
ATOM     35  C   UNL     1     -50.355  -2.793 -10.258  0.00  0.00    +0.128 C 
ATOM     36  C   UNL     1     -50.515  -1.941  -8.975  0.00  0.00    +0.060 C 
ENDBRANCH  33  35
ENDBRANCH   4   2
ENDBRANCH   5   4
ENDBRANCH   9   8
BRANCH  13  15
ATOM     15  C   UNL     1     -52.121  -0.863 -24.916  0.00  0.00    +0.145 C 
ATOM     22  C   UNL     1     -51.250  -2.069 -25.301  0.00  0.00    +0.051 C 
BRANCH  15  16
ATOM     16  C   UNL     1     -52.029   0.263 -25.954  0.00  0.00    -0.018 A 
ATOM     17  C   UNL     1     -52.542   0.067 -27.248  0.00  0.00    -0.002 A 
ATOM     18  C   UNL     1     -52.440   1.121 -28.159  0.00  0.00    -0.009 A 
ATOM     19  C   UNL     1     -51.864   2.352 -27.784  0.00  0.00    -0.013 A 
ATOM     20  C   UNL     1     -51.360   2.561 -26.494  0.00  0.00    -0.009 A 
ATOM     21  C   UNL     1     -51.447   1.500 -25.584  0.00  0.00    -0.002 A 
ENDBRANCH  15  16
ENDBRANCH  13  15
TORSDOF 6
