REMARK  Name = 2o5k_ligand
REMARK  9 active torsions:
REMARK  status: ('A' for Active; 'I' for Inactive)
REMARK    1  A    between atoms: C4_2  and  O34_34
REMARK    2  A    between atoms: C10_4  and  C8_10
REMARK    3  A    between atoms: C1_6  and  C18_18
REMARK    4  A    between atoms: N19_19  and  C20_20
REMARK    5  A    between atoms: C20_20  and  C21_21
REMARK    6  A    between atoms: C21_21  and  C22_22
REMARK    7  A    between atoms: C25_25  and  N28_28
REMARK    8  A    between atoms: N28_28  and  S29_29
REMARK    9  A    between atoms: S29_29  and  C30_30
REMARK                            x       y       z     vdW  Elec       q    Type
REMARK                         _______ _______ _______ _____ _____    ______ ____
ROOT
ATOM      1  C   UNL     1      12.694  32.120  -7.091  0.00  0.00    -0.010 A 
ATOM      2  C   UNL     1      13.452  33.239  -7.592  0.00  0.00    +0.009 A 
ATOM      3  C   UNL     1      13.186  33.808  -8.892  0.00  0.00    +0.118 A 
ATOM      6  C   UNL     1      12.125  33.238  -9.706  0.00  0.00    +0.120 A 
ATOM      7  N   UNL     1      11.543  33.458 -10.970  0.00  0.00    -0.250 N 
ATOM      8  H   UNL     1      11.820  34.186 -11.644  0.00  0.00    +0.229 HD
ATOM      9  C   UNL     1      10.510  32.503 -11.155  0.00  0.00    +0.141 A 
ATOM     10  N   UNL     1      10.425  31.680 -10.034  0.00  0.00    -0.304 NA
ATOM     19  C   UNL     1      11.345  32.061  -9.155  0.00  0.00    +0.044 A 
ATOM     20  C   UNL     1      11.622  31.491  -7.837  0.00  0.00    +0.037 A 
ENDROOT
BRANCH   9  11
ATOM     11  C   UNL     1       9.705  32.419 -12.308  0.00  0.00    +0.048 A 
ATOM     12  C   UNL     1       8.209  31.912 -12.358  0.00  0.00    +0.059 A 
ATOM     13 CL   UNL     1       7.318  31.367 -10.962  0.00  0.00    -0.065 Cl
ATOM     14  C   UNL     1       7.472  31.863 -13.589  0.00  0.00    +0.035 A 
ATOM     15  C   UNL     1       8.097  32.288 -14.826  0.00  0.00    +0.045 A 
ATOM     16 CL   UNL     1       7.204  32.226 -16.291  0.00  0.00    -0.067 Cl
ATOM     17  C   UNL     1       9.486  32.769 -14.850  0.00  0.00    +0.021 A 
ATOM     18  C   UNL     1      10.244  32.829 -13.651  0.00  0.00    +0.023 A 
ENDBRANCH   9  11
BRANCH  20  21
ATOM     21  C   UNL     1      10.913  30.335  -7.208  0.00  0.00    +0.189 C 
ATOM     22  O   UNL     1      11.303  30.002  -6.071  0.00  0.00    -0.394 OA
ATOM     23  N   UNL     1       9.842  29.689  -7.930  0.00  0.00    -0.288 N 
ATOM     24  H   UNL     1       9.243  30.244  -8.508  0.00  0.00    +0.184 HD
BRANCH  23  25
ATOM     25  C   UNL     1       9.605  28.241  -7.841  0.00  0.00    +0.145 C 
BRANCH  25  26
ATOM     26  C   UNL     1       9.432  27.696  -9.283  0.00  0.00    +0.076 C 
BRANCH  26  27
ATOM     27  C   UNL     1       8.103  26.926  -9.625  0.00  0.00    -0.058 A 
ATOM     28  C   UNL     1       8.004  25.446  -9.429  0.00  0.00    -0.024 A 
ATOM     29  C   UNL     1       6.787  24.710  -9.737  0.00  0.00    -0.005 A 
ATOM     30  C   UNL     1       5.584  25.404 -10.262  0.00  0.00    +0.055 A 
ATOM     37  C   UNL     1       5.643  26.888 -10.474  0.00  0.00    -0.005 A 
ATOM     38  C   UNL     1       6.875  27.625 -10.162  0.00  0.00    -0.024 A 
BRANCH  30  31
ATOM     31  N   UNL     1       4.412  24.644 -10.545  0.00  0.00    -0.196 N 
ATOM     32  H   UNL     1       3.666  24.572  -9.883  0.00  0.00    +0.213 HD
BRANCH  31  33
ATOM     33  S   UNL     1       4.331  23.847 -12.089  0.00  0.00    +0.056 S 
ATOM     34  O   UNL     1       4.769  22.435 -11.983  0.00  0.00    -0.150 OA
ATOM     35  O   UNL     1       4.951  24.694 -13.095  0.00  0.00    -0.150 OA
ATOM     36  C   UNL     1       2.570  23.735 -12.602  0.00  0.00    +0.225 C 
ENDBRANCH  31  33
ENDBRANCH  30  31
ENDBRANCH  26  27
ENDBRANCH  25  26
ENDBRANCH  23  25
ENDBRANCH  20  21
BRANCH   3   4
ATOM      4  O   UNL     1      14.037  34.851  -9.131  0.00  0.00    -0.332 OA
ATOM      5  H   UNL     1      14.615  34.964  -8.386  0.00  0.00    +0.248 HD
ENDBRANCH   3   4
TORSDOF 8
