REMARK  Name = 6M8D
REMARK  2 active torsions:
REMARK  status: ('A' for Active; 'I' for Inactive)
REMARK    1  A    between atoms: O6_2  and  C13_3
REMARK    2  A    between atoms: C10_9  and  C9_10
REMARK                            x       y       z     vdW  Elec       q    Type
REMARK                         _______ _______ _______ _____ _____    ______ ____
ROOT
ATOM      7  C   UNL     1       4.780  27.600  25.463  0.00  0.00    +0.000 A 
ATOM      8  C   UNL     1       4.167  27.848  24.232  0.00  0.00    -0.100 A 
ATOM      9  C   UNL     1       4.599  27.156  23.106  0.00  0.00    +0.550 A 
ATOM     10  O   UNL     1       4.013  27.351  22.042  0.00  0.00    -0.550 OA
ATOM     11  C   UNL     1       5.631  26.204  23.220  0.00  0.00    +0.000 A 
ATOM     12  C   UNL     1       6.130  25.481  22.127  0.00  0.00    +0.250 A 
ATOM     13  O   UNL     1       5.595  25.705  20.905  0.00  0.00    -0.650 OA
ATOM     14  C   UNL     1       7.145  24.549  22.268  0.00  0.00    -0.130 A 
ATOM     15  C   UNL     1       7.705  24.314  23.514  0.00  0.00    +0.250 A 
ATOM     16  O   UNL     1       8.699  23.395  23.639  0.00  0.00    -0.650 OA
ATOM     17  C   UNL     1       7.235  25.022  24.615  0.00  0.00    -0.130 A 
ATOM     18  C   UNL     1       6.214  25.958  24.465  0.00  0.00    +0.185 A 
ATOM     19  O   UNL     1       5.776  26.659  25.563  0.00  0.00    -0.185 OA
ENDROOT
BRANCH   7   6
ATOM      3  C   UNL     1       3.901  29.567  29.111  0.00  0.00    +0.185 A 
ATOM      4  C   UNL     1       3.658  30.216  27.890  0.00  0.00    -0.130 A 
ATOM      5  C   UNL     1       3.947  29.569  26.681  0.00  0.00    -0.130 A 
ATOM      6  C   UNL     1       4.469  28.262  26.661  0.00  0.00    +0.000 A 
ATOM     20  C   UNL     1       4.710  27.628  27.888  0.00  0.00    -0.130 A 
ATOM     21  C   UNL     1       4.420  28.270  29.087  0.00  0.00    +0.250 A 
ATOM     22  O   UNL     1       4.642  27.656  30.279  0.00  0.00    -0.650 OA
BRANCH   3   2
ATOM      1  C   UNL     1       3.503  31.515  30.483  0.00  0.00    +0.030 C 
ATOM      2  O   UNL     1       3.655  30.089  30.360  0.00  0.00    -0.365 OA
ENDBRANCH   3   2
ENDBRANCH   7   6
TORSDOF 2
