REMARK  Name = 3fc1_ligand
REMARK  3 active torsions:
REMARK  status: ('A' for Active; 'I' for Inactive)
REMARK    1  A    between atoms: C5_5  and  S6_6
REMARK    2  A    between atoms: S6_6  and  C7_7
REMARK    3  A    between atoms: C11_11  and  C12_12
REMARK                            x       y       z     vdW  Elec       q    Type
REMARK                         _______ _______ _______ _____ _____    ______ ____
ROOT
ATOM      8  C   UNL     1      43.272  31.088  30.514  0.00  0.00    +0.108 A 
ATOM      9  N   UNL     1      43.056  32.230  31.133  0.00  0.00    -0.186 N 
ATOM     10  H   UNL     1      42.113  32.450  31.483  0.00  0.00    +0.219 HD
ATOM     11  N   UNL     1      44.097  33.150  31.320  0.00  0.00    -0.126 N 
ATOM     12  C   UNL     1      43.843  34.320  31.964  0.00  0.00    +0.310 C 
ATOM     13  N   UNL     1      44.777  35.206  32.165  0.00  0.00    -0.249 NA
ATOM     14  C   UNL     1      46.039  35.012  31.748  0.00  0.00    +0.180 C 
ATOM     15  O   UNL     1      46.882  35.874  31.962  0.00  0.00    -0.382 OA
ATOM     16  C   UNL     1      46.399  33.815  31.063  0.00  0.00    +0.210 C 
ATOM     25  C   UNL     1      45.368  32.864  30.856  0.00  0.00    +0.096 A 
ATOM     26  C   UNL     1      45.600  31.634  30.192  0.00  0.00    -0.073 A 
ATOM     27  C   UNL     1      44.563  30.764  30.028  0.00  0.00    -0.074 A 
ENDROOT
BRANCH  16  17
ATOM     17  C   UNL     1      47.801  33.594  30.613  0.00  0.00    +0.018 A 
ATOM     18  C   UNL     1      48.262  34.194  29.435  0.00  0.00    +0.046 A 
ATOM     19 CL   UNL     1      47.187  35.185  28.496  0.00  0.00    -0.076 Cl
ATOM     20  C   UNL     1      49.564  34.003  29.003  0.00  0.00    +0.007 A 
ATOM     21  C   UNL     1      50.430  33.210  29.739  0.00  0.00    -0.011 A 
ATOM     22  C   UNL     1      49.998  32.610  30.909  0.00  0.00    +0.007 A 
ATOM     23  C   UNL     1      48.695  32.801  31.355  0.00  0.00    +0.046 A 
ATOM     24 CL   UNL     1      48.215  32.025  32.830  0.00  0.00    -0.076 Cl
ENDBRANCH  16  17
BRANCH   8   7
ATOM      7  S   UNL     1      41.965  29.915  30.287  0.00  0.00    -0.023 S 
BRANCH   7   6
ATOM      1  F   UNL     1      36.851  32.567  31.245  0.00  0.00    -0.190 F 
ATOM      2  C   UNL     1      38.021  31.952  31.038  0.00  0.00    +0.123 A 
ATOM      3  C   UNL     1      38.749  32.285  29.903  0.00  0.00    +0.057 A 
ATOM      4  C   UNL     1      39.957  31.664  29.669  0.00  0.00    +0.144 A 
ATOM      5  F   UNL     1      40.667  31.975  28.568  0.00  0.00    -0.189 F 
ATOM      6  C   UNL     1      40.431  30.720  30.580  0.00  0.00    +0.063 A 
ATOM     28  C   UNL     1      39.691  30.389  31.715  0.00  0.00    +0.004 A 
ATOM     29  C   UNL     1      38.475  31.011  31.950  0.00  0.00    +0.018 A 
ENDBRANCH   7   6
ENDBRANCH   8   7
TORSDOF 3
