REMARK  Name = 2yac_ligand
REMARK  9 active torsions:
REMARK  status: ('A' for Active; 'I' for Inactive)
REMARK    1  A    between atoms: N11_11  and  C29_29
REMARK    2  A    between atoms: C13_13  and  C15_15
REMARK    3  A    between atoms: N14_14  and  C17_17
REMARK    4  A    between atoms: C19_19  and  N32_32
REMARK    5  A    between atoms: C22_22  and  O23_23
REMARK    6  A    between atoms: O23_23  and  C24_24
REMARK    7  A    between atoms: C29_29  and  C30_30
REMARK    8  A    between atoms: C30_30  and  O31_31
REMARK    9  A    between atoms: N35_35  and  C38_38
REMARK                            x       y       z     vdW  Elec       q    Type
REMARK                         _______ _______ _______ _____ _____    ______ ____
ROOT
ATOM      1  N   UNL     1     -43.959  14.987   8.022  0.00  0.00    -0.245 NA
ATOM      2  C   UNL     1     -43.349  15.775   9.031  0.00  0.00    +0.123 A 
ATOM      3  C   UNL     1     -42.992  15.185  10.193  0.00  0.00    +0.015 A 
ATOM      4  C   UNL     1     -42.331  15.977  11.325  0.00  0.00    -0.002 A 
ATOM      5  C   UNL     1     -41.405  15.095  12.249  0.00  0.00    -0.002 A 
ATOM      6  C   UNL     1     -41.861  13.645  12.355  0.00  0.00    +0.032 A 
ATOM      7  C   UNL     1     -41.488  12.622  13.335  0.00  0.00    +0.136 A 
ATOM     13  N   UNL     1     -42.137  11.543  13.076  0.00  0.00    -0.171 NA
ATOM     14  N   UNL     1     -42.914  11.763  11.977  0.00  0.00    -0.183 N 
ATOM     19  C   UNL     1     -42.724  13.081  11.541  0.00  0.00    +0.123 A 
ATOM     20  C   UNL     1     -43.249  13.756  10.359  0.00  0.00    +0.078 A 
ATOM     21  N   UNL     1     -43.809  13.116   9.424  0.00  0.00    -0.260 NA
ATOM     22  C   UNL     1     -44.170  13.741   8.211  0.00  0.00    +0.204 A 
ATOM     23  N   UNL     1     -44.702  12.908   7.219  0.00  0.00    -0.248 N 
ATOM     24  H   UNL     1     -44.829  13.354   6.299  0.00  0.00    +0.215 HD
ENDROOT
BRANCH  23  25
ATOM     25  C   UNL     1     -45.103  11.514   7.284  0.00  0.00    +0.085 A 
ATOM     26  C   UNL     1     -46.474  11.050   6.883  0.00  0.00    +0.111 A 
ATOM     32  C   UNL     1     -46.793   9.732   6.956  0.00  0.00    -0.005 A 
ATOM     33  C   UNL     1     -45.816   8.749   7.423  0.00  0.00    -0.025 A 
ATOM     34  C   UNL     1     -44.561   9.134   7.798  0.00  0.00    +0.020 A 
ATOM     43  C   UNL     1     -44.195  10.590   7.720  0.00  0.00    +0.011 A 
BRANCH  34  35
ATOM     35  N   UNL     1     -43.622   8.150   8.249  0.00  0.00    -0.307 N 
ATOM     36  C   UNL     1     -42.185   8.370   8.010  0.00  0.00    +0.177 C 
ATOM     37  C   UNL     1     -41.308   7.688   9.088  0.00  0.00    +0.155 C 
ATOM     38  N   UNL     1     -41.716   6.273   9.227  0.00  0.00    +0.236 N 
ATOM     39  H   UNL     1     -41.711   5.824   8.325  0.00  0.00    +0.203 HD
ATOM     40  C   UNL     1     -40.777   5.598  10.127  0.00  0.00    +0.190 C 
ATOM     41  C   UNL     1     -43.078   6.214   9.812  0.00  0.00    +0.155 C 
ATOM     42  C   UNL     1     -44.124   6.921   8.920  0.00  0.00    +0.177 C 
ENDBRANCH  34  35
BRANCH  26  27
ATOM     27  O   UNL     1     -47.390  12.033   6.438  0.00  0.00    -0.239 OA
BRANCH  27  28
ATOM     28  C   UNL     1     -47.858  11.964   5.076  0.00  0.00    +0.542 C 
ATOM     29  F   UNL     1     -46.864  11.550   4.200  0.00  0.00    -0.141 F 
ATOM     30  F   UNL     1     -48.336  13.205   4.673  0.00  0.00    -0.141 F 
ATOM     31  F   UNL     1     -48.865  11.048   4.992  0.00  0.00    -0.141 F 
ENDBRANCH  27  28
ENDBRANCH  26  27
ENDBRANCH  23  25
BRANCH   7   8
ATOM      8  C   UNL     1     -40.510  12.742  14.454  0.00  0.00    +0.212 C 
ATOM      9  N   UNL     1     -40.171  11.604  15.192  0.00  0.00    -0.300 N 
ATOM     10  H   UNL     1     -40.583  10.721  14.967  0.00  0.00    +0.181 HD
ATOM     11  H   UNL     1     -39.516  11.673  15.945  0.00  0.00    +0.181 HD
ATOM     12  O   UNL     1     -39.982  13.815  14.738  0.00  0.00    -0.386 OA
ENDBRANCH   7   8
BRANCH  14  15
ATOM     15  C   UNL     1     -43.759  10.766  11.350  0.00  0.00    +0.226 C 
BRANCH  15  16
ATOM     16  C   UNL     1     -44.422   9.875  12.402  0.00  0.00    +0.191 C 
BRANCH  16  17
ATOM     17  O   UNL     1     -43.650   8.677  12.505  0.00  0.00    -0.392 OA
ATOM     18  H   UNL     1     -44.041   8.104  13.154  0.00  0.00    +0.209 HD
ENDBRANCH  16  17
ENDBRANCH  15  16
ENDBRANCH  14  15
TORSDOF 8
