REMARK  Name = 4eny_ligand
REMARK  5 active torsions:
REMARK  status: ('A' for Active; 'I' for Inactive)
REMARK    1  A    between atoms: N8_8  and  C4_9
REMARK    2  A    between atoms: C15_16  and  C16_17
REMARK    3  A    between atoms: C19_19  and  O22_20
REMARK    4  A    between atoms: C18_21  and  O23_23
REMARK    5  A    between atoms: O23_23  and  C24_24
REMARK                            x       y       z     vdW  Elec       q    Type
REMARK                         _______ _______ _______ _____ _____    ______ ____
ROOT
ATOM     11  C   UNL     1     -67.127 120.658   2.891  0.00  0.00    +0.025 C 
ATOM     12  C   UNL     1     -66.289 119.630   2.591  0.00  0.00    +0.099 C 
ATOM     13  S   UNL     1     -66.245 118.765   1.016  0.00  0.00    +0.043 S 
ATOM     14  C   UNL     1     -64.910 117.656   1.580  0.00  0.00    +0.212 C 
ATOM     15  N   UNL     1     -64.421 116.699   0.722  0.00  0.00    -0.225 N 
ATOM     16  H   UNL     1     -63.681 116.094   1.077  0.00  0.00    +0.229 HD
ATOM     24  N   UNL     1     -64.518 117.892   2.813  0.00  0.00    -0.263 NA
ATOM     25  C   UNL     1     -65.236 118.975   3.446  0.00  0.00    +0.175 C 
ATOM     26  O   UNL     1     -64.958 119.281   4.585  0.00  0.00    -0.388 OA
ENDROOT
BRANCH  15  17
ATOM     17  C   UNL     1     -64.852 116.475  -0.616  0.00  0.00    +0.087 A 
ATOM     18  C   UNL     1     -65.675 115.379  -0.938  0.00  0.00    +0.065 A 
ATOM     19  C   UNL     1     -66.113 115.113  -2.229  0.00  0.00    +0.003 A 
ATOM     20  C   UNL     1     -65.732 115.958  -3.259  0.00  0.00    -0.019 A 
ATOM     21  C   UNL     1     -64.919 117.048  -2.976  0.00  0.00    -0.011 A 
ATOM     22 CL   UNL     1     -66.201 114.284   0.277  0.00  0.00    -0.079 Cl
ATOM     23  C   UNL     1     -64.482 117.312  -1.684  0.00  0.00    +0.019 A 
ENDBRANCH  15  17
BRANCH  11  10
ATOM      1  C   UNL     1     -68.944 122.367   2.651  0.00  0.00    -0.020 A 
ATOM      2  C   UNL     1     -69.815 123.144   1.887  0.00  0.00    +0.014 A 
ATOM      3  C   UNL     1     -69.798 123.043   0.485  0.00  0.00    +0.120 A 
ATOM      4  C   UNL     1     -68.901 122.150  -0.122  0.00  0.00    +0.122 A 
ATOM      7  C   UNL     1     -68.044 121.384   0.654  0.00  0.00    +0.018 A 
ATOM     10  C   UNL     1     -68.044 121.469   2.051  0.00  0.00    -0.042 A 
BRANCH   4   5
ATOM      5  O   UNL     1     -68.868 122.036  -1.490  0.00  0.00    -0.325 OA
ATOM      6  C   UNL     1     -68.087 120.967  -2.006  0.00  0.00    +0.229 C 
ENDBRANCH   4   5
BRANCH   3   8
ATOM      8  O   UNL     1     -70.643 123.800  -0.280  0.00  0.00    -0.334 OA
ATOM      9  H   UNL     1     -70.495 123.604  -1.208  0.00  0.00    +0.246 HD
ENDBRANCH   3   8
ENDBRANCH  11  10
TORSDOF 4
