REMARK  Name = 4cli_ligand
REMARK  5 active torsions:
REMARK  status: ('A' for Active; 'I' for Inactive)
REMARK    1  A    between atoms: C23_1  and  C19_7
REMARK    2  A    between atoms: C2_15  and  N17_27
REMARK    3  A    between atoms: C8_18  and  C9_19
REMARK    4  A    between atoms: C25_20  and  N20_25
REMARK    5  A    between atoms: C29_21  and  N26_26
REMARK                            x       y       z     vdW  Elec       q    Type
REMARK                         _______ _______ _______ _____ _____    ______ ____
ROOT
ATOM      3  C   UNL     1      27.808  48.406   7.325  0.00  0.00    +0.205 A 
ATOM      4  N   UNL     1      28.376  49.478   6.660  0.00  0.00    -0.187 N 
ATOM      5  N   UNL     1      29.709  49.481   6.657  0.00  0.00    -0.198 NA
ATOM      6  C   UNL     1      30.060  48.389   7.335  0.00  0.00    +0.065 A 
ATOM      7  C   UNL     1      31.552  48.151   7.482  0.00  0.00    +0.212 C 
ATOM      8  N   UNL     1      32.178  47.195   6.483  0.00  0.00    -0.266 N 
ATOM      9  C   UNL     1      31.832  47.371   5.063  0.00  0.00    +0.170 C 
ATOM     10  C   UNL     1      33.094  46.124   6.782  0.00  0.00    +0.201 C 
ATOM     11  O   UNL     1      33.585  45.367   5.934  0.00  0.00    -0.390 OA
ATOM     12  C   UNL     1      33.538  45.835   8.185  0.00  0.00    +0.050 A 
ATOM     13  C   UNL     1      33.140  44.640   8.922  0.00  0.00    +0.008 A 
ATOM     14  C   UNL     1      32.209  43.539   8.352  0.00  0.00    +0.196 C 
ATOM     15  O   UNL     1      31.035  43.325   9.186  0.00  0.00    -0.299 OA
ATOM     16  C   UNL     1      29.993  44.234   9.242  0.00  0.00    +0.140 A 
ATOM     17  C   UNL     1      28.916  43.933  10.099  0.00  0.00    +0.141 A 
ATOM     21  N   UNL     1      27.839  44.789  10.223  0.00  0.00    -0.296 NA
ATOM     22  C   UNL     1      27.822  45.968   9.493  0.00  0.00    +0.057 A 
ATOM     23  C   UNL     1      28.848  46.368   8.605  0.00  0.00    -0.017 A 
ATOM     24  C   UNL     1      29.912  45.453   8.520  0.00  0.00    +0.039 A 
ATOM     25  C   UNL     1      32.918  42.172   8.267  0.00  0.00    +0.061 C 
ATOM     26  C   UNL     1      33.647  44.501  10.261  0.00  0.00    +0.038 A 
ATOM     27  C   UNL     1      34.492  45.482  10.823  0.00  0.00    +0.131 A 
ATOM     28  F   UNL     1      34.942  45.317  12.063  0.00  0.00    -0.181 F 
ATOM     29  C   UNL     1      34.869  46.627  10.104  0.00  0.00    +0.027 A 
ATOM     30  C   UNL     1      34.400  46.812   8.788  0.00  0.00    +0.014 A 
ATOM     31  C   UNL     1      27.689  50.569   5.986  0.00  0.00    +0.241 C 
ATOM     32  C   UNL     1      28.892  47.636   7.807  0.00  0.00    +0.043 A 
ENDROOT
BRANCH  17  18
ATOM     18  N   UNL     1      28.934  42.737  10.852  0.00  0.00    -0.325 N 
ATOM     19  H   UNL     1      29.732  42.090  10.773  0.00  0.00    +0.174 HD
ATOM     20  H   UNL     1      28.149  42.512  11.480  0.00  0.00    +0.174 HD
ENDBRANCH  17  18
BRANCH   3   1
ATOM      1  C   UNL     1      26.389  48.223   7.439  0.00  0.00    +0.115 C 
ATOM      2  N   UNL     1      25.241  48.074   7.487  0.00  0.00    -0.343 NA
ENDBRANCH   3   1
TORSDOF 2
