REMARK  Name = 5OPS
REMARK  3 active torsions:
REMARK  status: ('A' for Active; 'I' for Inactive)
REMARK    1  A    between atoms: C_3  and  C_7
REMARK    2  A    between atoms: C_5  and  O_18
REMARK    3  A    between atoms: C_15  and  C_16
REMARK                            x       y       z     vdW  Elec       q    Type
REMARK                         _______ _______ _______ _____ _____    ______ ____
ROOT
ATOM      8  C   UNL     1       4.676  -4.223  18.614  0.00  0.00    -0.008 A 
ATOM      9  C   UNL     1       5.709  -3.314  18.680  0.00  0.00    +0.032 A 
ATOM     10  C   UNL     1       6.971  -3.217  18.175  0.00  0.00    +0.148 C 
ATOM     13  C   UNL     1       7.517  -2.094  18.589  0.00  0.00    +0.114 C 
ATOM     14  N   UNL     1       6.646  -1.459  19.364  0.00  0.00    -0.238 NA
ATOM     15  C   UNL     1       5.546  -2.173  19.438  0.00  0.00    +0.158 A 
ATOM     16  N   UNL     1       4.425  -1.929  20.081  0.00  0.00    -0.236 NA
ATOM     17  C   UNL     1       3.403  -2.771  20.019  0.00  0.00    +0.114 A 
ATOM     18  C   UNL     1       3.513  -3.935  19.279  0.00  0.00    +0.028 A 
ENDROOT
BRANCH   8   7
ATOM      1  C   UNL     1       4.117  -7.769  17.478  0.00  0.00    +0.004 A 
ATOM      2  C   UNL     1       4.551  -7.681  16.160  0.00  0.00    +0.045 A 
ATOM      3  C   UNL     1       5.053  -6.488  15.685  0.00  0.00    +0.117 A 
ATOM      6  C   UNL     1       5.095  -5.349  16.480  0.00  0.00    +0.054 A 
ATOM      7  C   UNL     1       4.662  -5.426  17.801  0.00  0.00    -0.014 A 
ATOM     19  C   UNL     1       4.140  -6.616  18.271  0.00  0.00    +0.009 A 
BRANCH   3   4
ATOM      4  O   UNL     1       5.492  -6.381  14.421  0.00  0.00    -0.507 OA
ATOM      5  H   UNL     1       4.917  -5.666  13.910  0.00  0.00    +0.292 HD
ENDBRANCH   3   4
ENDBRANCH   8   7
BRANCH  10  11
ATOM     11  C   UNL     1       7.599  -4.117  17.306  0.00  0.00    +0.082 C 
ATOM     12  N   UNL     1       8.103  -4.882  16.636  0.00  0.00    -0.195 NA
ENDBRANCH  10  11
TORSDOF 3
