REMARK  Name = 5UGL
REMARK  11 active torsions:
REMARK  status: ('A' for Active; 'I' for Inactive)
REMARK    1  A    between atoms: P_1  and  N_8
REMARK    2  A    between atoms: P_5  and  N_8
REMARK    3  A    between atoms: P_5  and  O_12
REMARK    4  A    between atoms: P_9  and  O_12
REMARK    5  A    between atoms: P_9  and  O_13
REMARK    6  A    between atoms: O_13  and  C_14
REMARK    7  A    between atoms: C_14  and  C_15
REMARK    8  A    between atoms: C_17  and  O_18
REMARK    9  A    between atoms: C_19  and  O_20
REMARK   10  A    between atoms: C_21  and  N_22
REMARK   11  A    between atoms: C_26  and  N_27
REMARK                            x       y       z     vdW  Elec       q    Type
REMARK                         _______ _______ _______ _____ _____    ______ ____
ROOT
ATOM      8  C   UNL     1      24.788  42.766  16.501  0.00  0.00    +0.178 C 
ATOM      9  C   UNL     1      24.472  42.847  17.916  0.00  0.00    +0.178 C 
ATOM     10  C   UNL     1      23.068  43.077  18.021  0.00  0.00    +0.195 C 
ATOM     11  C   UNL     1      22.632  43.621  16.764  0.00  0.00    +0.253 C 
ATOM     28  O   UNL     1      23.721  43.465  15.787  0.00  0.00    -0.346 OA
ENDROOT
BRANCH  11  12
ATOM     12  N   UNL     1      21.452  42.934  16.392  0.00  0.00    -0.285 N 
ATOM     13  C   UNL     1      20.225  43.537  16.140  0.00  0.00    +0.167 A 
ATOM     14  N   UNL     1      19.788  44.821  16.130  0.00  0.00    -0.216 NA
ATOM     15  C   UNL     1      18.485  45.095  15.819  0.00  0.00    +0.225 A 
ATOM     16  N   UNL     1      17.621  44.091  15.529  0.00  0.00    -0.219 NA
ATOM     17  C   UNL     1      18.007  42.808  15.526  0.00  0.00    +0.147 A 
ATOM     21  C   UNL     1      19.338  42.486  15.837  0.00  0.00    +0.147 A 
ATOM     22  N   UNL     1      20.036  41.324  15.919  0.00  0.00    -0.231 NA
ATOM     23  C   UNL     1      21.287  41.601  16.264  0.00  0.00    +0.203 A 
BRANCH  17  18
ATOM     18  N   UNL     1      17.077  41.745  15.215  0.00  0.00    -0.341 N 
ATOM     19  H   UNL     1      16.060  41.977  14.976  0.00  0.00    +0.144 HD
ATOM     20  H   UNL     1      17.406  40.727  15.224  0.00  0.00    +0.144 HD
ENDBRANCH  17  18
ENDBRANCH  11  12
BRANCH  10  24
ATOM     24  O   UNL     1      22.829  44.051  19.027  0.00  0.00    -0.385 OA
ATOM     25  H   UNL     1      23.199  43.703  19.946  0.00  0.00    +0.210 HD
ENDBRANCH  10  24
BRANCH   9  26
ATOM     26  O   UNL     1      25.131  43.964  18.479  0.00  0.00    -0.386 OA
ATOM     27  H   UNL     1      26.168  43.857  18.356  0.00  0.00    +0.210 HD
ENDBRANCH   9  26
BRANCH   8   7
ATOM      7  C   UNL     1      24.866  41.395  16.002  0.00  0.00    +0.202 C 
BRANCH   7   6
ATOM      6  O   UNL     1      25.254  40.469  16.963  0.00  0.00    -0.325 OA
BRANCH   6   5
ATOM      5  P   UNL     1      24.444  39.116  17.084  0.00  0.00    +0.216 P 
ATOM     29  O   UNL     1      23.208  39.335  17.937  0.00  0.00    -0.437 OA
ATOM     30  O   UNL     1      24.087  38.651  15.699  0.00  0.00    -0.517 OA
BRANCH   5   4
ATOM      4  O   UNL     1      25.339  38.000  17.775  0.00  0.00    -0.306 OA
BRANCH   4   3
ATOM      3  P   UNL     1      25.889  38.290  19.246  0.00  0.00    +0.059 P 
ATOM     31  O   UNL     1      24.716  38.500  20.190  0.00  0.00    -0.333 OA
ATOM     32  O   UNL     1      26.708  39.634  19.122  0.00  0.00    -0.799 OA
BRANCH   3   2
ATOM      2  N   UNL     1      26.946  37.080  19.739  0.00  0.00    +0.435 NA
BRANCH   2   1
ATOM      1  P   UNL     1      26.671  36.301  21.196  0.00  0.00    -0.250 P 
ATOM     33  O   UNL     1      26.072  37.189  22.255  0.00  0.00    -0.687 OA
ATOM     34  O   UNL     1      28.051  35.815  21.714  0.00  0.00    -0.616 OA
ATOM     35  O   UNL     1      25.745  35.064  20.952  0.00  0.00    -0.616 OA
ENDBRANCH   2   1
ENDBRANCH   3   2
ENDBRANCH   4   3
ENDBRANCH   5   4
ENDBRANCH   6   5
ENDBRANCH   7   6
ENDBRANCH   8   7
TORSDOF 11
