REMARK  Name = 2i0v_ligand
REMARK  3 active torsions:
REMARK  status: ('A' for Active; 'I' for Inactive)
REMARK    1  A    between atoms: C7_4  and  C15_12
REMARK    2  A    between atoms: C8_5  and  C17_21
REMARK    3  A    between atoms: C19_14  and  C18_24
REMARK                            x       y       z     vdW  Elec       q    Type
REMARK                         _______ _______ _______ _____ _____    ______ ____
ROOT
ATOM      1  C   UNL     1       8.699  25.935   7.889  0.00  0.00    +0.072 A 
ATOM      2  N   UNL     1       8.922  26.432   9.173  0.00  0.00    -0.234 N 
ATOM      3  H   UNL     1       9.489  25.882   9.786  0.00  0.00    +0.224 HD
ATOM      4  C   UNL     1       8.425  27.620   9.667  0.00  0.00    +0.226 C 
ATOM      5  O   UNL     1       8.718  27.950  10.833  0.00  0.00    -0.381 OA
ATOM      6  C   UNL     1       7.542  28.490   8.737  0.00  0.00    +0.225 C 
ATOM     13  C   UNL     1       7.292  28.022   7.390  0.00  0.00    +0.121 C 
ATOM     20  C   UNL     1       9.249  24.662   7.536  0.00  0.00    +0.002 A 
ATOM     21  C   UNL     1       9.000  24.120   6.257  0.00  0.00    -0.015 A 
ATOM     22  C   UNL     1       8.209  24.847   5.341  0.00  0.00    +0.018 A 
ATOM     23 CL   UNL     1       7.872  24.194   3.803  0.00  0.00    -0.086 Cl
ATOM     24  C   UNL     1       7.668  26.107   5.679  0.00  0.00    -0.005 A 
ATOM     25  C   UNL     1       7.898  26.687   6.972  0.00  0.00    -0.001 A 
ENDROOT
BRANCH   6   7
ATOM      7  C   UNL     1       6.991  29.697   9.458  0.00  0.00    +0.158 A 
ATOM      8  O   UNL     1       7.185  30.210  10.736  0.00  0.00    -0.178 OA
ATOM      9  N   UNL     1       6.437  31.347  10.959  0.00  0.00    -0.173 NA
ATOM     10  C   UNL     1       5.772  31.557   9.821  0.00  0.00    +0.009 A 
ATOM     11  C   UNL     1       4.747  32.622   9.732  0.00  0.00    +0.083 C 
ATOM     12  C   UNL     1       6.092  30.585   8.863  0.00  0.00    -0.003 A 
ENDBRANCH   6   7
BRANCH  13  14
ATOM     14  C   UNL     1       6.495  28.807   6.375  0.00  0.00    -0.026 A 
ATOM     15  C   UNL     1       7.174  29.630   5.425  0.00  0.00    -0.002 A 
ATOM     16  C   UNL     1       6.445  30.372   4.471  0.00  0.00    -0.008 A 
ATOM     17  C   UNL     1       5.036  30.298   4.450  0.00  0.00    -0.013 A 
ATOM     18  C   UNL     1       4.354  29.476   5.379  0.00  0.00    -0.008 A 
ATOM     19  C   UNL     1       5.073  28.724   6.335  0.00  0.00    -0.002 A 
ENDBRANCH  13  14
TORSDOF 2
