REMARK  Name = 3uix_ligand
REMARK  7 active torsions:
REMARK  status: ('A' for Active; 'I' for Inactive)
REMARK    1  A    between atoms: C5_5  and  C8_8
REMARK    2  A    between atoms: C6_6  and  O7_7
REMARK    3  A    between atoms: C10_10  and  N18_18
REMARK    4  A    between atoms: N18_18  and  C19_19
REMARK    5  A    between atoms: C19_19  and  C20_20
REMARK    6  A    between atoms: C20_20  and  C21_21
REMARK    7  A    between atoms: C21_21  and  N22_22
REMARK                            x       y       z     vdW  Elec       q    Type
REMARK                         _______ _______ _______ _____ _____    ______ ____
ROOT
ATOM      6  C   UNL     1     -40.510  -2.163   0.789  0.00  0.00    +0.093 A 
ATOM      7  N   UNL     1     -41.471  -2.050  -0.139  0.00  0.00    -0.296 NA
ATOM      8  C   UNL     1     -42.744  -1.750   0.209  0.00  0.00    +0.039 A 
ATOM      9  C   UNL     1     -43.718  -1.655  -0.789  0.00  0.00    +0.020 A 
ATOM     10  C   UNL     1     -45.033  -1.335  -0.434  0.00  0.00    +0.011 A 
ATOM     11  C   UNL     1     -45.343  -1.143   0.907  0.00  0.00    +0.006 A 
ATOM     12  C   UNL     1     -44.368  -1.239   1.905  0.00  0.00    +0.027 A 
ATOM     13  C   UNL     1     -43.053  -1.546   1.545  0.00  0.00    +0.052 A 
ATOM     14  C   UNL     1     -42.040  -1.666   2.506  0.00  0.00    +0.140 A 
ATOM     24  N   UNL     1     -40.786  -1.970   2.112  0.00  0.00    -0.255 NA
ENDROOT
BRANCH   6   5
ATOM      1  C   UNL     1     -37.455  -3.115  -1.348  0.00  0.00    +0.028 A 
ATOM      2  C   UNL     1     -38.764  -2.779  -1.045  0.00  0.00    +0.107 A 
ATOM      5  C   UNL     1     -39.133  -2.508   0.379  0.00  0.00    +0.045 A 
ATOM     25  C   UNL     1     -38.179  -2.632   1.371  0.00  0.00    +0.009 A 
ATOM     26  C   UNL     1     -36.874  -2.987   1.016  0.00  0.00    -0.014 A 
ATOM     27  C   UNL     1     -36.515  -3.209  -0.312  0.00  0.00    -0.004 A 
BRANCH   2   3
ATOM      3  O   UNL     1     -39.683  -2.701  -2.051  0.00  0.00    -0.327 OA
ATOM      4  H   UNL     1     -40.383  -3.322  -1.888  0.00  0.00    +0.251 HD
ENDBRANCH   2   3
ENDBRANCH   6   5
BRANCH  14  15
ATOM     15  N   UNL     1     -42.293  -1.504   3.823  0.00  0.00    -0.293 N 
ATOM     16  H   UNL     1     -43.272  -1.507   4.143  0.00  0.00    +0.191 HD
BRANCH  15  17
ATOM     17  C   UNL     1     -41.230  -1.324   4.813  0.00  0.00    +0.145 C 
BRANCH  17  18
ATOM     18  C   UNL     1     -40.258  -2.500   5.054  0.00  0.00    +0.076 C 
BRANCH  18  19
ATOM     19  C   UNL     1     -40.877  -3.817   5.482  0.00  0.00    +0.129 C 
BRANCH  19  20
ATOM     20  N   UNL     1     -39.960  -4.571   6.351  0.00  0.00    +0.219 N 
ATOM     21  H   UNL     1     -39.105  -4.762   5.852  0.00  0.00    +0.199 HD
ATOM     22  H   UNL     1     -39.754  -4.027   7.174  0.00  0.00    +0.199 HD
ATOM     23  H   UNL     1     -40.392  -5.440   6.622  0.00  0.00    +0.199 HD
ENDBRANCH  19  20
ENDBRANCH  18  19
ENDBRANCH  17  18
ENDBRANCH  15  17
ENDBRANCH  14  15
TORSDOF 7
