REMARK  Name = 5otl
REMARK  8 active torsions:
REMARK  status: ('A' for Active; 'I' for Inactive)
REMARK    1  A    between atoms: C1_2  and  C2_4
REMARK    2  A    between atoms: C7_7  and  C8_10
REMARK    3  A    between atoms: C11_15  and  C12_18
REMARK    4  A    between atoms: C12_18  and  N_19
REMARK    5  A    between atoms: N_19  and  C13_20
REMARK    6  A    between atoms: C13_20  and  C14_21
REMARK    7  A    between atoms: C14_21  and  C15_22
REMARK    8  A    between atoms: C19_26  and  O_27
REMARK                            x       y       z     vdW  Elec       q    Type
REMARK                         _______ _______ _______ _____ _____    ______ ____
ROOT
ATOM     15  C   UNL     1       0.238 164.108 396.625  0.00  0.00    +0.116 C 
ENDROOT
BRANCH  15  16
ATOM     16  C   UNL     1      -1.141 164.145 397.246  0.00  0.00    -0.033 A 
ATOM     17  C   UNL     1      -1.355 164.732 398.490  0.00  0.00    +0.006 A 
ATOM     18  C   UNL     1      -2.622 164.782 399.055  0.00  0.00    +0.010 A 
ATOM     19  C   UNL     1      -3.723 164.237 398.388  0.00  0.00    +0.001 A 
ATOM     20  C   UNL     1      -3.500 163.675 397.132  0.00  0.00    +0.049 A 
ATOM     21 CL   UNL     1      -4.848 163.104 396.205  0.00  0.00    -0.084 Cl
ATOM     30  C   UNL     1      -2.236 163.613 396.574  0.00  0.00    +0.026 A 
BRANCH  19  22
ATOM     22  C   UNL     1      -5.059 164.197 399.067  0.00  0.00    -0.014 A 
ATOM     23  C   UNL     1      -5.238 163.230 400.062  0.00  0.00    +0.009 A 
ATOM     24  C   UNL     1      -6.495 162.985 400.592  0.00  0.00    +0.001 A 
ATOM     25  C   UNL     1      -7.584 163.709 400.154  0.00  0.00    +0.000 A 
ATOM     26  C   UNL     1      -7.421 164.696 399.198  0.00  0.00    +0.004 A 
ATOM     27  C   UNL     1      -6.167 164.959 398.645  0.00  0.00    -0.040 A 
BRANCH  27  28
ATOM     28  C   UNL     1      -6.074 166.043 397.592  0.00  0.00    +0.033 C 
ATOM     29  C   UNL     1      -5.389 167.315 398.001  0.00  0.00    +0.009 C 
ENDBRANCH  27  28
ENDBRANCH  19  22
ENDBRANCH  15  16
BRANCH  15  14
ATOM     14  N   UNL     1       0.814 162.759 396.578  0.00  0.00    -0.190 NA
BRANCH  14  13
ATOM     13  C   UNL     1       2.107 162.687 395.884  0.00  0.00    +0.089 C 
BRANCH  13  12
ATOM     12  C   UNL     1       2.152 161.539 394.880  0.00  0.00    +0.090 C 
BRANCH  12  11
ATOM      1  N   UNL     1       4.348 162.112 393.843  0.00  0.00    -0.233 NA
ATOM      2  C   UNL     1       5.452 161.429 393.362  0.00  0.00    +0.089 A 
ATOM      3  C   UNL     1       6.605 161.843 392.702  0.00  0.00    +0.033 A 
ATOM      4  C   UNL     1       7.542 160.884 392.343  0.00  0.00    +0.036 A 
ATOM      5  C   UNL     1       7.321 159.537 392.649  0.00  0.00    +0.077 A 
ATOM      8  C   UNL     1       6.162 159.122 393.304  0.00  0.00    +0.061 A 
ATOM      9  C   UNL     1       5.220 160.089 393.665  0.00  0.00    +0.068 A 
ATOM     10  N   UNL     1       3.997 159.966 394.323  0.00  0.00    -0.174 NA
ATOM     11  C   UNL     1       3.518 161.194 394.390  0.00  0.00    +0.108 A 
BRANCH   5   6
ATOM      6  O   UNL     1       8.352 158.706 392.276  0.00  0.00    -0.349 OA
ATOM      7  C   UNL     1       8.236 157.308 392.551  0.00  0.00    +0.203 C 
ENDBRANCH   5   6
ENDBRANCH  12  11
ENDBRANCH  13  12
ENDBRANCH  14  13
ENDBRANCH  15  14
TORSDOF 8
