REMARK  Name = 2ow3_ligand
REMARK  3 active torsions:
REMARK  status: ('A' for Active; 'I' for Inactive)
REMARK    1  A    between atoms: C33_22  and  N39_37
REMARK    2  A    between atoms: C40_28  and  N39_37
REMARK    3  A    between atoms: N39_37  and  C41_38
REMARK                            x       y       z     vdW  Elec       q    Type
REMARK                         _______ _______ _______ _____ _____    ______ ____
ROOT
ATOM      1  C   UNL     1     -37.423  -0.926  74.606  0.00  0.00    +0.224 C 
ATOM      2  N   UNL     1     -38.655  -1.328  75.072  0.00  0.00    -0.204 N 
ATOM      3  H   UNL     1     -39.081  -1.107  75.949  0.00  0.00    +0.220 HD
ATOM      4  C   UNL     1     -39.166  -2.101  74.059  0.00  0.00    +0.224 C 
ATOM      5  O   UNL     1     -40.254  -2.626  74.103  0.00  0.00    -0.372 OA
ATOM      6  C   UNL     1     -38.232  -2.200  72.926  0.00  0.00    +0.044 C 
ATOM      7  C   UNL     1     -38.612  -3.023  71.727  0.00  0.00    -0.005 A 
ATOM      8  C   UNL     1     -39.863  -3.207  71.172  0.00  0.00    +0.142 A 
ATOM      9  N   UNL     1     -39.780  -4.033  70.097  0.00  0.00    -0.259 N 
ATOM     10  C   UNL     1     -38.488  -4.405  69.959  0.00  0.00    +0.071 A 
ATOM     11  C   UNL     1     -37.855  -5.232  69.035  0.00  0.00    +0.014 A 
ATOM     12  C   UNL     1     -36.477  -5.432  69.135  0.00  0.00    -0.021 A 
ATOM     13  C   UNL     1     -35.745  -4.809  70.144  0.00  0.00    -0.026 A 
ATOM     14  C   UNL     1     -36.384  -3.989  71.061  0.00  0.00    -0.017 A 
ATOM     15  C   UNL     1     -40.983  -4.415  69.323  0.00  0.00    +0.175 C 
ATOM     16  C   UNL     1     -40.961  -4.552  67.784  0.00  0.00    +0.034 C 
ATOM     17  C   UNL     1     -40.850  -3.156  67.172  0.00  0.00    +0.014 C 
ATOM     18  C   UNL     1     -39.771  -3.000  66.065  0.00  0.00    +0.060 C 
ATOM     19  C   UNL     1     -38.459  -2.287  66.399  0.00  0.00    -0.004 A 
ATOM     20  C   UNL     1     -37.257  -2.544  65.716  0.00  0.00    +0.107 A 
ATOM     24  N   UNL     1     -36.126  -1.826  66.097  0.00  0.00    -0.294 NA
ATOM     25  C   UNL     1     -36.144  -0.883  67.110  0.00  0.00    +0.006 A 
ATOM     26  C   UNL     1     -34.903  -0.130  67.526  0.00  0.00    +0.080 C 
ATOM     27  C   UNL     1     -34.130  -0.976  68.555  0.00  0.00    +0.048 C 
ATOM     28  C   UNL     1     -33.709  -0.161  69.800  0.00  0.00    +0.178 C 
ATOM     29  N   UNL     1     -34.345  -0.605  71.055  0.00  0.00    -0.259 N 
ATOM     30  C   UNL     1     -33.696  -0.952  72.175  0.00  0.00    +0.071 A 
ATOM     31  C   UNL     1     -32.339  -0.984  72.458  0.00  0.00    +0.014 A 
ATOM     32  C   UNL     1     -31.927  -1.386  73.727  0.00  0.00    -0.021 A 
ATOM     33  C   UNL     1     -32.862  -1.745  74.694  0.00  0.00    -0.026 A 
ATOM     34  C   UNL     1     -34.220  -1.710  74.395  0.00  0.00    -0.017 A 
ATOM     35  C   UNL     1     -34.616  -1.305  73.127  0.00  0.00    -0.013 A 
ATOM     36  C   UNL     1     -35.874  -1.167  72.572  0.00  0.00    -0.005 A 
ATOM     37  C   UNL     1     -35.674  -0.739  71.274  0.00  0.00    +0.142 A 
ATOM     38  C   UNL     1     -37.318  -0.645  67.771  0.00  0.00    -0.003 A 
ATOM     39  C   UNL     1     -38.448  -1.331  67.414  0.00  0.00    +0.002 A 
ATOM     40  C   UNL     1     -37.754  -3.797  70.956  0.00  0.00    -0.013 A 
ATOM     41  O   UNL     1     -36.663  -0.213  75.231  0.00  0.00    -0.372 OA
ATOM     42  C   UNL     1     -37.151  -1.466  73.271  0.00  0.00    +0.044 C 
ENDROOT
BRANCH  20  21
ATOM     21  N   UNL     1     -37.067  -3.474  64.647  0.00  0.00    -0.305 N 
ATOM     22  C   UNL     1     -35.722  -4.006  64.346  0.00  0.00    +0.161 C 
ATOM     23  C   UNL     1     -38.007  -4.070  63.673  0.00  0.00    +0.161 C 
ENDBRANCH  20  21
TORSDOF 1
