REMARK  Name = 2qhm_ligand
REMARK  4 active torsions:
REMARK  status: ('A' for Active; 'I' for Inactive)
REMARK    1  A    between atoms: C12_1  and  C9_4
REMARK    2  A    between atoms: C8_3  and  N1_9
REMARK    3  A    between atoms: C9_4  and  O3_6
REMARK    4  A    between atoms: O3_6  and  C3_14
REMARK                            x       y       z     vdW  Elec       q    Type
REMARK                         _______ _______ _______ _____ _____    ______ ____
ROOT
ATOM     11  C   UNL     1      13.340  -2.288  11.716  0.00  0.00    +0.238 C 
ATOM     23  O   UNL     1      12.216  -2.319  12.162  0.00  0.00    -0.376 OA
ENDROOT
BRANCH  11   1
ATOM      1  C   UNL     1      13.837  -1.316  10.856  0.00  0.00    +0.070 A 
ATOM      2  C   UNL     1      15.177  -1.222  10.302  0.00  0.00    +0.020 A 
ATOM      3  C   UNL     1      16.423  -2.004  10.365  0.00  0.00    +0.013 A 
ATOM      4  C   UNL     1      17.685  -1.604   9.625  0.00  0.00    +0.010 A 
ATOM      5  C   UNL     1      17.656  -0.357   8.873  0.00  0.00    +0.070 A 
ATOM      6  N   UNL     1      16.440   0.432   8.849  0.00  0.00    -0.285 NA
ATOM      7  C   UNL     1      15.254  -0.022   9.504  0.00  0.00    +0.141 A 
ATOM      8  N   UNL     1      14.010   0.588   9.578  0.00  0.00    -0.255 N 
ATOM      9  H   UNL     1      13.743   1.484   9.145  0.00  0.00    +0.236 HD
ATOM     10  C   UNL     1      13.187  -0.235  10.346  0.00  0.00    +0.166 A 
ENDBRANCH  11   1
BRANCH  11  12
ATOM     12  O   UNL     1      14.245  -3.238  12.076  0.00  0.00    -0.279 OA
BRANCH  12  13
ATOM     13  C   UNL     1      13.897  -4.322  13.053  0.00  0.00    +0.161 C 
ATOM     14  C   UNL     1      13.720  -3.697  14.509  0.00  0.00    +0.091 C 
ATOM     15  C   UNL     1      15.047  -3.592  15.238  0.00  0.00    +0.067 C 
ATOM     16  N   UNL     1      15.668  -4.983  15.189  0.00  0.00    +0.237 N 
ATOM     17  H   UNL     1      14.858  -5.575  15.287  0.00  0.00    +0.204 HD
ATOM     18  C   UNL     1      16.149  -5.354  13.787  0.00  0.00    +0.067 C 
ATOM     19  C   UNL     1      16.813  -4.002  13.542  0.00  0.00    +0.060 C 
ATOM     20  C   UNL     1      16.468  -5.417  16.368  0.00  0.00    +0.191 C 
ATOM     21  C   UNL     1      16.143  -2.944  14.390  0.00  0.00    +0.060 C 
ATOM     22  C   UNL     1      14.906  -5.491  12.938  0.00  0.00    +0.091 C 
ENDBRANCH  12  13
ENDBRANCH  11  12
TORSDOF 3
