REMARK  Name = 3nw6_ligand
REMARK  3 active torsions:
REMARK  status: ('A' for Active; 'I' for Inactive)
REMARK    1  A    between atoms: C7_7  and  C19_19
REMARK    2  A    between atoms: C13_13  and  C16_16
REMARK    3  A    between atoms: C24_24  and  C26_26
REMARK                            x       y       z     vdW  Elec       q    Type
REMARK                         _______ _______ _______ _____ _____    ______ ____
ROOT
ATOM      1  N   UNL     1     -16.411   7.465  10.415  0.00  0.00    -0.176 N 
ATOM      2  N   UNL     1     -15.868   6.594   9.505  0.00  0.00    -0.174 NA
ATOM      3  C   UNL     1     -15.978   5.261   9.625  0.00  0.00    +0.117 A 
ATOM     18  N   UNL     1     -16.648   4.763  10.683  0.00  0.00    -0.266 NA
ATOM     19  C   UNL     1     -17.198   5.615  11.605  0.00  0.00    +0.170 A 
ATOM     20  N   UNL     1     -17.866   5.110  12.659  0.00  0.00    -0.247 N 
ATOM     21  H   UNL     1     -18.255   5.791  13.326  0.00  0.00    +0.217 HD
ATOM     22  C   UNL     1     -18.099   3.689  12.959  0.00  0.00    +0.100 A 
ATOM     23  N   UNL     1     -18.731   3.337  14.081  0.00  0.00    -0.227 NA
ATOM     24  N   UNL     1     -18.858   2.019  14.199  0.00  0.00    -0.233 N 
ATOM     25  H   UNL     1     -19.314   1.546  14.992  0.00  0.00    +0.246 HD
ATOM     26  C   UNL     1     -18.315   1.388  13.152  0.00  0.00    +0.062 A 
ATOM     30  C   UNL     1     -17.798   2.426  12.300  0.00  0.00    -0.003 A 
ATOM     31  C   UNL     1     -16.415   8.818  10.479  0.00  0.00    +0.130 A 
ATOM     32  C   UNL     1     -17.117   9.233  11.625  0.00  0.00    -0.045 A 
ATOM     33  C   UNL     1     -17.572   8.095  12.310  0.00  0.00    -0.032 A 
ATOM     34  C   UNL     1     -17.108   6.994  11.516  0.00  0.00    +0.144 A 
ENDROOT
BRANCH   3   4
ATOM      4  C   UNL     1     -15.362   4.376   8.596  0.00  0.00    +0.183 C 
ATOM      5  C   UNL     1     -16.385   3.741   7.640  0.00  0.00    +0.050 C 
ATOM      6  C   UNL     1     -15.828   2.304   7.398  0.00  0.00    +0.029 C 
ATOM      7  C   UNL     1     -14.935   1.972   8.610  0.00  0.00    +0.141 C 
ATOM      8  N   UNL     1     -14.573   3.279   9.164  0.00  0.00    -0.253 N 
ATOM      9  C   UNL     1     -13.619   3.541  10.107  0.00  0.00    +0.213 C 
ATOM     17  O   UNL     1     -13.169   4.668  10.253  0.00  0.00    -0.384 OA
BRANCH   9  10
ATOM     10  C   UNL     1     -13.099   2.503  10.974  0.00  0.00    +0.071 A 
ATOM     11  C   UNL     1     -11.712   2.333  11.117  0.00  0.00    +0.112 A 
ATOM     12  N   UNL     1     -11.219   1.354  11.937  0.00  0.00    -0.258 NA
ATOM     13  C   UNL     1     -12.089   0.546  12.613  0.00  0.00    +0.218 A 
ATOM     14  F   UNL     1     -11.704  -0.439  13.437  0.00  0.00    -0.150 F 
ATOM     15  C   UNL     1     -13.474   0.666  12.510  0.00  0.00    +0.077 A 
ATOM     16  C   UNL     1     -13.969   1.650  11.686  0.00  0.00    +0.050 A 
ENDBRANCH   9  10
ENDBRANCH   3   4
BRANCH  26  27
ATOM     27  C   UNL     1     -18.330  -0.147  13.047  0.00  0.00    +0.071 C 
ATOM     28  C   UNL     1     -17.589  -0.371  11.785  0.00  0.00    +0.025 C 
ATOM     29  C   UNL     1     -19.104  -0.279  11.772  0.00  0.00    +0.025 C 
ENDBRANCH  26  27
TORSDOF 3
