REMARK  Name = 3EKK
REMARK  10 active torsions:
REMARK  status: ('A' for Active; 'I' for Inactive)
REMARK    1  A    between atoms: C_1  and  N_2
REMARK    2  A    between atoms: C_3  and  C_5
REMARK    3  A    between atoms: C_11  and  N_12
REMARK    4  A    between atoms: N_16  and  C_17
REMARK    5  A    between atoms: C_25  and  O_26
REMARK    6  A    between atoms: O_26  and  C_27
REMARK    7  A    between atoms: C_28  and  C_30
REMARK    8  A    between atoms: C_30  and  N_31
REMARK    9  A    between atoms: N_31  and  C_32
REMARK   10  A    between atoms: N_31  and  C_33
REMARK                            x       y       z     vdW  Elec       q    Type
REMARK                         _______ _______ _______ _____ _____    ______ ____
ROOT
ATOM      7  N   UNL     1      -7.335  23.064 -18.555  0.00  0.00    -0.298 N 
ATOM      8  H   UNL     1      -8.141  23.321 -17.900  0.00  0.00    +0.154 HD
ATOM      9  C   UNL     1      -6.356  22.195 -18.035  0.00  0.00    +0.137 A 
ATOM     10  C   UNL     1      -6.499  21.764 -16.729  0.00  0.00    +0.061 A 
ATOM     11  C   UNL     1      -7.443  21.982 -15.691  0.00  0.00    +0.035 A 
ATOM     12  C   UNL     1      -7.035  21.261 -14.592  0.00  0.00    +0.114 A 
ATOM     13  N   UNL     1      -5.882  20.616 -14.936  0.00  0.00    -0.235 NA
ATOM     14  C   UNL     1      -5.543  20.916 -16.226  0.00  0.00    +0.167 A 
ATOM     15  N   UNL     1      -4.475  20.468 -16.877  0.00  0.00    -0.194 NA
ATOM     16  C   UNL     1      -4.401  20.925 -18.135  0.00  0.00    +0.223 A 
ATOM     17  N   UNL     1      -3.286  20.456 -18.854  0.00  0.00    -0.281 N 
ATOM     18  H   UNL     1      -2.646  19.769 -18.340  0.00  0.00    +0.155 HD
ATOM     36  N   UNL     1      -5.287  21.751 -18.714  0.00  0.00    -0.198 NA
ENDROOT
BRANCH  17  19
ATOM     19  C   UNL     1      -2.914  20.788 -20.176  0.00  0.00    +0.077 A 
ATOM     20  C   UNL     1      -1.565  20.937 -20.449  0.00  0.00    +0.142 A 
ATOM     23  C   UNL     1      -1.108  21.263 -21.713  0.00  0.00    +0.053 A 
ATOM     24  C   UNL     1      -2.036  21.431 -22.712  0.00  0.00    -0.021 A 
ATOM     25  C   UNL     1      -1.760  21.780 -24.127  0.00  0.00    +0.056 C 
ATOM     26  C   UNL     1      -3.156  21.815 -24.717  0.00  0.00    +0.118 C 
ATOM     27  N   UNL     1      -4.085  21.503 -23.642  0.00  0.00    -0.270 N 
ATOM     28  C   UNL     1      -5.459  21.372 -23.785  0.00  0.00    +0.234 C 
ATOM     33  O   UNL     1      -6.158  20.701 -23.034  0.00  0.00    -0.274 OA
ATOM     34  C   UNL     1      -3.369  21.276 -22.459  0.00  0.00    +0.042 A 
ATOM     35  C   UNL     1      -3.834  20.954 -21.200  0.00  0.00    +0.050 A 
BRANCH  20  21
ATOM     21  O   UNL     1      -0.683  20.746 -19.390  0.00  0.00    -0.493 OA
ATOM     22  C   UNL     1       0.651  20.689 -19.876  0.00  0.00    +0.277 C 
ENDBRANCH  20  21
BRANCH  28  29
ATOM     29  C   UNL     1      -6.036  22.031 -25.008  0.00  0.00    +0.180 C 
BRANCH  29  30
ATOM     30  N   UNL     1      -7.421  21.549 -25.277  0.00  0.00    -0.300 NA
ATOM     31  C   UNL     1      -7.806  21.719 -26.701  0.00  0.00    +0.105 C 
ATOM     32  C   UNL     1      -8.448  22.188 -24.420  0.00  0.00    +0.105 C 
ENDBRANCH  29  30
ENDBRANCH  28  29
ENDBRANCH  17  19
BRANCH   7   6
ATOM      5  C   UNL     1      -8.561  24.084 -20.376  0.00  0.00    +0.093 A 
ATOM      6  C   UNL     1      -7.367  23.631 -19.845  0.00  0.00    +0.047 A 
ATOM     37  C   UNL     1      -6.229  23.766 -20.614  0.00  0.00    +0.024 A 
ATOM     38  C   UNL     1      -6.275  24.333 -21.868  0.00  0.00    +0.005 A 
ATOM     39  C   UNL     1      -7.469  24.780 -22.388  0.00  0.00    +0.039 A 
ATOM     40  C   UNL     1      -8.612  24.649 -21.634  0.00  0.00    +0.137 A 
ATOM     41  F   UNL     1      -9.786  25.079 -22.134  0.00  0.00    -0.205 F 
BRANCH   5   4
ATOM      1  C   UNL     1     -12.237  23.692 -19.726  0.00  0.00    +0.128 C 
ATOM      2  N   UNL     1     -10.952  23.885 -20.352  0.00  0.00    -0.314 N 
ATOM      3  H   UNL     1     -10.886  23.953 -21.418  0.00  0.00    +0.149 HD
ATOM      4  C   UNL     1      -9.811  23.982 -19.591  0.00  0.00    +0.248 C 
ATOM     42  O   UNL     1      -9.767  24.027 -18.366  0.00  0.00    -0.270 OA
ENDBRANCH   5   4
ENDBRANCH   7   6
TORSDOF 6
