REMARK  Name = 3hv5_ligand
REMARK  11 active torsions:
REMARK  status: ('A' for Active; 'I' for Inactive)
REMARK    1  A    between atoms: C1_1  and  N38_14
REMARK    2  A    between atoms: C8_7  and  N9_18
REMARK    3  A    between atoms: C12_10  and  N9_18
REMARK    4  A    between atoms: C14_12  and  N18_21
REMARK    5  A    between atoms: N21_24  and  C22_25
REMARK    6  A    between atoms: C25_27  and  C27_28
REMARK    7  A    between atoms: C27_28  and  C29_29
REMARK    8  A    between atoms: C27_28  and  C30_30
REMARK    9  A    between atoms: C27_28  and  C28_31
REMARK   10  A    between atoms: N23_33  and  C31_34
REMARK   11  A    between atoms: C34_37  and  C37_38
REMARK                            x       y       z     vdW  Elec       q    Type
REMARK                         _______ _______ _______ _____ _____    ______ ____
ROOT
ATOM     15  N   UNL     1      13.879  -4.633  -0.155  0.00  0.00    -0.186 N 
ATOM     16  H   UNL     1      13.493  -5.062  -0.972  0.00  0.00    +0.234 HD
ATOM     17  C   UNL     1      15.141  -4.908   0.091  0.00  0.00    +0.452 C 
ATOM     18  N   UNL     1      15.680  -5.748  -0.796  0.00  0.00    -0.037 N 
ATOM     19  H   UNL     1      15.095  -5.995  -1.569  0.00  0.00    +0.399 HD
ATOM     36  O   UNL     1      15.751  -4.419   1.037  0.00  0.00    -0.319 OA
ENDROOT
BRANCH  15  14
ATOM     10  C   UNL     1      12.226  -1.800   1.569  0.00  0.00    +0.055 A 
ATOM     11  C   UNL     1      11.089  -2.485   2.020  0.00  0.00    -0.003 A 
ATOM     12  C   UNL     1      10.926  -3.848   1.758  0.00  0.00    -0.023 A 
ATOM     13  C   UNL     1      11.888  -4.521   1.008  0.00  0.00    -0.003 A 
ATOM     14  C   UNL     1      13.039  -3.853   0.545  0.00  0.00    +0.067 A 
ATOM     37  C   UNL     1      13.219  -2.497   0.833  0.00  0.00    +0.026 A 
BRANCH  10   8
ATOM      8  N   UNL     1      12.383  -0.474   1.823  0.00  0.00    -0.262 N 
ATOM      9  H   UNL     1      12.598   0.135   1.021  0.00  0.00    +0.219 HD
BRANCH   8   7
ATOM      1  C   UNL     1      11.837   3.714   2.151  0.00  0.00    +0.087 A 
ATOM      5  C   UNL     1      12.045   2.328   2.014  0.00  0.00    +0.065 A 
ATOM      6  C   UNL     1      12.127   1.523   3.150  0.00  0.00    +0.045 A 
ATOM      7  C   UNL     1      12.281   0.123   3.048  0.00  0.00    +0.096 A 
ATOM     38  C   UNL     1      12.385  -0.594   4.241  0.00  0.00    +0.048 A 
ATOM     39  C   UNL     1      12.276   0.066   5.469  0.00  0.00    +0.076 A 
ATOM     40  N   UNL     1      12.088   1.380   5.529  0.00  0.00    -0.316 NA
ATOM     41  C   UNL     1      12.006   2.114   4.419  0.00  0.00    +0.037 A 
ATOM     42  C   UNL     1      11.823   3.491   4.550  0.00  0.00    +0.023 A 
ATOM     43  C   UNL     1      11.747   4.291   3.419  0.00  0.00    +0.042 A 
BRANCH   1   2
ATOM      2  N   UNL     1      11.740   4.562   1.092  0.00  0.00    -0.218 N 
ATOM      3  O   UNL     1      11.847   4.180  -0.212  0.00  0.00    -0.490 OA
ATOM      4  O   UNL     1      11.506   5.880   1.350  0.00  0.00    -0.490 OA
ENDBRANCH   1   2
ENDBRANCH   8   7
ENDBRANCH  10   8
ENDBRANCH  15  14
BRANCH  18  20
ATOM     20  C   UNL     1      16.911  -6.311  -0.791  0.00  0.00    +0.481 A 
ATOM     21  N   UNL     1      17.485  -6.969  -1.812  0.00  0.00    +0.054 N 
ATOM     29  N   UNL     1      18.578  -7.453  -1.464  0.00  0.00    +0.025 NA
ATOM     30  C   UNL     1      18.759  -7.224  -0.175  0.00  0.00    +0.205 A 
ATOM     35  C   UNL     1      17.702  -6.518   0.284  0.00  0.00    +0.409 A 
BRANCH  21  22
ATOM     22  C   UNL     1      17.040  -7.099  -3.065  0.00  0.00    +0.164 A 
ATOM     23  C   UNL     1      17.121  -8.384  -3.654  0.00  0.00    +0.042 A 
ATOM     24  C   UNL     1      16.693  -8.559  -4.990  0.00  0.00    -0.001 A 
ATOM     25  C   UNL     1      16.176  -7.479  -5.704  0.00  0.00    -0.046 A 
ATOM     26  C   UNL     1      15.703  -7.664  -7.152  0.00  0.00    +0.087 C 
ATOM     27  C   UNL     1      16.100  -6.226  -5.121  0.00  0.00    -0.001 A 
ATOM     28  C   UNL     1      16.530  -6.028  -3.801  0.00  0.00    +0.042 A 
ENDBRANCH  21  22
BRANCH  30  31
ATOM     31  C   UNL     1      20.007  -7.685   0.629  0.00  0.00    +0.006 C 
ATOM     32  C   UNL     1      21.169  -8.216  -0.219  0.00  0.00    -0.031 C 
ATOM     33  C   UNL     1      20.581  -6.551   1.489  0.00  0.00    -0.031 C 
ATOM     34  C   UNL     1      19.513  -8.842   1.471  0.00  0.00    -0.031 C 
ENDBRANCH  30  31
ENDBRANCH  18  20
TORSDOF 7
