REMARK  Name = GUQ
REMARK  3 active torsions:
REMARK  status: ('A' for Active; 'I' for Inactive)
REMARK    1  A    between atoms: O_8  and  C1_9
REMARK    2  A    between atoms: C6_17  and  C7_18
REMARK    3  A    between atoms: C8_19  and  N1_21
REMARK                            x       y       z     vdW  Elec       q    Type
REMARK                         _______ _______ _______ _____ _____    ______ ____
ROOT
ATOM      7  C   UNL     1      13.520  92.935   7.085  0.00  0.00    +0.132 C 
ATOM      8  C   UNL     1      14.354  93.683   8.032  0.00  0.00    +0.287 C 
ATOM      9  N   UNL     1      13.866  93.443   9.310  0.00  0.00    -0.136 NA
ATOM     10  C   UNL     1      12.786  92.585   9.284  0.00  0.00    +0.273 C 
ATOM     11  O   UNL     1      12.177  92.148  10.265  0.00  0.00    -0.268 OA
ATOM     12  O   UNL     1      15.343  94.385   7.770  0.00  0.00    -0.267 OA
ATOM     13  C   UNL     1      12.541  92.259   7.875  0.00  0.00    +0.078 C 
ENDROOT
BRANCH   7   6
ATOM      1  C   UNL     1       9.161  91.263   2.178  0.00  0.00    +0.002 A 
ATOM      2  C   UNL     1       9.573  91.845   3.341  0.00  0.00    +0.020 A 
ATOM      3  C   UNL     1      10.954  92.032   3.560  0.00  0.00    +0.089 A 
ATOM      4  N   UNL     1      11.566  92.503   4.751  0.00  0.00    -0.223 NA
ATOM      5  C   UNL     1      12.875  92.464   4.638  0.00  0.00    +0.184 A 
ATOM      6  N   UNL     1      13.735  92.735   5.691  0.00  0.00    -0.184 NA
ATOM     22  S   UNL     1      13.518  91.922   3.099  0.00  0.00    -0.050 S 
ATOM     23  C   UNL     1      11.862  91.659   2.559  0.00  0.00    +0.050 A 
ATOM     24  C   UNL     1      11.423  91.082   1.392  0.00  0.00    +0.008 A 
ATOM     25  C   UNL     1      10.084  90.874   1.218  0.00  0.00    +0.001 A 
ENDBRANCH   7   6
BRANCH  13  14
ATOM     14  C   UNL     1      11.373  91.438   7.487  0.00  0.00    +0.040 A 
ATOM     15  C   UNL     1      10.074  91.824   7.846  0.00  0.00    +0.003 A 
ATOM     16  C   UNL     1       8.985  91.059   7.450  0.00  0.00    +0.000 A 
ATOM     17  C   UNL     1       9.171  89.916   6.679  0.00  0.00    +0.003 A 
ATOM     18  C   UNL     1      10.444  89.507   6.343  0.00  0.00    +0.037 A 
ATOM     19  C   UNL     1      11.543  90.262   6.746  0.00  0.00    +0.139 A 
BRANCH  19  20
ATOM     20  O   UNL     1      12.838  89.928   6.447  0.00  0.00    -0.471 OA
ATOM     21  C   UNL     1      13.038  88.804   5.607  0.00  0.00    +0.253 C 
ENDBRANCH  19  20
ENDBRANCH  13  14
TORSDOF 3
