REMARK  Name = 4U97
REMARK  5 active torsions:
REMARK  status: ('A' for Active; 'I' for Inactive)
REMARK    1  A    between atoms: C_4  and  N_34
REMARK    2  A    between atoms: C_5  and  O_32
REMARK    3  A    between atoms: C_6  and  C_7
REMARK    4  A    between atoms: O_32  and  C_33
REMARK    5  A    between atoms: N_34  and  C_35
REMARK                            x       y       z     vdW  Elec       q    Type
REMARK                         _______ _______ _______ _____ _____    ______ ____
ROOT
ATOM      1  O   UNL     1      86.670  21.369  21.331  0.00  0.00    -0.328 OA
ATOM      2  C   UNL     1      87.936  22.047  20.881  0.00  0.00    +0.174 C 
ATOM      3  N   UNL     1      88.876  22.214  21.940  0.00  0.00    -0.307 N 
ATOM      4  C   UNL     1      90.255  22.209  21.824  0.00  0.00    +0.053 A 
ATOM      5  C   UNL     1      91.140  22.014  20.749  0.00  0.00    +0.026 A 
ATOM      6  C   UNL     1      92.512  22.079  21.010  0.00  0.00    +0.002 A 
ATOM      7  C   UNL     1      93.028  22.323  22.263  0.00  0.00    +0.001 A 
ATOM      8  C   UNL     1      92.191  22.517  23.349  0.00  0.00    +0.010 A 
ATOM      9  C   UNL     1      90.805  22.453  23.096  0.00  0.00    +0.008 A 
ATOM     10  C   UNL     1      89.738  22.618  23.985  0.00  0.00    +0.015 A 
ATOM     11  C   UNL     1      89.679  22.878  25.345  0.00  0.00    -0.008 A 
ATOM     12  C   UNL     1      90.799  23.080  26.383  0.00  0.00    +0.141 C 
ATOM     13  N   UNL     1      90.165  23.327  27.643  0.00  0.00    -0.307 N 
ATOM     14  H   UNL     1      90.665  23.520  28.569  0.00  0.00    +0.149 HD
ATOM     15  C   UNL     1      88.759  23.272  27.454  0.00  0.00    +0.245 C 
ATOM     16  O   UNL     1      87.941  23.431  28.337  0.00  0.00    -0.270 OA
ATOM     17  C   UNL     1      88.469  22.993  25.987  0.00  0.00    +0.052 A 
ATOM     18  C   UNL     1      87.280  22.851  25.232  0.00  0.00    +0.022 A 
ATOM     19  C   UNL     1      85.913  22.905  25.541  0.00  0.00    +0.009 A 
ATOM     20  C   UNL     1      85.242  23.131  26.753  0.00  0.00    +0.010 A 
ATOM     21  C   UNL     1      83.848  23.117  26.723  0.00  0.00    +0.001 A 
ATOM     22  C   UNL     1      83.151  22.883  25.559  0.00  0.00    +0.002 A 
ATOM     23  C   UNL     1      83.793  22.659  24.348  0.00  0.00    +0.026 A 
ATOM     24  C   UNL     1      85.198  22.671  24.348  0.00  0.00    +0.052 A 
ATOM     25  N   UNL     1      86.129  22.493  23.343  0.00  0.00    -0.312 N 
ATOM     26  C   UNL     1      87.342  22.579  23.825  0.00  0.00    +0.077 A 
ATOM     27  C   UNL     1      88.553  22.457  23.220  0.00  0.00    +0.077 A 
ATOM     28  C   UNL     1      88.446  21.199  19.705  0.00  0.00    +0.069 C 
ATOM     29  C   UNL     1      87.570  23.427  20.424  0.00  0.00    +0.187 C 
ATOM     32  C   UNL     1      86.118  23.505  20.045  0.00  0.00    +0.091 C 
ATOM     36  C   UNL     1      85.291  23.404  21.255  0.00  0.00    +0.076 C 
ATOM     37  C   UNL     1      85.639  22.210  22.062  0.00  0.00    +0.224 C 
ENDROOT
BRANCH  32  33
ATOM     33  N   UNL     1      85.816  24.790  19.432  0.00  0.00    -0.314 NA
ATOM     34  H   UNL     1      86.281  25.569  19.999  0.00  0.00    +0.122 HD
ATOM     35  C   UNL     1      86.315  24.829  18.066  0.00  0.00    +0.101 C 
ENDBRANCH  32  33
BRANCH  29  30
ATOM     30  O   UNL     1      87.744  24.378  21.486  0.00  0.00    -0.374 OA
ATOM     31  C   UNL     1      88.771  25.352  21.319  0.00  0.00    +0.194 C 
ENDBRANCH  29  30
TORSDOF 2
