REMARK  Name = 5TTV
REMARK  4 active torsions:
REMARK  status: ('A' for Active; 'I' for Inactive)
REMARK    1  A    between atoms: C_2  and  N_13
REMARK    2  A    between atoms: C_8  and  C_15
REMARK    3  A    between atoms: C_9  and  C_10
REMARK    4  A    between atoms: C_10  and  C_11
REMARK                            x       y       z     vdW  Elec       q    Type
REMARK                         _______ _______ _______ _____ _____    ______ ____
ROOT
ATOM      9  C   UNL     1      -0.203  16.395  -4.224  0.00  0.00    +0.003 A 
ATOM     10  C   UNL     1       0.064  17.588  -4.901  0.00  0.00    +0.033 A 
ATOM     11  C   UNL     1      -0.975  18.428  -5.293  0.00  0.00    +0.034 A 
ATOM     12  C   UNL     1      -2.295  18.053  -5.053  0.00  0.00    +0.023 A 
ATOM     13  C   UNL     1      -2.567  16.865  -4.392  0.00  0.00    +0.002 A 
ATOM     20  C   UNL     1      -1.530  16.051  -3.970  0.00  0.00    +0.010 A 
ENDROOT
BRANCH   9   4
ATOM      1  N   UNL     1       3.170  14.033  -3.123  0.00  0.00    -0.216 NA
ATOM      2  C   UNL     1       3.078  15.364  -3.108  0.00  0.00    +0.224 A 
ATOM      3  N   UNL     1       2.031  16.127  -3.423  0.00  0.00    -0.235 NA
ATOM      4  C   UNL     1       0.907  15.498  -3.806  0.00  0.00    +0.084 A 
ATOM      5  C   UNL     1       0.818  14.082  -3.852  0.00  0.00    +0.047 A 
ATOM      6  C   UNL     1      -0.143  13.053  -4.153  0.00  0.00    +0.033 A 
ATOM      7  C   UNL     1       0.480  11.872  -3.930  0.00  0.00    +0.114 A 
ATOM      8  N   UNL     1       1.769  12.088  -3.516  0.00  0.00    -0.236 NA
ATOM     21  C   UNL     1       2.020  13.431  -3.473  0.00  0.00    +0.164 A 
ENDBRANCH   9   4
BRANCH  11  14
ATOM     14  N   UNL     1      -0.694  19.702  -5.833  0.00  0.00    -0.285 N 
ATOM     15  H   UNL     1       0.071  20.267  -5.342  0.00  0.00    +0.155 HD
ATOM     16  C   UNL     1      -1.282  20.290  -6.900  0.00  0.00    +0.217 C 
ATOM     17  O   UNL     1      -2.149  19.752  -7.594  0.00  0.00    -0.276 OA
BRANCH  16  18
ATOM     18  C   UNL     1      -0.782  21.684  -7.192  0.00  0.00    +0.096 C 
ATOM     19  C   UNL     1       0.729  21.737  -7.296  0.00  0.00    +0.010 C 
ENDBRANCH  16  18
ENDBRANCH  11  14
TORSDOF 3
