REMARK  Name = H83
REMARK  14 active torsions:
REMARK  status: ('A' for Active; 'I' for Inactive)
REMARK    1  A    between atoms: C8_1  and  C11_4
REMARK    2  A    between atoms: C5_13  and  C4_14
REMARK    3  A    between atoms: C4_14  and  N1_15
REMARK    4  A    between atoms: N1_15  and  C3_16
REMARK    5  A    between atoms: C3_16  and  C2_17
REMARK    6  A    between atoms: C2_17  and  C1_18
REMARK    7  A    between atoms: C1_18  and  C_19
REMARK    8  A    between atoms: C8_21  and  C11_24
REMARK    9  A    between atoms: C5_33  and  C4_34
REMARK   10  A    between atoms: C4_34  and  N1_35
REMARK   11  A    between atoms: N1_35  and  C3_36
REMARK   12  A    between atoms: C3_36  and  C2_37
REMARK   13  A    between atoms: C2_37  and  C1_38
REMARK   14  A    between atoms: C1_38  and  C_39
REMARK                            x       y       z     vdW  Elec       q    Type
REMARK                         _______ _______ _______ _____ _____    ______ ____
ROOT
ATOM      1  C   UNL     1       3.787 140.223 353.520  0.00  0.00    +0.011 A 
ATOM      2  C   UNL     1       4.935 139.674 354.085  0.00  0.00    +0.057 A 
ATOM      3  C   UNL     1       4.996 138.349 354.462  0.00  0.00    +0.009 A 
ATOM      4  C   UNL     1       3.899 137.517 354.285  0.00  0.00    -0.004 A 
ATOM     12  C   UNL     1       2.754 138.051 353.720  0.00  0.00    -0.003 A 
ATOM     13 CL   UNL     1       6.338 140.660 354.332  0.00  0.00    -0.082 Cl
ATOM     14  C   UNL     1       2.693 139.381 353.342  0.00  0.00    +0.001 A 
ENDROOT
BRANCH   1  15
ATOM     15  C   UNL     1       3.683 141.654 353.118  0.00  0.00    +0.001 A 
ATOM     16  C   UNL     1       2.603 142.434 353.521  0.00  0.00    +0.000 A 
ATOM     17  C   UNL     1       2.523 143.770 353.170  0.00  0.00    +0.000 A 
ATOM     18  C   UNL     1       3.515 144.349 352.410  0.00  0.00    +0.000 A 
ATOM     19  C   UNL     1       4.589 143.590 351.997  0.00  0.00    +0.000 A 
ATOM     20  C   UNL     1       4.675 142.254 352.347  0.00  0.00    +0.000 A 
ENDBRANCH   1  15
BRANCH   4   5
ATOM      5  C   UNL     1       3.950 136.072 354.713  0.00  0.00    +0.115 C 
BRANCH   5   6
ATOM      6  N   UNL     1       5.288 135.649 355.124  0.00  0.00    -0.213 NA
BRANCH   6   7
ATOM      7  C   UNL     1       5.465 134.199 355.066  0.00  0.00    +0.089 C 
BRANCH   7   8
ATOM      8  C   UNL     1       6.169 133.654 356.290  0.00  0.00    +0.020 C 
BRANCH   8   9
ATOM      9  C   UNL     1       6.588 132.202 356.135  0.00  0.00    +0.022 C 
BRANCH   9  10
ATOM     10  C   UNL     1       7.424 131.696 357.294  0.00  0.00    +0.109 C 
ATOM     11  N   UNL     1       8.835 131.515 356.953  0.00  0.00    -0.131 NA
ENDBRANCH   9  10
ENDBRANCH   8   9
ENDBRANCH   7   8
ENDBRANCH   6   7
ENDBRANCH   5   6
ENDBRANCH   4   5
TORSDOF 7
