REMARK  Name = 4ZS0
REMARK  1 active torsions:
REMARK  status: ('A' for Active; 'I' for Inactive)
REMARK    1  A    between atoms: C_6  and  O_7
REMARK                            x       y       z     vdW  Elec       q    Type
REMARK                         _______ _______ _______ _____ _____    ______ ____
ROOT
ATOM      1  O   UNL     1      -3.753  32.458  -9.208  0.00  0.00    -0.246 OA
ATOM      2  C   UNL     1      -4.610  31.652  -8.833  0.00  0.00    +0.334 A 
ATOM      3  N   UNL     1      -4.987  31.476  -7.572  0.00  0.00    -0.230 N 
ATOM      4  C   UNL     1      -4.464  32.140  -6.517  0.00  0.00    +0.218 A 
ATOM      5  N   UNL     1      -3.666  33.213  -6.596  0.00  0.00    -0.323 N 
ATOM      6  H   UNL     1      -3.341  33.700  -7.491  0.00  0.00    +0.169 HD
ATOM      7  C   UNL     1      -3.354  33.559  -5.345  0.00  0.00    +0.068 A 
ATOM      8  C   UNL     1      -2.587  34.550  -4.878  0.00  0.00    +0.028 A 
ATOM      9  C   UNL     1      -2.408  34.712  -3.505  0.00  0.00    +0.002 A 
ATOM     10  C   UNL     1      -3.041  33.824  -2.642  0.00  0.00    +0.002 A 
ATOM     11  C   UNL     1      -3.829  32.808  -3.180  0.00  0.00    +0.030 A 
ATOM     12  C   UNL     1      -3.963  32.702  -4.502  0.00  0.00    +0.091 A 
ATOM     13  N   UNL     1      -4.644  31.822  -5.230  0.00  0.00    -0.212 NA
ATOM     14  C   UNL     1      -5.930  30.513  -7.584  0.00  0.00    +0.078 A 
ATOM     15  C   UNL     1      -6.649  29.934  -6.601  0.00  0.00    +0.032 A 
ATOM     16  C   UNL     1      -7.597  28.945  -6.884  0.00  0.00    +0.047 A 
ATOM     17  C   UNL     1      -7.798  28.553  -8.206  0.00  0.00    +0.119 A 
ATOM     20  C   UNL     1      -7.026  29.179  -9.192  0.00  0.00    +0.073 A 
ATOM     21  C   UNL     1      -6.124  30.131  -8.864  0.00  0.00    +0.071 A 
ATOM     22  N   UNL     1      -5.298  30.848  -9.628  0.00  0.00    -0.305 N 
ATOM     23  H   UNL     1      -5.208  30.785 -10.692  0.00  0.00    +0.171 HD
ENDROOT
BRANCH  17  18
ATOM     18  O   UNL     1      -8.724  27.591  -8.512  0.00  0.00    -0.507 OA
ATOM     19  H   UNL     1      -9.449  27.994  -9.156  0.00  0.00    +0.292 HD
ENDBRANCH  17  18
TORSDOF 1
