REMARK  Name = 82V
REMARK  2 active torsions:
REMARK  status: ('A' for Active; 'I' for Inactive)
REMARK    1  A    between atoms: C17_4  and  C16_20
REMARK    2  A    between atoms: C04_11  and  N05_12
REMARK                            x       y       z     vdW  Elec       q    Type
REMARK                         _______ _______ _______ _____ _____    ______ ____
ROOT
ATOM      7  C   UNL     1     -16.906   3.474   6.554  0.00  0.00    +0.236 C 
ATOM      8  C   UNL     1     -17.991   4.038   6.035  0.00  0.00    +0.131 C 
ATOM      9  C   UNL     1     -18.404   3.834   4.612  0.00  0.00    +0.187 C 
ATOM     10  O   UNL     1     -19.337   4.452   4.100  0.00  0.00    -0.290 OA
ATOM     11  C   UNL     1     -17.546   2.814   3.997  0.00  0.00    +0.098 A 
ATOM     12  C   UNL     1     -16.579   2.140   4.623  0.00  0.00    +0.149 A 
ATOM     13  C   UNL     1     -15.876   1.172   3.738  0.00  0.00    +0.041 A 
ATOM     24  C   UNL     1     -16.428   1.239   2.506  0.00  0.00    +0.039 A 
ATOM     25  S   UNL     1     -17.696   2.362   2.333  0.00  0.00    -0.081 S 
ATOM     26  O   UNL     1     -16.325   2.387   5.923  0.00  0.00    -0.463 OA
ENDROOT
BRANCH  13  14
ATOM     14  C   UNL     1     -14.769   0.255   4.118  0.00  0.00    +0.007 A 
ATOM     15  C   UNL     1     -13.741   0.644   4.994  0.00  0.00    +0.003 A 
ATOM     16  C   UNL     1     -12.688  -0.229   5.350  0.00  0.00    +0.040 A 
ATOM     17  C   UNL     1     -12.632  -1.528   4.844  0.00  0.00    +0.172 A 
ATOM     18  O   UNL     1     -11.609  -2.363   5.178  0.00  0.00    -0.468 OA
ATOM     19  C   UNL     1     -11.844  -3.752   4.948  0.00  0.00    +0.253 C 
ATOM     20  C   UNL     1     -12.526  -4.023   3.650  0.00  0.00    +0.253 C 
ATOM     21  O   UNL     1     -13.659  -3.203   3.455  0.00  0.00    -0.468 OA
ATOM     22  C   UNL     1     -13.644  -1.954   3.980  0.00  0.00    +0.172 A 
ATOM     23  C   UNL     1     -14.667  -1.056   3.665  0.00  0.00    +0.040 A 
ENDBRANCH  13  14
BRANCH   7   6
ATOM      1  C   UNL     1     -16.826   4.704   8.805  0.00  0.00    +0.107 C 
ATOM      2  C   UNL     1     -16.219   4.684  10.210  0.00  0.00    +0.160 C 
ATOM      3  O   UNL     1     -14.942   4.191  10.219  0.00  0.00    -0.351 OA
ATOM      4  C   UNL     1     -14.955   2.841   9.935  0.00  0.00    +0.160 C 
ATOM      5  C   UNL     1     -15.571   2.522   8.546  0.00  0.00    +0.107 C 
ATOM      6  N   UNL     1     -16.454   3.581   7.904  0.00  0.00    -0.235 NA
ENDBRANCH   7   6
TORSDOF 2
