REMARK  Name = 3u9n_ligand
REMARK  4 active torsions:
REMARK  status: ('A' for Active; 'I' for Inactive)
REMARK    1  A    between atoms: C04_4  and  N13_13
REMARK    2  A    between atoms: C05_5  and  N07_7
REMARK    3  A    between atoms: C14_14  and  C16_16
REMARK    4  A    between atoms: C18_18  and  C21_21
REMARK                            x       y       z     vdW  Elec       q    Type
REMARK                         _______ _______ _______ _____ _____    ______ ____
ROOT
ATOM     13  N   UNL     1       9.176  -2.507  10.047  0.00  0.00    -0.239 N 
ATOM     14  H   UNL     1      10.126  -2.801   9.944  0.00  0.00    +0.221 HD
ATOM     15  C   UNL     1       8.885  -1.313   9.433  0.00  0.00    +0.226 C 
ATOM     30  O   UNL     1       7.871  -0.645   9.537  0.00  0.00    -0.382 OA
ENDROOT
BRANCH  13  12
ATOM      1  C   UNL     1       6.932  -5.232  12.284  0.00  0.00    -0.044 A 
ATOM      2  C   UNL     1       8.321  -5.289  12.289  0.00  0.00    -0.010 A 
ATOM      3  C   UNL     1       9.064  -4.392  11.533  0.00  0.00    +0.064 A 
ATOM     12  C   UNL     1       8.376  -3.389  10.794  0.00  0.00    +0.085 A 
ATOM     31  C   UNL     1       6.991  -3.343  10.812  0.00  0.00    -0.006 A 
ATOM     32  C   UNL     1       6.282  -4.266  11.565  0.00  0.00    -0.042 A 
BRANCH   3   4
ATOM      4  N   UNL     1      10.464  -4.387  11.555  0.00  0.00    -0.304 N 
ATOM      5  C   UNL     1      11.038  -3.351  12.497  0.00  0.00    +0.177 C 
ATOM      6  C   UNL     1      12.570  -3.270  12.365  0.00  0.00    +0.153 C 
ATOM      7  N   UNL     1      13.236  -4.561  12.561  0.00  0.00    +0.230 N 
ATOM      8  H   UNL     1      13.077  -4.888  13.501  0.00  0.00    +0.202 HD
ATOM      9  H   UNL     1      14.227  -4.462  12.403  0.00  0.00    +0.202 HD
ATOM     10  C   UNL     1      12.662  -5.533  11.582  0.00  0.00    +0.153 C 
ATOM     11  C   UNL     1      11.125  -5.705  11.686  0.00  0.00    +0.177 C 
ENDBRANCH   3   4
ENDBRANCH  13  12
BRANCH  15  16
ATOM     16  C   UNL     1       9.993  -0.861   8.612  0.00  0.00    +0.101 A 
ATOM     17  C   UNL     1       9.956   0.261   7.820  0.00  0.00    +0.125 A 
ATOM     18  S   UNL     1      11.474   0.452   7.028  0.00  0.00    +0.004 S 
ATOM     19  C   UNL     1      12.084  -0.965   7.762  0.00  0.00    +0.109 A 
ATOM     29  N   UNL     1      11.231  -1.558   8.583  0.00  0.00    -0.297 NA
BRANCH  19  20
ATOM     20  C   UNL     1      13.476  -1.402   7.537  0.00  0.00    +0.007 A 
ATOM     21  C   UNL     1      13.933  -2.545   8.198  0.00  0.00    +0.006 A 
ATOM     22  C   UNL     1      15.259  -2.939   8.032  0.00  0.00    -0.005 A 
ATOM     23  C   UNL     1      15.973  -4.119   8.591  0.00  0.00    -0.010 A 
ATOM     24  C   UNL     1      17.415  -3.760   8.210  0.00  0.00    +0.194 A 
ATOM     25  O   UNL     1      17.395  -2.729   7.165  0.00  0.00    -0.254 OA
ATOM     26  C   UNL     1      16.121  -2.204   7.235  0.00  0.00    +0.129 A 
ATOM     27  C   UNL     1      15.719  -1.060   6.575  0.00  0.00    +0.031 A 
ATOM     28  C   UNL     1      14.393  -0.658   6.739  0.00  0.00    +0.001 A 
ENDBRANCH  19  20
ENDBRANCH  15  16
TORSDOF 4
