REMARK  Name = 9HT
REMARK  6 active torsions:
REMARK  status: ('A' for Active; 'I' for Inactive)
REMARK    1  A    between atoms: CAN_2  and  NAS_3
REMARK    2  A    between atoms: CAU_4  and  CBD_6
REMARK    3  A    between atoms: CBD_6  and  CAO_7
REMARK    4  A    between atoms: CBD_6  and  CBE_9
REMARK    5  A    between atoms: CAX_20  and  OAT_21
REMARK    6  A    between atoms: CAV_25  and  CAZ_26
REMARK                            x       y       z     vdW  Elec       q    Type
REMARK                         _______ _______ _______ _____ _____    ______ ____
ROOT
ATOM      8  C   UNL     1     -17.176  -6.686  -8.310  0.00  0.00    +0.170 C 
ATOM      9  C   UNL     1     -16.197  -5.928  -7.466  0.00  0.00    +0.170 A 
ATOM     10  N   UNL     1     -14.958  -6.296  -6.987  0.00  0.00    -0.131 NA
ATOM     11  N   UNL     1     -14.443  -5.318  -6.306  0.00  0.00    -0.133 NA
ATOM     12  C   UNL     1     -15.240  -4.326  -6.285  0.00  0.00    +0.147 A 
ATOM     13  C   UNL     1     -14.956  -3.025  -5.564  0.00  0.00    +0.074 C 
ATOM     14  N   UNL     1     -16.458  -4.551  -7.005  0.00  0.00    -0.279 N 
ATOM     15  C   UNL     1     -17.685  -3.837  -7.338  0.00  0.00    +0.068 A 
ATOM     16  C   UNL     1     -18.317  -3.018  -6.413  0.00  0.00    +0.021 A 
ATOM     17  C   UNL     1     -19.506  -2.369  -6.748  0.00  0.00    +0.038 A 
ATOM     18  C   UNL     1     -20.099  -2.512  -7.993  0.00  0.00    +0.139 A 
ATOM     21  C   UNL     1     -19.493  -3.316  -8.913  0.00  0.00    +0.040 A 
ATOM     22  C   UNL     1     -18.292  -3.984  -8.578  0.00  0.00    +0.036 A 
ATOM     23  C   UNL     1     -17.683  -4.763  -9.732  0.00  0.00    +0.078 C 
ATOM     31  N   UNL     1     -17.166  -6.093  -9.620  0.00  0.00    -0.264 NA
ENDROOT
BRANCH  23  24
ATOM     24  C   UNL     1     -17.457  -4.284 -11.161  0.00  0.00    +0.017 A 
ATOM     25  C   UNL     1     -17.201  -2.972 -11.348  0.00  0.00    +0.002 A 
ATOM     26  C   UNL     1     -16.980  -2.461 -12.750  0.00  0.00    +0.011 A 
ATOM     27  C   UNL     1     -17.050  -3.329 -13.789  0.00  0.00    +0.058 A 
ATOM     28  C   UNL     1     -17.341  -4.795 -13.572  0.00  0.00    +0.011 A 
ATOM     29 CL   UNL     1     -16.805  -2.748 -15.390  0.00  0.00    -0.082 Cl
ATOM     30  C   UNL     1     -17.541  -5.251 -12.314  0.00  0.00    +0.002 A 
ENDBRANCH  23  24
BRANCH  18  19
ATOM     19  O   UNL     1     -21.316  -1.847  -8.353  0.00  0.00    -0.471 OA
ATOM     20  C   UNL     1     -21.901  -1.027  -7.365  0.00  0.00    +0.253 C 
ENDBRANCH  18  19
BRANCH   8   5
ATOM      5  C   UNL     1     -16.800  -8.138  -8.414  0.00  0.00    +0.108 C 
BRANCH   5   4
ATOM      3  N   UNL     1     -17.209  -9.823 -10.234  0.00  0.00    -0.205 NA
ATOM      4  C   UNL     1     -17.752  -8.841  -9.346  0.00  0.00    +0.243 C 
ATOM     32  O   UNL     1     -18.934  -8.580  -9.343  0.00  0.00    -0.273 OA
BRANCH   3   2
ATOM      1  C   UNL     1     -18.559 -11.771 -10.392  0.00  0.00    +0.025 C 
ATOM      2  C   UNL     1     -18.049 -10.547 -11.138  0.00  0.00    +0.115 C 
ENDBRANCH   3   2
ENDBRANCH   5   4
BRANCH   5   6
ATOM      6  C   UNL     1     -16.773  -8.839  -7.066  0.00  0.00    +0.012 C 
ATOM      7  C   UNL     1     -17.763  -8.294  -6.041  0.00  0.00    +0.001 C 
ENDBRANCH   5   6
ENDBRANCH   8   5
TORSDOF 6
