REMARK  Name = EAM
REMARK  5 active torsions:
REMARK  status: ('A' for Active; 'I' for Inactive)
REMARK    1  A    between atoms: C7_7  and  C6_8
REMARK    2  A    between atoms: C15_14  and  O2_15
REMARK    3  A    between atoms: C5_24  and  C4_25
REMARK    4  A    between atoms: C4_25  and  C3_26
REMARK    5  A    between atoms: N1_28  and  C2_29
REMARK                            x       y       z     vdW  Elec       q    Type
REMARK                         _______ _______ _______ _____ _____    ______ ____
ROOT
ATOM      6  C   UNL     1      20.341  11.414 -11.120  0.00  0.00    +0.078 C 
ATOM      7  C   UNL     1      19.071  10.735 -10.777  0.00  0.00    +0.036 A 
ATOM      8  C   UNL     1      19.027   9.632  -9.932  0.00  0.00    +0.068 A 
ATOM      9  N   UNL     1      20.233   9.082  -9.368  0.00  0.00    -0.279 N 
ATOM     10  C   UNL     1      20.473   8.493  -8.153  0.00  0.00    +0.147 A 
ATOM     11  C   UNL     1      19.527   8.452  -7.032  0.00  0.00    +0.074 C 
ATOM     12  N   UNL     1      21.682   7.977  -8.141  0.00  0.00    -0.133 NA
ATOM     13  N   UNL     1      22.250   8.217  -9.350  0.00  0.00    -0.131 NA
ATOM     14  C   UNL     1      21.388   8.871 -10.089  0.00  0.00    +0.170 A 
ATOM     15  C   UNL     1      21.507   9.385 -11.508  0.00  0.00    +0.171 C 
ATOM     22  C   UNL     1      17.811   9.041  -9.647  0.00  0.00    +0.021 A 
ATOM     23  C   UNL     1      16.636   9.536 -10.175  0.00  0.00    +0.038 A 
ATOM     24  C   UNL     1      16.702  10.638 -11.006  0.00  0.00    +0.139 A 
ATOM     27  C   UNL     1      17.902  11.242 -11.307  0.00  0.00    +0.040 A 
ATOM     28  N   UNL     1      21.452  10.849 -11.426  0.00  0.00    -0.264 NA
ENDROOT
BRANCH   6   5
ATOM      1 CL   UNL     1      20.409  17.337 -11.306  0.00  0.00    -0.082 Cl
ATOM      2  C   UNL     1      20.380  15.603 -11.250  0.00  0.00    +0.058 A 
ATOM      3  C   UNL     1      19.770  15.007 -10.173  0.00  0.00    +0.011 A 
ATOM      4  C   UNL     1      19.758  13.642 -10.124  0.00  0.00    +0.002 A 
ATOM      5  C   UNL     1      20.339  12.901 -11.135  0.00  0.00    +0.017 A 
ATOM     29  C   UNL     1      20.927  13.537 -12.204  0.00  0.00    +0.002 A 
ATOM     30  C   UNL     1      20.964  14.904 -12.279  0.00  0.00    +0.011 A 
ENDBRANCH   6   5
BRANCH  24  25
ATOM     25  O   UNL     1      15.567  11.203 -11.580  0.00  0.00    -0.471 OA
ATOM     26  C   UNL     1      14.292  10.765 -11.125  0.00  0.00    +0.253 C 
ENDBRANCH  24  25
BRANCH  15  16
ATOM     16  C   UNL     1      22.821   9.005 -12.217  0.00  0.00    +0.119 C 
BRANCH  16  17
ATOM     17  C   UNL     1      22.742   9.595 -13.598  0.00  0.00    +0.244 C 
ATOM     18  N   UNL     1      23.899   9.938 -14.150  0.00  0.00    -0.205 NA
ATOM     21  O   UNL     1      21.666   9.738 -14.160  0.00  0.00    -0.273 OA
BRANCH  18  19
ATOM     19  C   UNL     1      24.019  10.459 -15.491  0.00  0.00    +0.115 C 
ATOM     20  C   UNL     1      25.357  10.017 -16.025  0.00  0.00    +0.025 C 
ENDBRANCH  18  19
ENDBRANCH  16  17
ENDBRANCH  15  16
TORSDOF 5
