REMARK  Name = 4CFV
REMARK  4 active torsions:
REMARK  status: ('A' for Active; 'I' for Inactive)
REMARK    1  A    between atoms: C6_7  and  O6_8
REMARK    2  A    between atoms: O6_8  and  CAK_12
REMARK    3  A    between atoms: C8_10  and  CAN_14
REMARK    4  A    between atoms: CAK_12  and  CAL_13
REMARK                            x       y       z     vdW  Elec       q    Type
REMARK                         _______ _______ _______ _____ _____    ______ ____
ROOT
ATOM      1  N   UNL     1      -8.755  21.212 -22.848  0.00  0.00    -0.187 NA
ATOM      2  C   UNL     1      -7.470  21.621 -23.064  0.00  0.00    +0.200 A 
ATOM     11  C   UNL     1      -7.168  22.624 -23.903  0.00  0.00    +0.158 A 
ATOM     12  N   UNL     1      -5.975  23.233 -24.255  0.00  0.00    -0.222 NA
ATOM     13  C   UNL     1      -6.301  24.195 -25.169  0.00  0.00    +0.140 A 
ATOM     22  N   UNL     1      -7.627  24.156 -25.329  0.00  0.00    -0.153 NA
ATOM     23  C   UNL     1      -8.197  23.190 -24.579  0.00  0.00    +0.166 A 
ATOM     24  N   UNL     1      -9.516  22.802 -24.434  0.00  0.00    -0.193 NA
ATOM     25  C   UNL     1      -9.763  21.812 -23.534  0.00  0.00    +0.224 A 
ATOM     26  N   UNL     1     -10.963  21.357 -23.282  0.00  0.00    -0.049 NA
ENDROOT
BRANCH  13  14
ATOM     14  C   UNL     1      -5.515  25.044 -25.900  0.00  0.00    +0.023 A 
ATOM     15  C   UNL     1      -4.413  25.738 -25.367  0.00  0.00    -0.010 A 
ATOM     16  C   UNL     1      -4.115  25.636 -23.987  0.00  0.00    +0.048 C 
ATOM     17  C   UNL     1      -3.638  26.562 -26.225  0.00  0.00    +0.075 A 
ATOM     18  O   UNL     1      -2.593  27.254 -25.637  0.00  0.00    -0.142 OA
ATOM     19  C   UNL     1      -3.918  26.711 -27.589  0.00  0.00    +0.033 A 
ATOM     20  C   UNL     1      -4.991  25.963 -28.143  0.00  0.00    +0.004 A 
ATOM     21  C   UNL     1      -5.796  25.167 -27.313  0.00  0.00    +0.012 A 
ENDBRANCH  13  14
BRANCH   2   3
ATOM      3  O   UNL     1      -6.403  21.038 -22.455  0.00  0.00    -0.327 OA
BRANCH   3   4
ATOM      4  C   UNL     1      -6.672  20.196 -21.256  0.00  0.00    +0.173 C 
BRANCH   4   5
ATOM      5  C   UNL     1      -5.443  20.597 -20.511  0.00  0.00    +0.015 C 
ATOM      6  C   UNL     1      -4.658  19.390 -20.101  0.00  0.00    +0.006 C 
ATOM      7  C   UNL     1      -3.220  20.003 -19.742  0.00  0.00    +0.000 C 
ATOM      8  C   UNL     1      -3.400  21.019 -18.619  0.00  0.00    +0.000 C 
ATOM      9  C   UNL     1      -4.389  22.157 -18.932  0.00  0.00    +0.000 C 
ATOM     10  C   UNL     1      -5.717  21.599 -19.339  0.00  0.00    +0.006 C 
ENDBRANCH   4   5
ENDBRANCH   3   4
ENDBRANCH   2   3
TORSDOF 4
