REMARK  Name = 1q3w_ligand
REMARK  1 active torsions:
REMARK  status: ('A' for Active; 'I' for Inactive)
REMARK    1  A    between atoms: C18_18  and  N20_20
REMARK                            x       y       z     vdW  Elec       q    Type
REMARK                         _______ _______ _______ _____ _____    ______ ____
ROOT
ATOM      1  N   UNL     1      24.166 -19.574   7.262  0.00  0.00    -0.166 N 
ATOM      2  H   UNL     1      24.563 -20.144   6.543  0.00  0.00    +0.292 HD
ATOM      3  C   UNL     1      25.121 -19.057   8.057  0.00  0.00    +0.191 A 
ATOM      4  C   UNL     1      24.884 -18.163   9.183  0.00  0.00    +0.167 A 
ATOM      5  C   UNL     1      25.924 -17.959  10.164  0.00  0.00    +0.088 A 
ATOM      6  C   UNL     1      27.189 -18.623  10.050  0.00  0.00    +0.053 A 
ATOM      7  C   UNL     1      27.428 -19.510   8.934  0.00  0.00    +0.068 A 
ATOM      8  C   UNL     1      23.673 -17.484   9.389  0.00  0.00    +0.240 A 
ATOM      9  N   UNL     1      23.450 -16.227   9.956  0.00  0.00    -0.195 N 
ATOM     10  H   UNL     1      24.232 -15.652  10.302  0.00  0.00    +0.248 HD
ATOM     11  C   UNL     1      22.112 -15.770  10.039  0.00  0.00    +0.139 A 
ATOM     12  C   UNL     1      21.435 -14.580  10.468  0.00  0.00    +0.082 A 
ATOM     13  C   UNL     1      20.009 -14.498  10.386  0.00  0.00    +0.096 A 
ATOM     14  C   UNL     1      19.220 -15.595   9.875  0.00  0.00    +0.114 A 
ATOM     18  C   UNL     1      19.873 -16.806   9.437  0.00  0.00    +0.125 A 
ATOM     19  C   UNL     1      21.291 -16.933   9.499  0.00  0.00    +0.123 A 
ATOM     20  C   UNL     1      22.305 -17.956   9.165  0.00  0.00    +0.159 A 
ATOM     21  C   UNL     1      21.955 -19.223   8.387  0.00  0.00    +0.349 C 
ATOM     22  C   UNL     1      26.399 -19.717   7.956  0.00  0.00    +0.099 A 
ATOM     23  C   UNL     1      22.812 -19.535   7.167  0.00  0.00    +0.283 C 
ATOM     24  O   UNL     1      22.248 -19.730   6.092  0.00  0.00    -0.358 OA
ENDROOT
BRANCH  14  15
ATOM     15  N   UNL     1      17.725 -15.484   9.796  0.00  0.00    -0.215 N 
ATOM     16  O   UNL     1      17.059 -16.397   9.368  0.00  0.00    -0.492 OA
ATOM     17  O   UNL     1      17.134 -14.482  10.154  0.00  0.00    -0.492 OA
ENDBRANCH  14  15
TORSDOF 1
