REMARK  Name = 4ITJ
REMARK  6 active torsions:
REMARK  status: ('A' for Active; 'I' for Inactive)
REMARK    1  A    between atoms: C_1  and  C_7
REMARK    2  A    between atoms: C_7  and  C_11
REMARK    3  A    between atoms: C_7  and  N_12
REMARK    4  A    between atoms: C_8  and  C_14
REMARK    5  A    between atoms: C_17  and  C_18
REMARK    6  A    between atoms: N_20  and  C_21
REMARK                            x       y       z     vdW  Elec       q    Type
REMARK                         _______ _______ _______ _____ _____    ______ ____
ROOT
ATOM      3  N   UNL     1      19.154  -3.366  52.679  0.00  0.00    -0.304 N 
ATOM      4  H   UNL     1      18.413  -4.120  52.513  0.00  0.00    +0.150 HD
ATOM      5  C   UNL     1      20.224  -3.645  53.415  0.00  0.00    +0.258 C 
ATOM     14  O   UNL     1      20.958  -2.757  53.823  0.00  0.00    -0.269 OA
ENDROOT
BRANCH   5   6
ATOM      6  C   UNL     1      20.571  -5.063  53.745  0.00  0.00    +0.089 C 
ATOM      7  N   UNL     1      21.297  -5.466  54.806  0.00  0.00    -0.309 N 
ATOM      8  C   UNL     1      21.893  -4.662  55.918  0.00  0.00    +0.131 C 
ATOM      9  C   UNL     1      21.365  -6.789  54.700  0.00  0.00    +0.160 C 
ATOM     12  C   UNL     1      20.737  -7.321  53.584  0.00  0.00    +0.073 C 
ATOM     13  C   UNL     1      20.217  -6.191  52.976  0.00  0.00    +0.005 C 
BRANCH   9  10
ATOM     10  C   UNL     1      22.041  -7.510  55.605  0.00  0.00    +0.092 C 
ATOM     11  N   UNL     1      22.671  -8.150  56.350  0.00  0.00    -0.194 NA
ENDBRANCH   9  10
ENDBRANCH   5   6
BRANCH   3   2
ATOM      2  C   UNL     1      18.982  -2.050  52.099  0.00  0.00    +0.105 C 
ATOM     15  C   UNL     1      18.053  -2.147  50.886  0.00  0.00    +0.033 C 
BRANCH   2   1
ATOM      1  C   UNL     1      18.360  -1.121  53.089  0.00  0.00    +0.026 A 
ATOM     16  C   UNL     1      18.854   0.155  53.323  0.00  0.00    +0.049 A 
ATOM     17 CL   UNL     1      20.299   0.727  52.463  0.00  0.00    -0.083 Cl
ATOM     18  C   UNL     1      18.278   1.023  54.250  0.00  0.00    +0.020 A 
ATOM     19  C   UNL     1      17.155   0.619  54.948  0.00  0.00    +0.004 A 
ATOM     20  C   UNL     1      16.652  -0.652  54.708  0.00  0.00    +0.039 A 
ATOM     21  C   UNL     1      17.243  -1.524  53.802  0.00  0.00    +0.130 A 
ATOM     22  F   UNL     1      16.717  -2.750  53.606  0.00  0.00    -0.205 F 
ENDBRANCH   2   1
ENDBRANCH   3   2
TORSDOF 4
