REMARK  Name = 5ot6
REMARK  6 active torsions:
REMARK  status: ('A' for Active; 'I' for Inactive)
REMARK    1  A    between atoms: C3_2  and  C2_6
REMARK    2  A    between atoms: C3_2  and  N_22
REMARK    3  A    between atoms: C4_3  and  C5_7
REMARK    4  A    between atoms: C4_3  and  N_22
REMARK    5  A    between atoms: C5_7  and  C6_8
REMARK    6  A    between atoms: C13_12  and  C12_14
REMARK                            x       y       z     vdW  Elec       q    Type
REMARK                         _______ _______ _______ _____ _____    ______ ____
ROOT
ATOM      8  C   UNL     1       3.980 138.033 354.927  0.00  0.00    -0.033 A 
ATOM      9  C   UNL     1       2.824 138.485 354.307  0.00  0.00    +0.006 A 
ATOM     10  C   UNL     1       2.704 139.798 353.876  0.00  0.00    +0.010 A 
ATOM     11  C   UNL     1       3.740 140.712 354.076  0.00  0.00    +0.000 A 
ATOM     12  C   UNL     1       4.910 140.235 354.666  0.00  0.00    +0.049 A 
ATOM     13 CL   UNL     1       6.210 141.318 355.017  0.00  0.00    -0.084 Cl
ATOM     20  C   UNL     1       5.044 138.917 355.058  0.00  0.00    +0.026 A 
ENDROOT
BRANCH  11  14
ATOM     14  C   UNL     1       3.525 142.153 353.746  0.00  0.00    -0.017 A 
ATOM     15  C   UNL     1       2.326 142.795 354.070  0.00  0.00    +0.009 A 
ATOM     16  C   UNL     1       2.176 144.163 353.891  0.00  0.00    +0.001 A 
ATOM     17  C   UNL     1       3.221 144.919 353.394  0.00  0.00    +0.000 A 
ATOM     18  C   UNL     1       4.409 144.298 353.041  0.00  0.00    +0.001 A 
ATOM     19  C   UNL     1       4.553 142.927 353.198  0.00  0.00    +0.009 A 
ENDBRANCH  11  14
BRANCH   8   7
ATOM      7  C   UNL     1       4.009 136.688 355.612  0.00  0.00    +0.116 C 
BRANCH   7   6
ATOM      6  N   UNL     1       5.337 136.071 355.670  0.00  0.00    -0.190 NA
BRANCH   6   5
ATOM      5  C   UNL     1       5.465 135.106 356.760  0.00  0.00    +0.087 C 
BRANCH   5   4
ATOM      4  C   UNL     1       6.761 134.386 356.545  0.00  0.00    +0.071 C 
BRANCH   4   3
ATOM      1  C   UNL     1       6.814 131.289 358.622  0.00  0.00    +0.022 A 
ATOM      2  C   UNL     1       6.096 132.170 357.779  0.00  0.00    +0.025 A 
ATOM      3  C   UNL     1       6.935 133.202 357.447  0.00  0.00    +0.042 A 
ATOM     21  N   UNL     1       8.136 132.972 358.074  0.00  0.00    -0.261 NA
ATOM     22  C   UNL     1       8.063 131.812 358.784  0.00  0.00    +0.111 A 
ENDBRANCH   4   3
ENDBRANCH   5   4
ENDBRANCH   6   5
ENDBRANCH   7   6
ENDBRANCH   8   7
TORSDOF 6
