REMARK  Name = 2etm_ligand
REMARK  8 active torsions:
REMARK  status: ('A' for Active; 'I' for Inactive)
REMARK    1  A    between atoms: CAX_1  and  OAW_2
REMARK    2  A    between atoms: OAW_2  and  CAS_3
REMARK    3  A    between atoms: CAT_5  and  OAY_6
REMARK    4  A    between atoms: OAY_6  and  CAZ_7
REMARK    5  A    between atoms: CAU_8  and  OBA_9
REMARK    6  A    between atoms: OBA_9  and  CBB_10
REMARK    7  A    between atoms: CAF_12  and  NAE_13
REMARK    8  A    between atoms: NAI_22  and  CAJ_23
REMARK                            x       y       z     vdW  Elec       q    Type
REMARK                         _______ _______ _______ _____ _____    ______ ____
ROOT
ATOM      8  N   UNL     1      -0.993  12.610   5.389  0.00  0.00    -0.257 N 
ATOM      9  H   UNL     1      -1.079  13.493   4.865  0.00  0.00    +0.213 HD
ATOM     10  C   UNL     1       0.007  11.800   5.046  0.00  0.00    +0.193 A 
ATOM     11  N   UNL     1       0.841  12.135   3.971  0.00  0.00    -0.265 NA
ATOM     12  C   UNL     1       2.083  11.507   3.803  0.00  0.00    +0.094 A 
ATOM     13  C   UNL     1       2.499  10.544   4.716  0.00  0.00    +0.018 A 
ATOM     14  C   UNL     1       3.596   9.805   4.849  0.00  0.00    -0.020 A 
ATOM     15  C   UNL     1       3.493   9.032   5.923  0.00  0.00    +0.141 A 
ATOM     16  N   UNL     1       2.318   9.271   6.496  0.00  0.00    -0.192 N 
ATOM     23  C   UNL     1       1.675  10.196   5.785  0.00  0.00    +0.156 A 
ATOM     24  N   UNL     1       0.428  10.813   5.947  0.00  0.00    -0.240 NA
ENDROOT
BRANCH   8   7
ATOM      3  C   UNL     1      -2.834  11.058   8.141  0.00  0.00    +0.102 A 
ATOM      4  C   UNL     1      -3.657  12.125   8.500  0.00  0.00    +0.135 A 
ATOM      5  C   UNL     1      -3.596  13.320   7.787  0.00  0.00    +0.102 A 
ATOM      6  C   UNL     1      -2.726  13.441   6.707  0.00  0.00    +0.005 A 
ATOM      7  C   UNL     1      -1.893  12.385   6.347  0.00  0.00    +0.037 A 
ATOM     29  C   UNL     1      -1.945  11.199   7.078  0.00  0.00    +0.005 A 
BRANCH   3   2
ATOM      1  C   UNL     1      -2.168   9.695   9.897  0.00  0.00    +0.228 C 
ATOM      2  O   UNL     1      -2.992   9.844   8.738  0.00  0.00    -0.331 OA
ENDBRANCH   3   2
BRANCH   5  25
ATOM     25  O   UNL     1      -4.316  14.402   8.190  0.00  0.00    -0.331 OA
ATOM     26  C   UNL     1      -5.623  14.415   7.606  0.00  0.00    +0.228 C 
ENDBRANCH   5  25
BRANCH   4  27
ATOM     27  O   UNL     1      -4.525  11.994   9.540  0.00  0.00    -0.337 OA
ATOM     28  C   UNL     1      -5.765  11.435   9.090  0.00  0.00    +0.221 C 
ENDBRANCH   4  27
ENDBRANCH   8   7
BRANCH  16  17
ATOM     17  C   UNL     1       2.122   8.853   7.745  0.00  0.00    +0.168 A 
ATOM     18  N   UNL     1       2.953   7.809   8.179  0.00  0.00    -0.270 NA
ATOM     19  C   UNL     1       2.871   7.275   9.473  0.00  0.00    +0.083 A 
ATOM     20  C   UNL     1       1.943   7.794  10.369  0.00  0.00    +0.021 A 
ATOM     21  C   UNL     1       1.118   8.836   9.958  0.00  0.00    +0.024 A 
ATOM     22  C   UNL     1       1.209   9.353   8.670  0.00  0.00    +0.066 A 
ENDBRANCH  16  17
TORSDOF 5
