REMARK  Name = 5NHO
REMARK  9 active torsions:
REMARK  status: ('A' for Active; 'I' for Inactive)
REMARK    1  A    between atoms: C_1  and  C_23
REMARK    2  A    between atoms: N_4  and  C_15
REMARK    3  A    between atoms: C_8  and  C_13
REMARK    4  A    between atoms: C_10  and  C_11
REMARK    5  A    between atoms: C_10  and  N_18
REMARK    6  A    between atoms: C_11  and  O_19
REMARK    7  A    between atoms: C_12  and  O_19
REMARK    8  A    between atoms: C_14  and  N_26
REMARK    9  A    between atoms: C_21  and  C_22
REMARK                            x       y       z     vdW  Elec       q    Type
REMARK                         _______ _______ _______ _____ _____    ______ ____
ROOT
ATOM      1  C   UNL     1     -17.454  10.998  40.580  0.00  0.00    -0.005 A 
ATOM      2  C   UNL     1     -16.579  10.106  39.737  0.00  0.00    +0.048 C 
ATOM      3  C   UNL     1     -16.991  12.137  41.261  0.00  0.00    +0.097 A 
ATOM      4  N   UNL     1     -17.802  12.897  42.012  0.00  0.00    -0.212 NA
ATOM      5  C   UNL     1     -19.107  12.508  42.076  0.00  0.00    +0.221 A 
ATOM      6  N   UNL     1     -19.943  13.292  42.855  0.00  0.00    -0.269 N 
ATOM      7  H   UNL     1     -20.984  13.068  42.754  0.00  0.00    +0.156 HD
ATOM     14  N   UNL     1     -19.655  11.445  41.466  0.00  0.00    -0.222 NA
ATOM     30  C   UNL     1     -18.802  10.712  40.732  0.00  0.00    +0.120 A 
ENDROOT
BRANCH   3  15
ATOM     15  C   UNL     1     -15.596  12.594  41.258  0.00  0.00    +0.091 A 
ATOM     16  N   UNL     1     -15.198  13.460  42.256  0.00  0.00    -0.249 NA
ATOM     17  C   UNL     1     -13.884  13.752  42.075  0.00  0.00    +0.056 A 
ATOM     18  C   UNL     1     -13.023  14.653  42.902  0.00  0.00    +0.078 C 
ATOM     19  C   UNL     1     -12.000  15.338  41.951  0.00  0.00    +0.079 C 
ATOM     20  N   UNL     1     -11.368  14.322  41.053  0.00  0.00    -0.292 N 
ATOM     25  C   UNL     1     -12.046  13.226  40.555  0.00  0.00    +0.249 C 
ATOM     26  O   UNL     1     -11.589  12.491  39.694  0.00  0.00    -0.270 OA
ATOM     27  C   UNL     1     -12.722  16.449  41.165  0.00  0.00    +0.028 C 
ATOM     28  C   UNL     1     -13.420  13.087  40.977  0.00  0.00    +0.060 A 
ATOM     29  C   UNL     1     -14.499  12.354  40.454  0.00  0.00    +0.044 A 
BRANCH  20  21
ATOM     21  C   UNL     1      -9.942  14.465  40.742  0.00  0.00    +0.136 C 
BRANCH  21  22
ATOM     22  C   UNL     1      -9.606  15.572  39.764  0.00  0.00    +0.178 C 
BRANCH  22  23
ATOM     23  O   UNL     1     -10.113  15.279  38.494  0.00  0.00    -0.381 OA
ATOM     24  C   UNL     1     -10.356  16.431  37.762  0.00  0.00    +0.193 C 
ENDBRANCH  22  23
ENDBRANCH  21  22
ENDBRANCH  20  21
ENDBRANCH   3  15
BRANCH   6   8
ATOM      8  C   UNL     1     -19.656  14.323  43.748  0.00  0.00    +0.123 A 
ATOM      9  C   UNL     1     -18.604  14.540  44.607  0.00  0.00    +0.065 A 
ATOM     10  C   UNL     1     -18.904  15.739  45.230  0.00  0.00    +0.136 A 
ATOM     11  N   UNL     1     -20.055  16.255  44.807  0.00  0.00    -0.178 NA
ATOM     12  N   UNL     1     -20.511  15.362  43.880  0.00  0.00    -0.254 N 
ATOM     13  C   UNL     1     -21.776  15.621  43.197  0.00  0.00    +0.174 C 
ENDBRANCH   6   8
TORSDOF 5
