REMARK  Name = 4o0v_ligand
REMARK  8 active torsions:
REMARK  status: ('A' for Active; 'I' for Inactive)
REMARK    1  A    between atoms: C1_1  and  O2_2
REMARK    2  A    between atoms: O2_2  and  C3_3
REMARK    3  A    between atoms: C3_3  and  C4_4
REMARK    4  A    between atoms: C4_4  and  N5_5
REMARK    5  A    between atoms: C11_11  and  C22_22
REMARK    6  A    between atoms: N14_14  and  C15_15
REMARK    7  A    between atoms: C23_23  and  C24_24
REMARK    8  A    between atoms: C24_24  and  O30_30
REMARK                            x       y       z     vdW  Elec       q    Type
REMARK                         _______ _______ _______ _____ _____    ______ ____
ROOT
ATOM      5  N   UNL     1     -38.365  13.669 -13.206  0.00  0.00    -0.269 N 
ATOM      6  H   UNL     1     -39.065  13.399 -13.912  0.00  0.00    +0.191 HD
ATOM      7  C   UNL     1     -37.025  13.441 -13.432  0.00  0.00    +0.239 A 
ATOM      8  N   UNL     1     -36.511  12.464 -14.250  0.00  0.00    -0.150 N 
ATOM     18  C   UNL     1     -35.122  12.584 -14.193  0.00  0.00    +0.102 A 
ATOM     19  C   UNL     1     -34.064  11.907 -14.780  0.00  0.00    +0.032 A 
ATOM     20  C   UNL     1     -32.758  12.292 -14.511  0.00  0.00    +0.010 A 
ATOM     31  C   UNL     1     -32.502  13.358 -13.643  0.00  0.00    -0.011 A 
ATOM     32  C   UNL     1     -33.533  14.033 -13.055  0.00  0.00    -0.013 A 
ATOM     33  C   UNL     1     -34.854  13.659 -13.320  0.00  0.00    +0.019 A 
ATOM     34  N   UNL     1     -36.052  14.134 -12.892  0.00  0.00    -0.306 NA
ENDROOT
BRANCH   8   9
ATOM      9  C   UNL     1     -37.259  11.532 -14.988  0.00  0.00    +0.170 A 
ATOM     10  N   UNL     1     -38.471  11.167 -14.571  0.00  0.00    -0.228 NA
ATOM     11  C   UNL     1     -39.191  10.286 -15.257  0.00  0.00    +0.177 A 
ATOM     12  N   UNL     1     -40.446   9.926 -14.798  0.00  0.00    -0.305 N 
ATOM     13  H   UNL     1     -40.816  10.340 -13.930  0.00  0.00    +0.183 HD
ATOM     14  H   UNL     1     -41.011   9.244 -15.324  0.00  0.00    +0.183 HD
ATOM     15  N   UNL     1     -38.740   9.734 -16.373  0.00  0.00    -0.268 NA
ATOM     16  C   UNL     1     -37.542  10.045 -16.848  0.00  0.00    +0.091 A 
ATOM     17  C   UNL     1     -36.762  10.961 -16.166  0.00  0.00    +0.069 A 
ENDBRANCH   8   9
BRANCH  20  21
ATOM     21  C   UNL     1     -31.668  11.592 -15.129  0.00  0.00    -0.073 C 
ATOM     22  C   UNL     1     -30.794  10.998 -15.635  0.00  0.00    -0.068 C 
BRANCH  22  23
ATOM     23  C   UNL     1     -29.695  10.252 -16.278  0.00  0.00    +0.125 C 
ATOM     26  C   UNL     1     -29.553  10.768 -17.725  0.00  0.00    +0.047 C 
ATOM     27  C   UNL     1     -28.480   9.976 -18.469  0.00  0.00    +0.004 C 
ATOM     28  C   UNL     1     -28.888   8.506 -18.510  0.00  0.00    +0.000 C 
ATOM     29  C   UNL     1     -28.970   7.969 -17.081  0.00  0.00    +0.004 C 
ATOM     30  C   UNL     1     -30.023   8.758 -16.279  0.00  0.00    +0.047 C 
BRANCH  23  24
ATOM     24  O   UNL     1     -28.479  10.499 -15.581  0.00  0.00    -0.377 OA
ATOM     25  H   UNL     1     -28.293  11.431 -15.591  0.00  0.00    +0.211 HD
ENDBRANCH  23  24
ENDBRANCH  22  23
ENDBRANCH  20  21
BRANCH   5   4
ATOM      4  C   UNL     1     -38.785  14.299 -11.951  0.00  0.00    +0.168 C 
BRANCH   4   3
ATOM      3  C   UNL     1     -39.469  13.249 -11.070  0.00  0.00    +0.184 C 
BRANCH   3   2
ATOM      1  C   UNL     1     -40.926  11.353 -11.270  0.00  0.00    +0.193 C 
ATOM      2  O   UNL     1     -40.483  12.588 -11.832  0.00  0.00    -0.381 OA
ENDBRANCH   3   2
ENDBRANCH   4   3
ENDBRANCH   5   4
TORSDOF 7
