REMARK  Name = 3fxw_ligand
REMARK  2 active torsions:
REMARK  status: ('A' for Active; 'I' for Inactive)
REMARK    1  A    between atoms: C12_14  and  C13_15
REMARK    2  A    between atoms: C2_16  and  C4_17
REMARK                            x       y       z     vdW  Elec       q    Type
REMARK                         _______ _______ _______ _____ _____    ______ ____
ROOT
ATOM      9  C   UNL     1      20.180   4.305  15.990  0.00  0.00    +0.007 A 
ATOM     10  C   UNL     1      21.428   4.322  16.606  0.00  0.00    +0.029 A 
ATOM     11  C   UNL     1      22.438   5.162  16.141  0.00  0.00    +0.079 A 
ATOM     12  N   UNL     1      22.180   5.978  15.091  0.00  0.00    -0.305 NA
ATOM     13  C   UNL     1      20.974   5.991  14.456  0.00  0.00    +0.043 A 
ATOM     21  C   UNL     1      19.943   5.149  14.909  0.00  0.00    +0.037 A 
ENDROOT
BRANCH   9   8
ATOM      1  N   UNL     1      16.301   0.409  18.386  0.00  0.00    -0.290 N 
ATOM      2  H   UNL     1      15.953  -0.296  19.004  0.00  0.00    +0.184 HD
ATOM      3  C   UNL     1      17.448   0.973  18.709  0.00  0.00    +0.175 C 
ATOM      4  C   UNL     1      18.031   1.948  17.734  0.00  0.00    +0.041 A 
ATOM      5  C   UNL     1      17.290   2.302  16.511  0.00  0.00    +0.072 A 
ATOM      6  N   UNL     1      18.041   3.177  15.813  0.00  0.00    -0.271 N 
ATOM      7  H   UNL     1      17.810   3.604  14.905  0.00  0.00    +0.235 HD
ATOM      8  C   UNL     1      19.159   3.381  16.546  0.00  0.00    +0.064 A 
ATOM     22  C   UNL     1      15.956   1.733  16.156  0.00  0.00    +0.133 C 
ATOM     23  C   UNL     1      19.217   2.623  17.712  0.00  0.00    -0.019 A 
ATOM     24  O   UNL     1      18.059   0.666  19.737  0.00  0.00    -0.404 OA
ATOM     25  C   UNL     1      15.488   0.719  17.206  0.00  0.00    +0.153 C 
ENDBRANCH   9   8
BRANCH  13  14
ATOM     14  C   UNL     1      20.783   6.922  13.289  0.00  0.00    +0.031 A 
ATOM     15  C   UNL     1      19.936   6.565  12.116  0.00  0.00    +0.145 A 
ATOM     16  F   UNL     1      19.287   5.392  12.098  0.00  0.00    -0.180 F 
ATOM     17  C   UNL     1      19.781   7.447  11.035  0.00  0.00    +0.036 A 
ATOM     18  C   UNL     1      20.445   8.671  11.059  0.00  0.00    +0.000 A 
ATOM     19  C   UNL     1      21.255   9.016  12.135  0.00  0.00    -0.004 A 
ATOM     20  C   UNL     1      21.440   8.157  13.243  0.00  0.00    +0.010 A 
ENDBRANCH  13  14
TORSDOF 2
