REMARK  Name = 3byo_ligand
REMARK  6 active torsions:
REMARK  status: ('A' for Active; 'I' for Inactive)
REMARK    1  A    between atoms: N3_7  and  C5_8
REMARK    2  A    between atoms: C8_11  and  N7_34
REMARK    3  A    between atoms: N5_16  and  C19_26
REMARK    4  A    between atoms: C20_27  and  C26_33
REMARK    5  A    between atoms: C24_31  and  C25_32
REMARK    6  A    between atoms: N8_37  and  C31_40
REMARK                            x       y       z     vdW  Elec       q    Type
REMARK                         _______ _______ _______ _____ _____    ______ ____
ROOT
ATOM      1  C   UNL     1      25.759  35.800  82.930  0.00  0.00    +0.203 A 
ATOM      2  N   UNL     1      27.045  35.726  82.415  0.00  0.00    -0.248 N 
ATOM      3  H   UNL     1      27.157  35.048  81.647  0.00  0.00    +0.216 HD
ATOM     18  N   UNL     1      24.682  35.202  82.277  0.00  0.00    -0.257 NA
ATOM     19  C   UNL     1      23.389  35.328  82.727  0.00  0.00    +0.120 A 
ATOM     20  C   UNL     1      23.214  36.141  83.938  0.00  0.00    +0.131 A 
ATOM     21  C   UNL     1      22.007  36.496  84.618  0.00  0.00    +0.265 A 
ATOM     22  O   UNL     1      21.024  36.087  84.012  0.00  0.00    -0.372 OA
ATOM     23  N   UNL     1      21.892  37.337  85.833  0.00  0.00    -0.123 N 
ATOM     32  C   UNL     1      23.045  37.913  86.429  0.00  0.00    +0.289 A 
ATOM     33  N   UNL     1      23.176  38.793  87.550  0.00  0.00    -0.303 NA
ATOM     34  C   UNL     1      24.508  39.096  87.704  0.00  0.00    +0.016 A 
ATOM     35  C   UNL     1      25.244  39.951  88.659  0.00  0.00    -0.017 A 
ATOM     36  C   UNL     1      26.681  40.060  88.542  0.00  0.00    -0.029 A 
ATOM     37  C   UNL     1      27.424  39.358  87.515  0.00  0.00    -0.027 A 
ATOM     38  C   UNL     1      26.657  38.522  86.577  0.00  0.00    +0.014 A 
ATOM     39  C   UNL     1      25.187  38.354  86.628  0.00  0.00    +0.101 A 
ATOM     40  N   UNL     1      24.250  37.621  85.821  0.00  0.00    -0.141 N 
ATOM     41  C   UNL     1      24.371  36.768  84.633  0.00  0.00    +0.192 A 
ATOM     42  N   UNL     1      25.574  36.546  84.069  0.00  0.00    -0.219 NA
ENDROOT
BRANCH  23  24
ATOM     24  C   UNL     1      20.676  37.486  86.446  0.00  0.00    +0.109 A 
ATOM     25  C   UNL     1      19.884  38.671  86.241  0.00  0.00    -0.021 A 
ATOM     26  C   UNL     1      20.318  39.788  85.316  0.00  0.00    +0.075 C 
ATOM     27  C   UNL     1      18.608  38.762  86.916  0.00  0.00    -0.030 A 
ATOM     28  C   UNL     1      18.055  37.775  87.767  0.00  0.00    -0.039 A 
ATOM     29  C   UNL     1      18.855  36.605  87.953  0.00  0.00    -0.030 A 
ATOM     30  C   UNL     1      20.154  36.434  87.317  0.00  0.00    -0.021 A 
ATOM     31  C   UNL     1      20.981  35.179  87.517  0.00  0.00    +0.075 C 
ENDBRANCH  23  24
BRANCH   2   4
ATOM      4  C   UNL     1      28.233  36.421  82.761  0.00  0.00    +0.054 A 
ATOM      5  C   UNL     1      29.478  35.777  82.410  0.00  0.00    +0.002 A 
ATOM      6  C   UNL     1      30.672  36.421  82.868  0.00  0.00    -0.004 A 
ATOM      7  C   UNL     1      30.536  37.684  83.649  0.00  0.00    +0.030 A 
ATOM     16  C   UNL     1      29.312  38.347  83.982  0.00  0.00    -0.004 A 
ATOM     17  C   UNL     1      28.153  37.686  83.517  0.00  0.00    +0.002 A 
BRANCH   7   8
ATOM      8  N   UNL     1      31.578  38.364  84.228  0.00  0.00    -0.304 N 
ATOM      9  C   UNL     1      31.662  38.748  85.695  0.00  0.00    +0.177 C 
ATOM     10  C   UNL     1      33.020  38.275  86.206  0.00  0.00    +0.155 C 
ATOM     11  N   UNL     1      33.945  39.015  85.334  0.00  0.00    +0.236 N 
ATOM     12  H   UNL     1      33.764  40.007  85.335  0.00  0.00    +0.203 HD
ATOM     13  C   UNL     1      35.238  38.638  85.884  0.00  0.00    +0.190 C 
ATOM     14  C   UNL     1      33.995  38.460  83.971  0.00  0.00    +0.155 C 
ATOM     15  C   UNL     1      32.642  38.740  83.331  0.00  0.00    +0.177 C 
ENDBRANCH   7   8
ENDBRANCH   2   4
TORSDOF 3
