REMARK  Name = 1a9u_ligand
REMARK  5 active torsions:
REMARK  status: ('A' for Active; 'I' for Inactive)
REMARK    1  A    between atoms: C1_2  and  S1_3
REMARK    2  A    between atoms: S1_3  and  CA3_6
REMARK    3  A    between atoms: CA6_9  and  CC2_17
REMARK    4  A    between atoms: CB4_13  and  CC5_20
REMARK    5  A    between atoms: CC4_19  and  CD6_26
REMARK                            x       y       z     vdW  Elec       q    Type
REMARK                         _______ _______ _______ _____ _____    ______ ____
ROOT
ATOM      8  C   UNL     1       2.255  15.490  28.183  0.00  0.00    +0.142 A 
ATOM      9  N   UNL     1       3.576  15.169  28.381  0.00  0.00    -0.304 NA
ATOM     10  C   UNL     1       3.553  13.784  28.563  0.00  0.00    +0.043 A 
ATOM     11  C   UNL     1       2.150  13.303  28.479  0.00  0.00    +0.102 A 
ATOM     25  N   UNL     1       1.347  14.432  28.206  0.00  0.00    -0.249 N 
ATOM     26  H   UNL     1       0.328  14.466  28.058  0.00  0.00    +0.237 HD
ENDROOT
BRANCH  10  18
ATOM     18  C   UNL     1       4.755  13.110  28.880  0.00  0.00    -0.023 A 
ATOM     19  C   UNL     1       5.338  13.337  30.169  0.00  0.00    -0.001 A 
ATOM     20  C   UNL     1       6.535  12.707  30.543  0.00  0.00    +0.030 A 
ATOM     21  C   UNL     1       7.189  11.834  29.638  0.00  0.00    +0.130 A 
ATOM     22  C   UNL     1       6.636  11.584  28.339  0.00  0.00    +0.030 A 
ATOM     23  F   UNL     1       8.355  11.233  30.035  0.00  0.00    -0.185 F 
ATOM     24  C   UNL     1       5.427  12.219  27.960  0.00  0.00    -0.001 A 
ENDBRANCH  10  18
BRANCH   8   6
ATOM      3  C   UNL     1       1.069  19.579  27.613  0.00  0.00    +0.040 A 
ATOM      4  C   UNL     1       0.075  18.563  27.590  0.00  0.00    +0.020 A 
ATOM      5  C   UNL     1       0.463  17.215  27.773  0.00  0.00    +0.019 A 
ATOM      6  C   UNL     1       1.852  16.853  27.972  0.00  0.00    +0.030 A 
ATOM      7  C   UNL     1       2.826  17.933  27.981  0.00  0.00    +0.019 A 
ATOM     27  C   UNL     1       2.444  19.278  27.802  0.00  0.00    +0.020 A 
BRANCH   3   2
ATOM      1  O   UNL     1      -0.940  21.570  27.801  0.00  0.00    -0.252 OA
ATOM      2  S   UNL     1       0.588  21.264  27.403  0.00  0.00    +0.052 S 
ATOM     28  C   UNL     1       1.767  22.346  28.287  0.00  0.00    +0.127 C 
ENDBRANCH   3   2
ENDBRANCH   8   6
BRANCH  11  12
ATOM     12  C   UNL     1       1.572  11.953  28.598  0.00  0.00    +0.023 A 
ATOM     13  C   UNL     1       0.560  11.449  27.685  0.00  0.00    +0.040 A 
ATOM     14  C   UNL     1       0.033  10.130  27.884  0.00  0.00    +0.087 A 
ATOM     15  N   UNL     1       0.469   9.354  28.905  0.00  0.00    -0.304 NA
ATOM     16  C   UNL     1       1.408   9.765  29.789  0.00  0.00    +0.087 A 
ATOM     17  C   UNL     1       1.989  11.057  29.683  0.00  0.00    +0.040 A 
ENDBRANCH  11  12
TORSDOF 4
