REMARK  Name = 3kag_ligand
REMARK  6 active torsions:
REMARK  status: ('A' for Active; 'I' for Inactive)
REMARK    1  A    between atoms: C9_9  and  C10_10
REMARK    2  A    between atoms: C10_10  and  C11_11
REMARK    3  A    between atoms: C11_11  and  C12_12
REMARK    4  A    between atoms: C11_11  and  N15_15
REMARK    5  A    between atoms: C16_16  and  C17_17
REMARK    6  A    between atoms: C19_19  and  C23_23
REMARK                            x       y       z     vdW  Elec       q    Type
REMARK                         _______ _______ _______ _____ _____    ______ ____
ROOT
ATOM      9  CA  UNL     1     -36.979  27.519  24.088  0.00  0.00    +0.186 C 
ENDROOT
BRANCH   9  10
ATOM     10  N   UNL     1     -36.502  27.336  22.710  0.00  0.00    -0.274 N 
ATOM     11  H   UNL     1     -37.133  26.977  22.023  0.00  0.00    +0.186 HD
ATOM     12  C   UNL     1     -35.257  27.633  22.349  0.00  0.00    +0.176 C 
ATOM     13  O   UNL     1     -34.406  28.078  23.118  0.00  0.00    -0.404 OA
BRANCH  12  14
ATOM     14  C   UNL     1     -34.933  27.381  20.875  0.00  0.00    +0.044 A 
ATOM     15  C   UNL     1     -34.292  26.320  20.393  0.00  0.00    -0.028 A 
ATOM     16  C   UNL     1     -34.201  26.461  19.065  0.00  0.00    +0.161 A 
ATOM     17  O   UNL     1     -34.799  27.645  18.681  0.00  0.00    -0.258 OA
ATOM     18  C   UNL     1     -35.256  28.218  19.825  0.00  0.00    +0.120 A 
ATOM     19  C   UNL     1     -35.998  29.552  19.932  0.00  0.00    +0.142 C 
ENDBRANCH  12  14
ENDBRANCH   9  10
BRANCH   9  20
ATOM     20  C   UNL     1     -38.356  28.185  24.069  0.00  0.00    +0.063 C 
ATOM     21  OXT UNL     1     -39.070  28.109  23.070  0.00  0.00    -0.566 OA
ATOM     22  O   UNL     1     -38.762  28.803  25.051  0.00  0.00    -0.566 OA
ENDBRANCH   9  20
BRANCH   9   8
ATOM      8  C   UNL     1     -37.080  26.157  24.778  0.00  0.00    +0.179 C 
BRANCH   8   7
ATOM      1  C   UNL     1     -31.694  24.247  26.667  0.00  0.00    -0.027 A 
ATOM      2  C   UNL     1     -32.826  24.952  27.057  0.00  0.00    -0.012 A 
ATOM      3  C   UNL     1     -33.876  25.121  26.163  0.00  0.00    +0.021 A 
ATOM      4  C   UNL     1     -33.796  24.589  24.886  0.00  0.00    +0.078 A 
ATOM      5  N   UNL     1     -34.926  24.901  24.259  0.00  0.00    -0.246 N 
ATOM      6  H   UNL     1     -35.169  24.647  23.291  0.00  0.00    +0.232 HD
ATOM      7  C   UNL     1     -35.691  25.599  25.097  0.00  0.00    +0.125 A 
ATOM     23  C   UNL     1     -32.665  23.883  24.493  0.00  0.00    +0.012 A 
ATOM     24  N   UNL     1     -35.051  25.734  26.259  0.00  0.00    -0.318 NA
ATOM     25  C   UNL     1     -31.613  23.712  25.386  0.00  0.00    -0.024 A 
ENDBRANCH   8   7
ENDBRANCH   9   8
TORSDOF 5
