REMARK  Name = 1wbt_ligand
REMARK  6 active torsions:
REMARK  status: ('A' for Active; 'I' for Inactive)
REMARK    1  A    between atoms: C4_4  and  N28_28
REMARK    2  A    between atoms: C6_6  and  C8_8
REMARK    3  A    between atoms: N10_10  and  C11_11
REMARK    4  A    between atoms: N17_17  and  C18_18
REMARK    5  A    between atoms: C18_18  and  C19_19
REMARK    6  A    between atoms: C19_19  and  C20_20
REMARK                            x       y       z     vdW  Elec       q    Type
REMARK                         _______ _______ _______ _____ _____    ______ ____
ROOT
ATOM      5  C   UNL     1       6.169  13.820  35.985  0.00  0.00    +0.227 C 
ATOM      6  N   UNL     1       6.864  13.740  34.801  0.00  0.00    -0.239 N 
ATOM      7  H   UNL     1       7.604  14.395  34.649  0.00  0.00    +0.224 HD
ATOM     25  O   UNL     1       5.192  13.117  36.215  0.00  0.00    -0.374 OA
ENDROOT
BRANCH   6   8
ATOM      8  C   UNL     1       6.604  12.800  33.792  0.00  0.00    +0.053 A 
ATOM      9  C   UNL     1       5.380  12.769  33.151  0.00  0.00    +0.015 A 
ATOM     10  C   UNL     1       5.178  11.821  32.144  0.00  0.00    +0.052 A 
ATOM     11  N   UNL     1       4.086  11.553  31.369  0.00  0.00    -0.271 N 
ATOM     20  C   UNL     1       4.393  10.514  30.503  0.00  0.00    +0.105 A 
ATOM     21  C   UNL     1       5.664  10.075  30.682  0.00  0.00    -0.046 A 
ATOM     22  C   UNL     1       6.213  10.913  31.757  0.00  0.00    -0.039 A 
ATOM     23  C   UNL     1       7.447  10.974  32.407  0.00  0.00    -0.031 A 
ATOM     24  C   UNL     1       7.623  11.927  33.383  0.00  0.00    -0.009 A 
BRANCH  11  12
ATOM     12  C   UNL     1       2.802  12.272  31.477  0.00  0.00    +0.186 C 
BRANCH  12  13
ATOM     13  C   UNL     1       2.016  11.711  32.674  0.00  0.00    +0.110 C 
BRANCH  13  14
ATOM     14  C   UNL     1       1.687  10.269  32.417  0.00  0.00    -0.021 A 
ATOM     15  C   UNL     1       2.456   9.253  32.981  0.00  0.00    +0.033 A 
ATOM     16  C   UNL     1       2.139   7.934  32.700  0.00  0.00    +0.083 A 
ATOM     17  N   UNL     1       1.114   7.629  31.909  0.00  0.00    -0.307 NA
ATOM     18  C   UNL     1       0.378   8.567  31.338  0.00  0.00    +0.083 A 
ATOM     19  C   UNL     1       0.630   9.918  31.566  0.00  0.00    +0.033 A 
ENDBRANCH  13  14
ENDBRANCH  12  13
ENDBRANCH  11  12
ENDBRANCH   6   8
BRANCH   5   4
ATOM      1  F   UNL     1       8.517  17.871  37.342  0.00  0.00    -0.186 F 
ATOM      2  C   UNL     1       7.778  16.786  37.680  0.00  0.00    +0.126 A 
ATOM      3  C   UNL     1       7.377  15.907  36.691  0.00  0.00    +0.033 A 
ATOM      4  C   UNL     1       6.601  14.797  37.030  0.00  0.00    +0.042 A 
ATOM     26  C   UNL     1       6.239  14.584  38.383  0.00  0.00    +0.025 A 
ATOM     27  C   UNL     1       6.634  15.446  39.404  0.00  0.00    +0.044 A 
ATOM     34  C   UNL     1       7.396  16.571  39.015  0.00  0.00    +0.046 A 
BRANCH  27  28
ATOM     28  N   UNL     1       6.198  15.236  40.758  0.00  0.00    -0.304 N 
ATOM     29  C   UNL     1       6.752  16.199  41.722  0.00  0.00    +0.157 C 
ATOM     30  C   UNL     1       6.214  16.043  43.135  0.00  0.00    +0.183 C 
ATOM     31  O   UNL     1       6.073  14.695  43.561  0.00  0.00    -0.376 OA
ATOM     32  C   UNL     1       5.399  13.895  42.593  0.00  0.00    +0.183 C 
ATOM     33  C   UNL     1       6.157  13.864  41.269  0.00  0.00    +0.157 C 
ENDBRANCH  27  28
ENDBRANCH   5   4
TORSDOF 6
