REMARK  Name = 4L42
REMARK  6 active torsions:
REMARK  status: ('A' for Active; 'I' for Inactive)
REMARK    1  A    between atoms: C_1  and  N_25
REMARK    2  A    between atoms: C_2  and  C_26
REMARK    3  A    between atoms: C_7  and  C_10
REMARK    4  A    between atoms: C_18  and  C_19
REMARK    5  A    between atoms: C_19  and  N_20
REMARK    6  A    between atoms: C_26  and  C_27
REMARK                            x       y       z     vdW  Elec       q    Type
REMARK                         _______ _______ _______ _____ _____    ______ ____
ROOT
ATOM      7  C   UNL     1      40.266 -20.616  -0.566  0.00  0.00    +0.158 C 
ENDROOT
BRANCH   7   8
ATOM      8  C   UNL     1      40.571 -20.024   0.813  0.00  0.00    +0.122 A 
ATOM      9  N   UNL     1      39.649 -19.659   1.704  0.00  0.00    -0.341 N 
ATOM     10  H   UNL     1      38.589 -19.705   1.567  0.00  0.00    +0.167 HD
ATOM     11  C   UNL     1      40.276 -19.229   2.788  0.00  0.00    +0.067 A 
ATOM     12  C   UNL     1      41.639 -19.333   2.553  0.00  0.00    +0.089 A 
ATOM     13  C   UNL     1      42.551 -18.940   3.529  0.00  0.00    +0.030 A 
ATOM     14  C   UNL     1      42.092 -18.441   4.742  0.00  0.00    +0.014 A 
ATOM     15  C   UNL     1      40.723 -18.344   4.970  0.00  0.00    +0.057 A 
ATOM     20  C   UNL     1      39.817 -18.733   3.995  0.00  0.00    +0.040 A 
ATOM     21  N   UNL     1      41.786 -19.831   1.329  0.00  0.00    -0.231 NA
BRANCH  15  16
ATOM     16  C   UNL     1      40.198 -17.793   6.277  0.00  0.00    +0.417 C 
ATOM     17  F   UNL     1      38.878 -17.806   6.237  0.00  0.00    -0.166 F 
ATOM     18  F   UNL     1      40.662 -16.551   6.405  0.00  0.00    -0.166 F 
ATOM     19  F   UNL     1      40.597 -18.559   7.279  0.00  0.00    -0.166 F 
ENDBRANCH  15  16
ENDBRANCH   7   8
BRANCH   7   5
ATOM      2  N   UNL     1      38.836 -24.695  -0.339  0.00  0.00    -0.313 N 
ATOM      3  C   UNL     1      37.911 -23.526  -0.195  0.00  0.00    +0.122 C 
ATOM      4  C   UNL     1      38.485 -22.326  -0.951  0.00  0.00    +0.104 C 
ATOM      5  N   UNL     1      39.778 -22.002  -0.339  0.00  0.00    -0.292 NA
ATOM      6  C   UNL     1      40.817 -23.072  -0.357  0.00  0.00    +0.104 C 
ATOM     22  C   UNL     1      40.271 -24.466  -0.722  0.00  0.00    +0.122 C 
BRANCH   2   1
ATOM      1  C   UNL     1      38.354 -26.050  -0.341  0.00  0.00    +0.128 A 
ATOM     23  N   UNL     1      39.158 -26.983  -0.904  0.00  0.00    -0.221 NA
ATOM     24  C   UNL     1      38.802 -28.255  -0.981  0.00  0.00    +0.223 A 
ATOM     25  N   UNL     1      37.632 -28.657  -0.510  0.00  0.00    -0.243 NA
ATOM     26  C   UNL     1      36.786 -27.814   0.048  0.00  0.00    +0.119 A 
ATOM     27  C   UNL     1      37.106 -26.466   0.157  0.00  0.00    +0.010 A 
BRANCH  27  28
ATOM     28  C   UNL     1      36.045 -25.586   0.812  0.00  0.00    +0.037 C 
ATOM     29  C   UNL     1      36.617 -24.848   2.021  0.00  0.00    +0.009 C 
ENDBRANCH  27  28
ENDBRANCH   2   1
ENDBRANCH   7   5
TORSDOF 5
