REMARK  Name = DJQ
REMARK  5 active torsions:
REMARK  status: ('A' for Active; 'I' for Inactive)
REMARK    1  A    between atoms: C4_1  and  C2_10
REMARK    2  A    between atoms: C7_2  and  C9_15
REMARK    3  A    between atoms: C9_15  and  N10_16
REMARK    4  A    between atoms: C18_22  and  C19_23
REMARK    5  A    between atoms: N29_29  and  C31_31
REMARK                            x       y       z     vdW  Elec       q    Type
REMARK                         _______ _______ _______ _____ _____    ______ ____
ROOT
ATOM      6  N   UNL     1      -3.949  -7.417  15.116  0.00  0.00    -0.252 N 
ATOM      7  C   UNL     1      -4.336  -8.045  16.405  0.00  0.00    +0.191 C 
ATOM      8  N   UNL     1      -4.488  -6.865  17.308  0.00  0.00    -0.286 N 
ATOM     15  C   UNL     1      -4.698  -5.618  16.503  0.00  0.00    +0.131 C 
ATOM     16  C   UNL     1      -3.930  -4.477  17.188  0.00  0.00    +0.049 C 
ATOM     17  C   UNL     1      -4.308  -3.080  16.678  0.00  0.00    +0.096 C 
ATOM     18  N   UNL     1      -5.768  -2.901  16.626  0.00  0.00    -0.276 N 
ATOM     19  C   UNL     1      -6.480  -1.957  17.386  0.00  0.00    +0.249 C 
ATOM     29  O   UNL     1      -7.695  -1.787  17.154  0.00  0.00    -0.270 OA
ATOM     30  C   UNL     1      -6.451  -3.858  15.746  0.00  0.00    +0.096 C 
ATOM     31  C   UNL     1      -6.204  -5.294  16.276  0.00  0.00    +0.049 C 
ATOM     32  C   UNL     1      -4.074  -6.002  15.156  0.00  0.00    +0.243 C 
ATOM     33  O   UNL     1      -3.727  -5.253  14.254  0.00  0.00    -0.273 OA
ENDROOT
BRANCH  19  20
ATOM     20  C   UNL     1      -5.790  -1.120  18.426  0.00  0.00    +0.054 A 
ATOM     21  C   UNL     1      -5.044  -1.680  19.461  0.00  0.00    +0.008 A 
ATOM     22  C   UNL     1      -4.446  -0.807  20.365  0.00  0.00    +0.041 A 
ATOM     23  C   UNL     1      -3.574  -0.964  21.479  0.00  0.00    +0.124 A 
ATOM     24  N   UNL     1      -3.251   0.234  21.984  0.00  0.00    -0.146 NA
ATOM     25  N   UNL     1      -3.882   1.177  21.242  0.00  0.00    -0.148 NA
ATOM     26  C   UNL     1      -4.625   0.596  20.230  0.00  0.00    +0.104 A 
ATOM     27  C   UNL     1      -5.383   1.153  19.199  0.00  0.00    +0.021 A 
ATOM     28  C   UNL     1      -5.952   0.279  18.310  0.00  0.00    +0.006 A 
ENDBRANCH  19  20
BRANCH   8   9
ATOM      9  C   UNL     1      -4.937  -7.042  18.701  0.00  0.00    +0.049 A 
ATOM     10  C   UNL     1      -5.617  -6.078  19.470  0.00  0.00    +0.015 A 
ATOM     11  C   UNL     1      -5.945  -6.336  20.796  0.00  0.00    +0.001 A 
ATOM     12  C   UNL     1      -5.588  -7.557  21.358  0.00  0.00    +0.000 A 
ATOM     13  C   UNL     1      -4.924  -8.521  20.610  0.00  0.00    +0.001 A 
ATOM     14  C   UNL     1      -4.595  -8.273  19.270  0.00  0.00    +0.015 A 
ENDBRANCH   8   9
BRANCH   6   5
ATOM      5  C   UNL     1      -3.477  -8.241  14.014  0.00  0.00    +0.183 C 
BRANCH   5   4
ATOM      1  C   UNL     1       0.039  -8.858  13.491  0.00  0.00    +0.180 A 
ATOM      2  N   UNL     1       0.054  -7.819  14.355  0.00  0.00    -0.061 NA
ATOM      3  O   UNL     1      -1.210  -7.529  14.609  0.00  0.00    -0.336 OA
ATOM      4  C   UNL     1      -2.000  -8.388  13.907  0.00  0.00    +0.257 A 
ATOM     34  N   UNL     1      -1.291  -9.250  13.189  0.00  0.00    -0.194 NA
BRANCH   1  35
ATOM     35  C   UNL     1       1.219  -9.459  12.911  0.00  0.00    +0.062 C 
ATOM     36  C   UNL     1       2.508  -8.668  13.068  0.00  0.00    +0.008 C 
ATOM     37  C   UNL     1       1.833  -8.747  11.720  0.00  0.00    +0.008 C 
ENDBRANCH   1  35
ENDBRANCH   5   4
ENDBRANCH   6   5
TORSDOF 5
