REMARK  Name = 4ZEG
REMARK  10 active torsions:
REMARK  status: ('A' for Active; 'I' for Inactive)
REMARK    1  A    between atoms: C_1  and  C_8
REMARK    2  A    between atoms: C_4  and  O_33
REMARK    3  A    between atoms: C_7  and  C_11
REMARK    4  A    between atoms: C_12  and  C_13
REMARK    5  A    between atoms: N_21  and  C_22
REMARK    6  A    between atoms: C_22  and  C_23
REMARK    7  A    between atoms: C_23  and  N_24
REMARK    8  A    between atoms: N_24  and  C_26
REMARK    9  A    between atoms: C_28  and  O_33
REMARK   10  A    between atoms: N_37  and  C_38
REMARK                            x       y       z     vdW  Elec       q    Type
REMARK                         _______ _______ _______ _____ _____    ______ ____
ROOT
ATOM      1  C   UNL     1      35.860  33.116  67.431  0.00  0.00    +0.054 C 
ATOM      2  C   UNL     1      35.349  34.261  66.846  0.00  0.00    +0.314 C 
ATOM      3  N   UNL     1      34.632  33.898  65.776  0.00  0.00    -0.091 N 
ATOM      4  N   UNL     1      34.679  32.555  65.620  0.00  0.00    -0.198 N 
ATOM      5  H   UNL     1      34.243  31.994  64.820  0.00  0.00    +0.194 HD
ATOM      6  C   UNL     1      34.005  34.795  64.949  0.00  0.00    +0.286 C 
ATOM      7  C   UNL     1      34.081  36.110  65.273  0.00  0.00    +0.161 C 
ATOM      8  C   UNL     1      34.811  36.459  66.377  0.00  0.00    +0.228 C 
ATOM     26  N   UNL     1      35.451  35.590  67.195  0.00  0.00    -0.190 NA
ATOM     27  C   UNL     1      35.396  32.042  66.688  0.00  0.00    +0.121 C 
ENDROOT
BRANCH   1  28
ATOM     28  C   UNL     1      36.702  33.070  68.710  0.00  0.00    -0.014 A 
ATOM     29  C   UNL     1      37.312  34.239  69.208  0.00  0.00    +0.012 A 
ATOM     30  C   UNL     1      38.066  34.295  70.376  0.00  0.00    -0.038 A 
ATOM     31  C   UNL     1      38.193  33.107  71.092  0.00  0.00    +0.040 A 
ATOM     39  C   UNL     1      37.588  31.926  70.618  0.00  0.00    +0.014 A 
ATOM     40  C   UNL     1      38.672  35.626  70.831  0.00  0.00    +0.044 C 
ATOM     41  C   UNL     1      36.818  31.925  69.439  0.00  0.00    +0.009 A 
BRANCH  31  32
ATOM     32  C   UNL     1      39.021  33.042  72.345  0.00  0.00    +0.245 C 
ATOM     33  N   UNL     1      38.482  32.486  73.530  0.00  0.00    -0.309 N 
ATOM     34  H   UNL     1      37.464  32.158  73.548  0.00  0.00    +0.149 HD
ATOM     38  O   UNL     1      40.184  33.412  72.303  0.00  0.00    -0.270 OA
BRANCH  33  35
ATOM     35  C   UNL     1      39.287  32.360  74.698  0.00  0.00    +0.073 C 
ATOM     36  C   UNL     1      38.810  31.226  75.594  0.00  0.00    +0.024 C 
ATOM     37  C   UNL     1      39.994  31.017  74.716  0.00  0.00    +0.024 C 
ENDBRANCH  33  35
ENDBRANCH  31  32
ENDBRANCH   1  28
BRANCH   6  16
ATOM     16  N   UNL     1      33.229  34.332  63.829  0.00  0.00    -0.235 N 
ATOM     17  H   UNL     1      33.312  33.265  63.838  0.00  0.00    +0.291 HD
BRANCH  16  18
ATOM     18  C   UNL     1      33.477  34.737  62.459  0.00  0.00    +0.238 C 
BRANCH  18  19
ATOM     19  C   UNL     1      33.204  36.197  62.235  0.00  0.00    +0.128 C 
BRANCH  19  20
ATOM     20  N   UNL     1      33.333  36.472  60.772  0.00  0.00    -0.294 NA
ATOM     21  C   UNL     1      32.695  35.631  59.739  0.00  0.00    +0.112 C 
ATOM     22  C   UNL     1      32.581  36.328  58.375  0.00  0.00    +0.175 C 
ATOM     23  O   UNL     1      32.857  37.714  58.498  0.00  0.00    -0.377 OA
ATOM     24  C   UNL     1      34.117  38.063  58.988  0.00  0.00    +0.175 C 
ATOM     25  C   UNL     1      34.460  37.218  60.226  0.00  0.00    +0.112 C 
ENDBRANCH  19  20
ENDBRANCH  18  19
ENDBRANCH  16  18
ENDBRANCH   6  16
BRANCH   8   9
ATOM      9  O   UNL     1      34.852  37.765  66.639  0.00  0.00    -0.438 OA
BRANCH   9  10
ATOM     10  C   UNL     1      35.429  38.109  67.865  0.00  0.00    +0.130 A 
ATOM     11  C   UNL     1      34.646  38.227  68.997  0.00  0.00    +0.046 A 
ATOM     12  C   UNL     1      35.208  38.641  70.207  0.00  0.00    +0.004 A 
ATOM     13  C   UNL     1      36.559  38.929  70.269  0.00  0.00    +0.000 A 
ATOM     14  C   UNL     1      37.347  38.788  69.118  0.00  0.00    +0.004 A 
ATOM     15  C   UNL     1      36.789  38.378  67.919  0.00  0.00    +0.046 A 
ENDBRANCH   9  10
ENDBRANCH   8   9
TORSDOF 9
