REMARK  Name = 5AND
REMARK  0 active torsions:
REMARK  status: ('A' for Active; 'I' for Inactive)
REMARK                            x       y       z     vdW  Elec       q    Type
REMARK                         _______ _______ _______ _____ _____    ______ ____
ROOT
ATOM      1  C   UNL     1      -2.544   7.137 -28.520  0.00  0.00    +0.215 A 
ATOM      2  N   UNL     1      -2.671   5.996 -29.182  0.00  0.00    -0.324 N 
ATOM      3  H   UNL     1      -3.457   5.701 -29.846  0.00  0.00    +0.169 HD
ATOM      4  C   UNL     1      -1.522   5.258 -28.804  0.00  0.00    +0.068 A 
ATOM      5  C   UNL     1      -1.137   3.978 -29.141  0.00  0.00    +0.028 A 
ATOM      6  C   UNL     1       0.053   3.482 -28.612  0.00  0.00    +0.002 A 
ATOM      7  C   UNL     1       0.835   4.242 -27.756  0.00  0.00    +0.002 A 
ATOM      8  C   UNL     1       0.450   5.532 -27.393  0.00  0.00    +0.030 A 
ATOM      9  C   UNL     1      -0.725   6.021 -27.941  0.00  0.00    +0.091 A 
ATOM     10  N   UNL     1      -1.407   7.240 -27.766  0.00  0.00    -0.212 NA
ATOM     11  N   UNL     1      -3.515   8.199 -28.553  0.00  0.00    -0.276 N 
ATOM     12  C   UNL     1      -4.643   8.284 -29.376  0.00  0.00    +0.206 A 
ATOM     13  N   UNL     1      -5.327   9.403 -29.161  0.00  0.00    -0.244 NA
ATOM     14  C   UNL     1      -4.610  10.082 -28.157  0.00  0.00    +0.130 A 
ATOM     15  C   UNL     1      -3.505   9.365 -27.772  0.00  0.00    +0.115 A 
ENDROOT
TORSDOF 0
