REMARK  Name = 4jq7_ligand
REMARK  7 active torsions:
REMARK  status: ('A' for Active; 'I' for Inactive)
REMARK    1  A    between atoms: C2_2  and  C11_26
REMARK    2  A    between atoms: C6_5  and  N_17
REMARK    3  A    between atoms: C1_7  and  C10_20
REMARK    4  A    between atoms: C22_13  and  CA_14
REMARK    5  A    between atoms: CA_14  and  C_15
REMARK    6  A    between atoms: CA_14  and  N_17
REMARK    7  A    between atoms: C_15  and  O_16
REMARK                            x       y       z     vdW  Elec       q    Type
REMARK                         _______ _______ _______ _____ _____    ______ ____
ROOT
ATOM      1  C   UNL     1     -52.706   0.153 -22.087  0.00  0.00    +0.076 A 
ATOM      2  C   UNL     1     -53.595   0.879 -21.371  0.00  0.00    +0.201 A 
ATOM      3  O   UNL     1     -53.245   0.881 -20.122  0.00  0.00    -0.228 OA
ATOM      4  C   UNL     1     -52.161   0.200 -19.956  0.00  0.00    +0.144 A 
ATOM     11  N   UNL     1     -54.663   1.477 -21.926  0.00  0.00    -0.262 NA
ATOM     12  C   UNL     1     -54.885   1.364 -23.292  0.00  0.00    +0.155 A 
ATOM     13  N   UNL     1     -53.975   0.622 -24.029  0.00  0.00    -0.268 NA
ATOM     14  C   UNL     1     -52.921   0.031 -23.433  0.00  0.00    +0.128 A 
ATOM     27  C   UNL     1     -51.792  -0.273 -21.171  0.00  0.00    +0.022 A 
ENDROOT
BRANCH   4   5
ATOM      5  C   UNL     1     -51.649   0.074 -18.713  0.00  0.00    +0.019 A 
ATOM      6  C   UNL     1     -52.110   0.978 -17.741  0.00  0.00    +0.011 A 
ATOM      7  C   UNL     1     -51.667   0.917 -16.421  0.00  0.00    +0.000 A 
ATOM      8  C   UNL     1     -50.760  -0.064 -16.034  0.00  0.00    -0.001 A 
ATOM      9  C   UNL     1     -50.302  -0.981 -16.977  0.00  0.00    +0.000 A 
ATOM     10  C   UNL     1     -50.747  -0.920 -18.303  0.00  0.00    +0.011 A 
ENDBRANCH   4   5
BRANCH  27  28
ATOM     28  C   UNL     1     -50.723  -1.046 -21.430  0.00  0.00    -0.031 A 
ATOM     29  C   UNL     1     -50.915  -2.368 -21.852  0.00  0.00    -0.003 A 
ATOM     30  C   UNL     1     -49.825  -3.195 -22.127  0.00  0.00    -0.005 A 
ATOM     31  C   UNL     1     -48.528  -2.712 -21.967  0.00  0.00    -0.008 A 
ATOM     32  C   UNL     1     -48.330  -1.401 -21.537  0.00  0.00    -0.005 A 
ATOM     33  C   UNL     1     -49.420  -0.568 -21.270  0.00  0.00    -0.003 A 
ENDBRANCH  27  28
BRANCH  14  15
ATOM     15  N   UNL     1     -52.070  -0.656 -24.226  0.00  0.00    -0.284 N 
ATOM     16  H   UNL     1     -51.146  -0.919 -23.854  0.00  0.00    +0.190 HD
BRANCH  15  17
ATOM     17  CA  UNL     1     -52.424  -1.047 -25.626  0.00  0.00    +0.173 C 
BRANCH  17  21
ATOM     21  C   UNL     1     -52.424   0.035 -26.556  0.00  0.00    -0.015 A 
ATOM     22  C   UNL     1     -51.976   1.326 -26.240  0.00  0.00    -0.002 A 
ATOM     23  C   UNL     1     -52.014   2.345 -27.194  0.00  0.00    -0.009 A 
ATOM     24  C   UNL     1     -52.484   2.091 -28.479  0.00  0.00    -0.013 A 
ATOM     25  C   UNL     1     -52.928   0.814 -28.807  0.00  0.00    -0.009 A 
ATOM     26  C   UNL     1     -52.901  -0.200 -27.852  0.00  0.00    -0.002 A 
ENDBRANCH  17  21
BRANCH  17  18
ATOM     18  C   UNL     1     -51.442  -2.105 -26.120  0.00  0.00    +0.198 C 
BRANCH  18  19
ATOM     19  O   UNL     1     -51.653  -3.257 -25.292  0.00  0.00    -0.391 OA
ATOM     20  H   UNL     1     -51.062  -3.951 -25.560  0.00  0.00    +0.210 HD
ENDBRANCH  18  19
ENDBRANCH  17  18
ENDBRANCH  15  17
ENDBRANCH  14  15
TORSDOF 7
