REMARK  Name = 6EG9
REMARK  7 active torsions:
REMARK  status: ('A' for Active; 'I' for Inactive)
REMARK    1  A    between atoms: N3_2  and  C20_12
REMARK    2  A    between atoms: C4_3  and  C5_4
REMARK    3  A    between atoms: C13_9  and  N2_29
REMARK    4  A    between atoms: C17_11  and  C19_33
REMARK    5  A    between atoms: C20_12  and  C16_31
REMARK    6  A    between atoms: C2_23  and  C3_24
REMARK    7  A    between atoms: C9_25  and  C12_27
REMARK                            x       y       z     vdW  Elec       q    Type
REMARK                         _______ _______ _______ _____ _____    ______ ____
ROOT
ATOM      9  C   UNL     1      -6.498 -20.987  21.037  0.00  0.00    +0.600 C 
ATOM     10  N   UNL     1      -7.755 -20.814  20.561  0.00  0.00    -0.350 NA
ATOM     29  O   UNL     1      -5.974 -22.068  21.324  0.00  0.00    -0.550 OA
ENDROOT
BRANCH   9   8
ATOM      6  C   UNL     1      -3.822 -18.785  22.248  0.00  0.00    +0.000 A 
ATOM      7  C   UNL     1      -4.669 -19.891  22.076  0.00  0.00    -0.130 A 
ATOM      8  C   UNL     1      -5.712 -19.844  21.152  0.00  0.00    +0.000 A 
ATOM     30  C   UNL     1      -5.843 -18.696  20.340  0.00  0.00    -0.130 A 
ATOM     31  C   UNL     1      -4.961 -17.617  20.506  0.00  0.00    -0.130 A 
ATOM     32  C   UNL     1      -3.935 -17.662  21.449  0.00  0.00    +0.000 A 
ATOM     33  C   UNL     1      -3.091 -16.566  21.576  0.00  0.00    -0.150 C 
BRANCH   6   5
ATOM      4  C   UNL     1      -2.103 -19.177  23.960  0.00  0.00    +0.000 C 
ATOM      5  C   UNL     1      -2.809 -18.995  23.223  0.00  0.00    +0.000 C 
BRANCH   4   3
ATOM      1  N   UNL     1      -0.213 -19.787  26.859  0.00  0.00    -0.300 NA
ATOM      2  C   UNL     1      -1.377 -19.603  26.243  0.00  0.00    +0.000 A 
ATOM      3  C   UNL     1      -1.125 -19.411  24.968  0.00  0.00    +0.100 A 
ATOM     34  N   UNL     1       0.184 -19.484  24.736  0.00  0.00    -0.200 N 
ATOM     35  N   UNL     1       0.706 -19.361  23.697  0.00  0.00    -0.380 NA
ATOM     36  C   UNL     1       2.109 -19.452  23.608  0.00  0.00    +0.250 A 
ATOM     37  C   UNL     1       2.794 -19.689  24.803  0.00  0.00    -0.130 A 
ATOM     38  C   UNL     1       2.069 -19.819  25.991  0.00  0.00    -0.130 A 
ATOM     39  C   UNL     1       0.748 -19.712  25.927  0.00  0.00    +0.300 A 
ENDBRANCH   4   3
ENDBRANCH   6   5
ENDBRANCH   9   8
BRANCH  10  11
ATOM     11  C   UNL     1      -8.578 -21.860  20.307  0.00  0.00    +0.050 A 
ATOM     12  C   UNL     1      -8.527 -23.164  20.864  0.00  0.00    -0.130 A 
ATOM     13  C   UNL     1      -9.437 -24.173  20.481  0.00  0.00    +0.000 A 
ATOM     18  C   UNL     1     -10.406 -23.884  19.523  0.00  0.00    +0.000 A 
ATOM     27  C   UNL     1     -10.454 -22.607  18.968  0.00  0.00    -0.130 A 
ATOM     28  C   UNL     1      -9.555 -21.615  19.334  0.00  0.00    -0.130 A 
BRANCH  13  14
ATOM     14  C   UNL     1      -9.357 -25.444  21.055  0.00  0.00    +0.900 C 
ATOM     15  F   UNL     1      -8.825 -26.205  20.458  0.00  0.00    -0.300 F 
ATOM     16  F   UNL     1     -10.242 -25.823  21.621  0.00  0.00    -0.300 F 
ATOM     17  F   UNL     1      -8.494 -25.215  22.067  0.00  0.00    -0.300 F 
ENDBRANCH  13  14
BRANCH  18  19
ATOM     19  C   UNL     1     -11.326 -24.876  19.113  0.00  0.00    +0.100 C 
BRANCH  19  20
ATOM     20  N   UNL     1     -11.624 -24.799  17.664  0.00  0.00    -0.600 NA
ATOM     21  C   UNL     1     -12.642 -25.793  17.280  0.00  0.00    +0.100 C 
ATOM     22  C   UNL     1     -13.092 -25.517  15.856  0.00  0.00    +0.100 C 
ATOM     23  N   UNL     1     -11.959 -25.511  14.905  0.00  0.00    -0.600 NA
ATOM     24  C   UNL     1     -12.402 -25.069  13.566  0.00  0.00    +0.050 C 
ATOM     25  C   UNL     1     -10.897 -24.603  15.370  0.00  0.00    +0.100 C 
ATOM     26  C   UNL     1     -10.463 -24.975  16.770  0.00  0.00    +0.100 C 
ENDBRANCH  19  20
ENDBRANCH  18  19
ENDBRANCH  10  11
TORSDOF 7
