REMARK  Name = 3k5u_ligand
REMARK  5 active torsions:
REMARK  status: ('A' for Active; 'I' for Inactive)
REMARK    1  A    between atoms: C10_2  and  C11_3
REMARK    2  A    between atoms: N9_17  and  C8_24
REMARK    3  A    between atoms: C1_21  and  C18_22
REMARK    4  A    between atoms: C23_23  and  C8_24
REMARK    5  A    between atoms: C23_23  and  O24_25
REMARK                            x       y       z     vdW  Elec       q    Type
REMARK                         _______ _______ _______ _____ _____    ______ ____
ROOT
ATOM      1  C   UNL     1      -4.437 -30.587   9.676  0.00  0.00    +0.155 A 
ATOM      2  N   UNL     1      -5.114 -29.670   9.009  0.00  0.00    -0.269 NA
ATOM      3  C   UNL     1      -5.220 -29.686   7.664  0.00  0.00    +0.126 A 
ATOM      4  N   UNL     1      -5.987 -28.764   7.082  0.00  0.00    -0.298 N 
ATOM      5  H   UNL     1      -6.064 -28.751   6.055  0.00  0.00    +0.187 HD
ATOM     10  C   UNL     1      -4.520 -30.658   6.963  0.00  0.00    +0.076 A 
ATOM     11  C   UNL     1      -4.313 -30.998   5.625  0.00  0.00    +0.022 A 
ATOM     18  C   UNL     1      -3.487 -32.096   5.585  0.00  0.00    +0.144 A 
ATOM     19  O   UNL     1      -3.197 -32.468   6.872  0.00  0.00    -0.228 OA
ATOM     26  C   UNL     1      -3.821 -31.601   7.719  0.00  0.00    +0.201 A 
ATOM     27  N   UNL     1      -3.824 -31.575   9.054  0.00  0.00    -0.262 NA
ENDROOT
BRANCH  11  12
ATOM     12  C   UNL     1      -4.898 -30.318   4.567  0.00  0.00    -0.031 A 
ATOM     13  C   UNL     1      -5.649 -30.999   3.613  0.00  0.00    -0.003 A 
ATOM     14  C   UNL     1      -6.062 -30.343   2.435  0.00  0.00    -0.005 A 
ATOM     15  C   UNL     1      -6.107 -28.949   2.420  0.00  0.00    -0.008 A 
ATOM     16  C   UNL     1      -5.403 -28.251   3.406  0.00  0.00    -0.005 A 
ATOM     17  C   UNL     1      -4.764 -28.936   4.423  0.00  0.00    -0.003 A 
ENDBRANCH  11  12
BRANCH  18  20
ATOM     20  C   UNL     1      -2.870 -32.854   4.608  0.00  0.00    +0.019 A 
ATOM     21  C   UNL     1      -2.247 -34.030   5.054  0.00  0.00    +0.011 A 
ATOM     22  C   UNL     1      -1.494 -34.814   4.179  0.00  0.00    +0.000 A 
ATOM     23  C   UNL     1      -1.564 -34.536   2.810  0.00  0.00    -0.001 A 
ATOM     24  C   UNL     1      -2.085 -33.312   2.384  0.00  0.00    +0.000 A 
ATOM     25  C   UNL     1      -2.797 -32.512   3.267  0.00  0.00    +0.011 A 
ENDBRANCH  18  20
BRANCH   4   6
ATOM      6  C   UNL     1      -6.729 -27.761   7.870  0.00  0.00    +0.163 C 
BRANCH   6   7
ATOM      7  C   UNL     1      -8.029 -28.350   8.471  0.00  0.00    +0.180 C 
BRANCH   7   8
ATOM      8  O   UNL     1      -8.700 -27.376   9.292  0.00  0.00    -0.393 OA
ATOM      9  H   UNL     1      -9.493 -27.758   9.650  0.00  0.00    +0.209 HD
ENDBRANCH   7   8
ENDBRANCH   6   7
ENDBRANCH   4   6
TORSDOF 5
