REMARK  Name = 3du8_ligand
REMARK  3 active torsions:
REMARK  status: ('A' for Active; 'I' for Inactive)
REMARK    1  A    between atoms: C12_5  and  C16_6
REMARK    2  A    between atoms: C16_6  and  C17_7
REMARK    3  A    between atoms: C7_13  and  C5_14
REMARK                            x       y       z     vdW  Elec       q    Type
REMARK                         _______ _______ _______ _____ _____    ______ ____
ROOT
ATOM      1  O   UNL     1      24.299 -14.592  -9.954  0.00  0.00    -0.404 OA
ATOM      2  C   UNL     1      23.256 -14.904 -10.535  0.00  0.00    +0.177 C 
ATOM      3  C   UNL     1      22.324 -15.858  -9.890  0.00  0.00    +0.046 A 
ATOM      4  C   UNL     1      22.455 -16.735  -8.825  0.00  0.00    -0.009 A 
ATOM      5  C   UNL     1      21.195 -17.335  -8.757  0.00  0.00    +0.077 A 
ATOM     15  N   UNL     1      20.314 -16.880  -9.686  0.00  0.00    -0.267 N 
ATOM     16  H   UNL     1      19.334 -17.177  -9.796  0.00  0.00    +0.236 HD
ATOM     17  C   UNL     1      20.957 -15.975 -10.430  0.00  0.00    +0.079 A 
ATOM     18  C   UNL     1      20.443 -15.165 -11.556  0.00  0.00    +0.102 C 
ATOM     22  C   UNL     1      21.635 -14.738 -12.440  0.00  0.00    +0.157 C 
ATOM     23  N   UNL     1      22.883 -14.408 -11.728  0.00  0.00    -0.289 N 
ATOM     24  H   UNL     1      23.505 -13.761 -12.169  0.00  0.00    +0.184 HD
ENDROOT
BRANCH   5   6
ATOM      6  C   UNL     1      20.608 -18.308  -7.807  0.00  0.00    +0.057 A 
ATOM      7  N   UNL     1      19.379 -18.869  -8.054  0.00  0.00    -0.264 NA
ATOM      8  C   UNL     1      18.819 -19.734  -7.169  0.00  0.00    +0.175 A 
ATOM      9  N   UNL     1      17.632 -20.320  -7.486  0.00  0.00    -0.305 N 
ATOM     10  H   UNL     1      17.198 -20.989  -6.835  0.00  0.00    +0.182 HD
ATOM     11  H   UNL     1      17.168 -20.094  -8.377  0.00  0.00    +0.182 HD
ATOM     12  N   UNL     1      19.458 -20.011  -5.999  0.00  0.00    -0.267 NA
ATOM     13  C   UNL     1      20.658 -19.455  -5.710  0.00  0.00    +0.089 A 
ATOM     14  C   UNL     1      21.265 -18.559  -6.590  0.00  0.00    +0.035 A 
ENDBRANCH   5   6
BRANCH  18  19
ATOM     19  C   UNL     1      19.772 -13.964 -10.868  0.00  0.00    +0.059 C 
BRANCH  19  20
ATOM     20  C   UNL     1      19.675 -12.730 -11.773  0.00  0.00    +0.216 C 
ATOM     21  F   UNL     1      18.655 -12.884 -12.698  0.00  0.00    -0.249 F 
ENDBRANCH  19  20
ENDBRANCH  18  19
TORSDOF 3
