REMARK  Name = 5A14
REMARK  8 active torsions:
REMARK  status: ('A' for Active; 'I' for Inactive)
REMARK    1  A    between atoms: C_3  and  N_36
REMARK    2  A    between atoms: C_5  and  O_6
REMARK    3  A    between atoms: O_6  and  C_7
REMARK    4  A    between atoms: N_14  and  C_15
REMARK    5  A    between atoms: C_18  and  C_25
REMARK    6  A    between atoms: C_19  and  C_20
REMARK    7  A    between atoms: C_25  and  N_26
REMARK    8  A    between atoms: N_30  and  C_34
REMARK                            x       y       z     vdW  Elec       q    Type
REMARK                         _______ _______ _______ _____ _____    ______ ____
ROOT
ATOM     16  N   UNL     1      30.720   5.171   9.175  0.00  0.00    -0.269 N 
ATOM     17  H   UNL     1      31.773   5.005   9.079  0.00  0.00    +0.156 HD
ATOM     18  C   UNL     1      30.113   4.656  10.262  0.00  0.00    +0.308 C 
ATOM     19  O   UNL     1      28.919   4.866  10.511  0.00  0.00    -0.252 OA
ATOM     20  N   UNL     1      30.913   3.927  11.067  0.00  0.00    -0.269 N 
ATOM     21  H   UNL     1      31.914   3.742  10.737  0.00  0.00    +0.156 HD
ENDROOT
BRANCH  16  15
ATOM      1  C   UNL     1      30.151   6.671   5.840  0.00  0.00    +0.048 A 
ATOM      2  C   UNL     1      28.925   7.294   6.053  0.00  0.00    +0.131 A 
ATOM     13  C   UNL     1      28.264   7.234   7.292  0.00  0.00    +0.048 A 
ATOM     14  C   UNL     1      28.852   6.529   8.347  0.00  0.00    +0.027 A 
ATOM     15  C   UNL     1      30.088   5.912   8.150  0.00  0.00    +0.035 A 
ATOM     40  C   UNL     1      30.733   5.991   6.900  0.00  0.00    +0.027 A 
BRANCH   2   3
ATOM      3  O   UNL     1      28.348   7.994   5.004  0.00  0.00    -0.438 OA
BRANCH   3   4
ATOM      4  C   UNL     1      27.216   7.473   4.394  0.00  0.00    +0.225 A 
ATOM      5  N   UNL     1      26.448   8.370   3.752  0.00  0.00    -0.179 NA
ATOM      6  C   UNL     1      25.333   7.974   3.110  0.00  0.00    +0.216 A 
ATOM      7  N   UNL     1      24.595   8.918   2.504  0.00  0.00    -0.327 N 
ATOM      8  H   UNL     1      24.907   9.941   2.532  0.00  0.00    +0.145 HD
ATOM      9  H   UNL     1      23.695   8.647   1.993  0.00  0.00    +0.145 HD
ATOM     10  N   UNL     1      24.979   6.669   3.101  0.00  0.00    -0.223 NA
ATOM     11  C   UNL     1      25.718   5.707   3.728  0.00  0.00    +0.119 A 
ATOM     12  C   UNL     1      26.881   6.102   4.406  0.00  0.00    +0.087 A 
ENDBRANCH   3   4
ENDBRANCH   2   3
ENDBRANCH  16  15
BRANCH  20  22
ATOM     22  C   UNL     1      30.524   3.392  12.312  0.00  0.00    +0.035 A 
ATOM     23  C   UNL     1      29.181   3.110  12.647  0.00  0.00    +0.036 A 
ATOM     24  C   UNL     1      28.849   2.627  13.914  0.00  0.00    +0.061 A 
ATOM     29  C   UNL     1      29.885   2.430  14.868  0.00  0.00    -0.022 A 
ATOM     38  C   UNL     1      31.221   2.716  14.525  0.00  0.00    +0.007 A 
ATOM     39  C   UNL     1      31.551   3.213  13.264  0.00  0.00    +0.024 A 
BRANCH  24  25
ATOM     25  C   UNL     1      27.368   2.334  14.243  0.00  0.00    +0.418 C 
ATOM     26  F   UNL     1      26.529   2.470  13.200  0.00  0.00    -0.166 F 
ATOM     27  F   UNL     1      27.260   1.067  14.708  0.00  0.00    -0.166 F 
ATOM     28  F   UNL     1      26.913   3.215  15.170  0.00  0.00    -0.166 F 
ENDBRANCH  24  25
BRANCH  29  30
ATOM     30  C   UNL     1      29.634   1.880  16.304  0.00  0.00    +0.120 C 
BRANCH  30  31
ATOM     31  N   UNL     1      30.326   2.668  17.355  0.00  0.00    -0.296 NA
ATOM     32  C   UNL     1      30.421   1.937  18.655  0.00  0.00    +0.100 C 
ATOM     33  C   UNL     1      31.427   2.655  19.599  0.00  0.00    +0.099 C 
ATOM     34  N   UNL     1      31.000   4.068  19.769  0.00  0.00    -0.303 NA
ATOM     35  C   UNL     1      31.877   4.796  20.732  0.00  0.00    +0.105 C 
ATOM     36  C   UNL     1      31.000   4.783  18.451  0.00  0.00    +0.099 C 
ATOM     37  C   UNL     1      29.987   4.124  17.473  0.00  0.00    +0.100 C 
ENDBRANCH  30  31
ENDBRANCH  29  30
ENDBRANCH  20  22
TORSDOF 7
