REMARK  Name = 5F94
REMARK  5 active torsions:
REMARK  status: ('A' for Active; 'I' for Inactive)
REMARK    1  A    between atoms: C_1  and  C_7
REMARK    2  A    between atoms: N_9  and  C_16
REMARK    3  A    between atoms: C_11  and  C_12
REMARK    4  A    between atoms: C_21  and  O_22
REMARK    5  A    between atoms: O_22  and  C_23
REMARK                            x       y       z     vdW  Elec       q    Type
REMARK                         _______ _______ _______ _____ _____    ______ ____
ROOT
ATOM      1  C   UNL     1     -21.621 -17.395   7.133  0.00  0.00    +0.042 A 
ATOM     14  C   UNL     1     -22.061 -17.921   5.925  0.00  0.00    +0.033 A 
ATOM     15  C   UNL     1     -21.235 -18.783   5.243  0.00  0.00    +0.113 A 
ATOM     16  N   UNL     1     -20.021 -19.148   5.675  0.00  0.00    -0.240 NA
ATOM     17  C   UNL     1     -19.595 -18.628   6.836  0.00  0.00    +0.126 A 
ATOM     18  N   UNL     1     -18.289 -19.021   7.163  0.00  0.00    -0.270 N 
ATOM     19  H   UNL     1     -17.837 -19.729   6.500  0.00  0.00    +0.156 HD
ATOM     20  C   UNL     1     -17.528 -18.624   8.203  0.00  0.00    +0.221 C 
ATOM     21  O   UNL     1     -17.931 -17.894   9.106  0.00  0.00    -0.275 OA
ATOM     25  C   UNL     1     -20.364 -17.748   7.606  0.00  0.00    +0.057 A 
ENDROOT
BRANCH   1   2
ATOM      2  C   UNL     1     -22.494 -16.448   7.887  0.00  0.00    +0.249 C 
ATOM      3  O   UNL     1     -23.526 -16.011   7.388  0.00  0.00    -0.270 OA
ATOM      4  N   UNL     1     -22.068 -16.112   9.124  0.00  0.00    -0.277 N 
ATOM      5  H   UNL     1     -21.190 -16.605   9.487  0.00  0.00    +0.155 HD
BRANCH   4   6
ATOM      6  C   UNL     1     -22.677 -15.168   9.982  0.00  0.00    +0.094 A 
ATOM      7  C   UNL     1     -21.879 -14.666  10.995  0.00  0.00    +0.144 A 
ATOM     10  C   UNL     1     -22.360 -13.684  11.848  0.00  0.00    +0.067 A 
ATOM     11  C   UNL     1     -23.664 -13.257  11.681  0.00  0.00    +0.114 A 
ATOM     12  N   UNL     1     -24.482 -13.733  10.745  0.00  0.00    -0.261 NA
ATOM     13  C   UNL     1     -23.977 -14.662   9.930  0.00  0.00    +0.137 A 
BRANCH   7   8
ATOM      8  O   UNL     1     -20.683 -15.314  11.150  0.00  0.00    -0.493 OA
ATOM      9  C   UNL     1     -20.044 -15.234  12.430  0.00  0.00    +0.277 C 
ENDBRANCH   7   8
ENDBRANCH   4   6
ENDBRANCH   1   2
BRANCH  20  22
ATOM     22  C   UNL     1     -16.097 -19.121   8.161  0.00  0.00    +0.075 C 
ATOM     23  C   UNL     1     -15.400 -19.364   9.477  0.00  0.00    +0.013 C 
ATOM     24  C   UNL     1     -15.020 -18.188   8.656  0.00  0.00    +0.013 C 
ENDBRANCH  20  22
TORSDOF 4
