REMARK  Name = 3ri1_ligand
REMARK  1 active torsions:
REMARK  status: ('A' for Active; 'I' for Inactive)
REMARK    1  A    between atoms: C9_9  and  C10_10
REMARK                            x       y       z     vdW  Elec       q    Type
REMARK                         _______ _______ _______ _____ _____    ______ ____
ROOT
ATOM      1  C   UNL     1     -29.474  16.467 -23.590  0.00  0.00    +0.053 A 
ATOM      2  C   UNL     1     -29.668  17.349 -22.394  0.00  0.00    +0.005 A 
ATOM      3  C   UNL     1     -30.939  17.533 -21.837  0.00  0.00    +0.007 A 
ATOM      4  C   UNL     1     -31.115  18.359 -20.725  0.00  0.00    -0.008 A 
ATOM      5  C   UNL     1     -30.007  18.999 -20.166  0.00  0.00    -0.003 A 
ATOM      6  C   UNL     1     -28.735  18.816 -20.723  0.00  0.00    +0.003 A 
ATOM      7  C   UNL     1     -28.558  17.997 -21.846  0.00  0.00    -0.013 A 
ATOM      8  C   UNL     1     -27.207  17.769 -22.463  0.00  0.00    +0.103 C 
ATOM     15  C   UNL     1     -27.312  17.675 -23.988  0.00  0.00    +0.104 C 
ATOM     16  N   UNL     1     -30.377  15.518 -23.934  0.00  0.00    -0.261 NA
ATOM     17  C   UNL     1     -30.157  14.738 -25.024  0.00  0.00    +0.178 A 
ATOM     18  N   UNL     1     -29.042  14.888 -25.784  0.00  0.00    -0.265 NA
ATOM     19  C   UNL     1     -28.122  15.810 -25.478  0.00  0.00    +0.096 A 
ATOM     20  N   UNL     1     -31.066  13.793 -25.361  0.00  0.00    -0.307 N 
ATOM     21  H   UNL     1     -30.909  13.203 -26.178  0.00  0.00    +0.180 HD
ATOM     22  H   UNL     1     -31.908  13.671 -24.798  0.00  0.00    +0.180 HD
ATOM     23  C   UNL     1     -28.328  16.621 -24.364  0.00  0.00    +0.005 A 
ENDROOT
BRANCH   8   9
ATOM      9  C   UNL     1     -26.156  18.770 -22.140  0.00  0.00    -0.026 A 
ATOM     10  C   UNL     1     -24.981  18.322 -21.533  0.00  0.00    -0.002 A 
ATOM     11  C   UNL     1     -23.968  19.229 -21.230  0.00  0.00    -0.008 A 
ATOM     12  C   UNL     1     -24.124  20.584 -21.537  0.00  0.00    -0.012 A 
ATOM     13  C   UNL     1     -25.293  21.037 -22.149  0.00  0.00    -0.008 A 
ATOM     14  C   UNL     1     -26.306  20.127 -22.455  0.00  0.00    -0.002 A 
ENDBRANCH   8   9
TORSDOF 1
