REMARK  Name = 3rk5_ligand
REMARK  6 active torsions:
REMARK  status: ('A' for Active; 'I' for Inactive)
REMARK    1  A    between atoms: C1_1  and  N2_2
REMARK    2  A    between atoms: C5_5  and  N8_8
REMARK    3  A    between atoms: C6_6  and  C9_9
REMARK    4  A    between atoms: C9_9  and  C10_10
REMARK    5  A    between atoms: C9_9  and  O16_16
REMARK    6  A    between atoms: C19_19  and  C22_22
REMARK                            x       y       z     vdW  Elec       q    Type
REMARK                         _______ _______ _______ _____ _____    ______ ____
ROOT
ATOM     10  N   UNL     1      90.248 118.518 -49.085  0.00  0.00    -0.240 N 
ATOM     11  H   UNL     1      89.822 119.161 -49.768  0.00  0.00    +0.220 HD
ATOM     12  C   UNL     1      91.369 117.858 -49.520  0.00  0.00    +0.189 A 
ATOM     13  S   UNL     1      92.343 116.729 -48.623  0.00  0.00    +0.003 S 
ATOM     14  C   UNL     1      93.304 116.553 -50.032  0.00  0.00    +0.060 A 
ATOM     24  C   UNL     1      92.853 117.357 -51.073  0.00  0.00    +0.055 A 
ATOM     28  N   UNL     1      91.776 118.074 -50.772  0.00  0.00    -0.302 NA
ENDROOT
BRANCH  10   1
ATOM      1  C   UNL     1      89.613 118.445 -47.873  0.00  0.00    +0.069 A 
ATOM      2  C   UNL     1      89.761 117.347 -46.942  0.00  0.00    +0.020 A 
ATOM      3  C   UNL     1      89.048 117.335 -45.717  0.00  0.00    +0.005 A 
ATOM      4  C   UNL     1      88.162 118.413 -45.384  0.00  0.00    -0.002 A 
ATOM      8  C   UNL     1      88.016 119.502 -46.306  0.00  0.00    +0.005 A 
ATOM      9  C   UNL     1      88.726 119.517 -47.524  0.00  0.00    +0.020 A 
BRANCH   4   5
ATOM      5  C   UNL     1      87.392 118.427 -44.109  0.00  0.00    +0.055 C 
ATOM      6  O   UNL     1      87.493 117.388 -43.160  0.00  0.00    -0.564 OA
ATOM      7  O   UNL     1      86.564 119.473 -43.857  0.00  0.00    -0.564 OA
ENDBRANCH   4   5
ENDBRANCH  10   1
BRANCH  24  25
ATOM     25  N   UNL     1      93.386 117.418 -52.238  0.00  0.00    -0.352 N 
ATOM     26  H   UNL     1      92.979 118.031 -52.959  0.00  0.00    +0.162 HD
ATOM     27  H   UNL     1      94.221 116.854 -52.453  0.00  0.00    +0.162 HD
ENDBRANCH  24  25
BRANCH  14  15
ATOM     15  C   UNL     1      94.476 115.630 -50.101  0.00  0.00    +0.208 C 
BRANCH  15  18
ATOM     18  C   UNL     1      94.899 114.750 -48.971  0.00  0.00    +0.019 A 
ATOM     19  C   UNL     1      96.268 114.623 -48.616  0.00  0.00    +0.092 A 
ATOM     20  N   UNL     1      96.629 113.783 -47.569  0.00  0.00    -0.305 NA
ATOM     21  C   UNL     1      95.715 113.048 -46.838  0.00  0.00    +0.080 A 
ATOM     22  C   UNL     1      94.343 113.132 -47.150  0.00  0.00    +0.029 A 
ATOM     23  C   UNL     1      93.934 113.981 -48.218  0.00  0.00    +0.031 A 
ENDBRANCH  15  18
BRANCH  15  16
ATOM     16  O   UNL     1      95.174 115.573 -51.256  0.00  0.00    -0.371 OA
ATOM     17  H   UNL     1      94.798 116.180 -51.882  0.00  0.00    +0.215 HD
ENDBRANCH  15  16
ENDBRANCH  14  15
TORSDOF 6
