REMARK  Name = 4ehv_ligand
REMARK  1 active torsions:
REMARK  status: ('A' for Active; 'I' for Inactive)
REMARK    1  A    between atoms: CAQ_15  and  CAR_17
REMARK                            x       y       z     vdW  Elec       q    Type
REMARK                         _______ _______ _______ _____ _____    ______ ____
ROOT
ATOM      1  O   UNL     1      -0.781 -11.395  11.925  0.00  0.00    -0.427 OA
ATOM      2  C   UNL     1      -0.713 -10.436  12.710  0.00  0.00    +0.188 A 
ATOM      3  N   UNL     1      -1.769 -10.146  13.507  0.00  0.00    -0.202 N 
ATOM      4  C   UNL     1      -2.955 -11.048  13.366  0.00  0.00    +0.203 C 
ATOM      5  C   UNL     1      -4.184 -10.523  14.079  0.00  0.00    +0.047 C 
ATOM      6  C   UNL     1      -3.758  -9.972  15.455  0.00  0.00    +0.038 C 
ATOM      7  C   UNL     1      -2.824  -8.760  15.250  0.00  0.00    +0.114 C 
ATOM      8  C   UNL     1      -3.668  -7.636  14.603  0.00  0.00    +0.165 C 
ATOM      9  N   UNL     1      -4.087  -8.128  13.261  0.00  0.00    -0.269 N 
ATOM     10  C   UNL     1      -3.752  -7.510  12.102  0.00  0.00    +0.208 C 
ATOM     18  O   UNL     1      -4.076  -7.997  11.014  0.00  0.00    -0.385 OA
ATOM     19  C   UNL     1      -4.826  -9.436  13.209  0.00  0.00    +0.145 C 
ATOM     20  C   UNL     1      -1.729  -9.104  14.396  0.00  0.00    +0.091 A 
ATOM     21  C   UNL     1      -0.574  -8.314  14.467  0.00  0.00    -0.016 A 
ATOM     22  C   UNL     1       0.523  -8.596  13.656  0.00  0.00    -0.027 A 
ATOM     23  C   UNL     1       0.452  -9.666  12.767  0.00  0.00    +0.005 A 
ENDROOT
BRANCH  10  11
ATOM     11  C   UNL     1      -3.110  -6.263  12.054  0.00  0.00    +0.050 A 
ATOM     12  C   UNL     1      -1.720  -6.140  11.964  0.00  0.00    +0.025 A 
ATOM     13  C   UNL     1      -1.138  -4.870  11.884  0.00  0.00    +0.021 A 
ATOM     14  C   UNL     1      -1.934  -3.723  11.867  0.00  0.00    +0.045 A 
ATOM     15 CL   UNL     1      -1.195  -2.157  11.751  0.00  0.00    -0.067 Cl
ATOM     16  C   UNL     1      -3.323  -3.839  11.939  0.00  0.00    +0.021 A 
ATOM     17  C   UNL     1      -3.899  -5.108  12.022  0.00  0.00    +0.025 A 
ENDBRANCH  10  11
TORSDOF 1
