REMARK  Name = 2c6o_ligand
REMARK  6 active torsions:
REMARK  status: ('A' for Active; 'I' for Inactive)
REMARK    1  A    between atoms: C10_3  and  C11_4
REMARK    2  A    between atoms: C10_3  and  O6_17
REMARK    3  A    between atoms: C20_11  and  S23_26
REMARK    4  A    between atoms: N26_14  and  S23_26
REMARK    5  A    between atoms: C6_16  and  O6_17
REMARK    6  A    between atoms: N2_23  and  C17_24
REMARK                            x       y       z     vdW  Elec       q    Type
REMARK                         _______ _______ _______ _____ _____    ______ ____
ROOT
ATOM      1  C   UNL     1      11.161 -10.921  12.030  0.00  0.00    +0.177 A 
ATOM      2  N   UNL     1      10.033 -11.613  11.730  0.00  0.00    -0.251 N 
ATOM      3  H   UNL     1       9.734 -12.367  12.365  0.00  0.00    +0.215 HD
ATOM     16  N   UNL     1      11.677 -10.988  13.290  0.00  0.00    -0.282 NA
ATOM     17  C   UNL     1      12.774 -10.285  13.530  0.00  0.00    +0.090 A 
ATOM     18  N   UNL     1      13.484 -10.164  14.574  0.00  0.00    -0.290 NA
ATOM     19  C   UNL     1      14.513  -9.338  14.324  0.00  0.00    +0.249 A 
ATOM     20  N   UNL     1      14.469  -8.960  13.055  0.00  0.00    -0.245 N 
ATOM     21  H   UNL     1      15.140  -8.345  12.572  0.00  0.00    +0.235 HD
ATOM     22  C   UNL     1      13.410  -9.519  12.537  0.00  0.00    +0.154 A 
ATOM     23  C   UNL     1      12.864  -9.425  11.283  0.00  0.00    +0.197 A 
ATOM     32  N   UNL     1      11.766 -10.161  11.043  0.00  0.00    -0.239 NA
ENDROOT
BRANCH   2   4
ATOM      4  C   UNL     1       9.289 -11.356  10.639  0.00  0.00    +0.063 A 
ATOM      5  C   UNL     1       8.274 -12.253  10.260  0.00  0.00    +0.017 A 
ATOM      6  C   UNL     1       7.455 -12.030   9.155  0.00  0.00    +0.016 A 
ATOM      7  C   UNL     1       7.626 -10.882   8.383  0.00  0.00    +0.096 A 
ATOM     14  C   UNL     1       8.627  -9.970   8.732  0.00  0.00    +0.016 A 
ATOM     15  C   UNL     1       9.462 -10.211   9.848  0.00  0.00    +0.017 A 
BRANCH   7   8
ATOM      8  S   UNL     1       6.567 -10.561   6.988  0.00  0.00    +0.061 S 
ATOM      9  O   UNL     1       6.222 -11.797   6.281  0.00  0.00    -0.152 OA
ATOM     10  O   UNL     1       5.387  -9.920   7.614  0.00  0.00    -0.152 OA
BRANCH   8  11
ATOM     11  N   UNL     1       7.246  -9.605   5.807  0.00  0.00    -0.262 NA
ATOM     12  H   UNL     1       8.179  -9.261   5.917  0.00  0.00    +0.163 HD
ATOM     13  H   UNL     1       6.721  -9.374   4.988  0.00  0.00    +0.163 HD
ENDBRANCH   8  11
ENDBRANCH   7   8
ENDBRANCH   2   4
BRANCH  23  24
ATOM     24  O   UNL     1      13.502  -8.682  10.384  0.00  0.00    -0.293 OA
BRANCH  24  25
ATOM     25  C   UNL     1      12.799  -8.239   9.134  0.00  0.00    +0.205 C 
BRANCH  25  26
ATOM     26  C   UNL     1      13.649  -7.045   8.687  0.00  0.00    +0.020 C 
ATOM     27  C   UNL     1      14.910  -7.413   7.972  0.00  0.00    +0.006 C 
ATOM     28  C   UNL     1      15.820  -6.155   8.127  0.00  0.00    +0.000 C 
ATOM     29  C   UNL     1      15.221  -4.753   7.732  0.00  0.00    +0.000 C 
ATOM     30  C   UNL     1      13.702  -4.662   7.973  0.00  0.00    +0.000 C 
ATOM     31  C   UNL     1      13.031  -6.032   7.741  0.00  0.00    +0.006 C 
ENDBRANCH  25  26
ENDBRANCH  24  25
ENDBRANCH  23  24
TORSDOF 6
