REMARK  Name = 6TV
REMARK  7 active torsions:
REMARK  status: ('A' for Active; 'I' for Inactive)
REMARK    1  A    between atoms: S_6  and  N1_8
REMARK    2  A    between atoms: S_6  and  C5_15
REMARK    3  A    between atoms: N1_8  and  C4_9
REMARK    4  A    between atoms: C4_9  and  C3_10
REMARK    5  A    between atoms: C3_10  and  N_11
REMARK    6  A    between atoms: N_11  and  C2_12
REMARK    7  A    between atoms: C2_12  and  C1_13
REMARK                            x       y       z     vdW  Elec       q    Type
REMARK                         _______ _______ _______ _____ _____    ______ ____
ROOT
ATOM      1  C   UNL     1      14.946 -23.670 -25.873  0.00  0.00    +0.022 A 
ATOM      2  C   UNL     1      15.692 -22.815 -25.024  0.00  0.00    +0.021 A 
ATOM      3  C   UNL     1      16.570 -23.435 -24.102  0.00  0.00    +0.099 A 
ATOM      4  N   UNL     1      16.736 -24.740 -23.997  0.00  0.00    -0.242 NA
ATOM      5  C   UNL     1      16.032 -25.526 -24.825  0.00  0.00    +0.099 A 
ATOM      6  C   UNL     1      15.527 -21.413 -25.122  0.00  0.00    +0.002 A 
ATOM      7  C   UNL     1      14.649 -20.877 -26.019  0.00  0.00    +0.001 A 
ATOM      8  C   UNL     1      13.899 -21.693 -26.850  0.00  0.00    +0.020 A 
ATOM      9  C   UNL     1      15.150 -25.062 -25.753  0.00  0.00    +0.022 A 
ATOM     10  C   UNL     1      14.034 -23.056 -26.787  0.00  0.00    +0.124 A 
ENDROOT
BRANCH  10  11
ATOM     11  S   UNL     1      13.064 -24.023 -27.911  0.00  0.00    +0.077 S 
ATOM     12  O   UNL     1      12.602 -25.199 -27.229  0.00  0.00    -0.152 OA
ATOM     20  O   UNL     1      13.812 -24.154 -29.126  0.00  0.00    -0.152 OA
BRANCH  11  13
ATOM     13  N   UNL     1      11.745 -23.157 -28.242  0.00  0.00    -0.076 NA
BRANCH  13  14
ATOM     14  C   UNL     1      10.776 -22.897 -27.169  0.00  0.00    +0.134 C 
BRANCH  14  15
ATOM     15  C   UNL     1       9.626 -22.045 -27.638  0.00  0.00    +0.110 C 
BRANCH  15  16
ATOM     16  N   UNL     1       8.780 -22.783 -28.620  0.00  0.00    -0.217 NA
BRANCH  16  17
ATOM     17  C   UNL     1       7.615 -21.961 -29.061  0.00  0.00    +0.089 C 
BRANCH  17  18
ATOM     18  C   UNL     1       6.654 -22.577 -29.945  0.00  0.00    +0.019 C 
ATOM     19  C   UNL     1       5.618 -21.550 -30.364  0.00  0.00    +0.002 C 
ENDBRANCH  17  18
ENDBRANCH  16  17
ENDBRANCH  15  16
ENDBRANCH  14  15
ENDBRANCH  13  14
ENDBRANCH  11  13
ENDBRANCH  10  11
TORSDOF 7
