REMARK  Name = 6HWV
REMARK  10 active torsions:
REMARK  status: ('A' for Active; 'I' for Inactive)
REMARK    1  A    between atoms: C10_1  and  C09_14
REMARK    2  A    between atoms: C10_1  and  C11_15
REMARK    3  A    between atoms: C17_3  and  C21_4
REMARK    4  A    between atoms: C22_5  and  C36_26
REMARK    5  A    between atoms: C24_6  and  N25_38
REMARK    6  A    between atoms: C03_9  and  O02_41
REMARK    7  A    between atoms: C06_12  and  O07_42
REMARK    8  A    between atoms: C11_15  and  C12_16
REMARK    9  A    between atoms: C12_16  and  N14_35
REMARK   10  A    between atoms: C27_20  and  N26_39
REMARK                            x       y       z     vdW  Elec       q    Type
REMARK                         _______ _______ _______ _____ _____    ______ ____
ROOT
ATOM     11  C   UNL     1     -22.772   0.762  20.423  0.00  0.00    +0.050 A 
ATOM     12  N   UNL     1     -22.292   1.558  19.441  0.00  0.00    -0.250 N 
ATOM     13  C   UNL     1     -21.656   2.910  19.368  0.00  0.00    -0.100 C 
ATOM     14  C   UNL     1     -22.491   0.946  18.278  0.00  0.00    +0.250 A 
ATOM     24  N   UNL     1     -23.023  -0.252  18.475  0.00  0.00    -0.200 NA
ATOM     25  C   UNL     1     -23.211  -0.370  19.795  0.00  0.00    +0.150 A 
ENDROOT
BRANCH  11  10
ATOM      5  N   UNL     1     -22.614   3.906  24.217  0.00  0.00    -0.100 NA
ATOM      6  C   UNL     1     -22.619   2.665  23.660  0.00  0.00    +0.100 A 
ATOM      7  N   UNL     1     -22.494   1.649  24.527  0.00  0.00    -0.300 NA
ATOM      8  C   UNL     1     -22.472   0.323  24.068  0.00  0.00    -0.100 A 
ATOM      9  C   UNL     1     -22.565   0.046  22.707  0.00  0.00    -0.100 A 
ATOM     10  C   UNL     1     -22.717   1.064  21.762  0.00  0.00    +0.000 A 
ATOM     33  C   UNL     1     -22.719   2.372  22.289  0.00  0.00    -0.100 A 
BRANCH   5   3
ATOM      3  C   UNL     1     -22.621   5.075  23.525  0.00  0.00    +0.600 C 
ATOM      4  O   UNL     1     -22.696   5.199  22.304  0.00  0.00    -0.550 OA
BRANCH   3   2
ATOM      2  C   UNL     1     -22.566   6.328  24.422  0.00  0.00    -0.100 C 
BRANCH   2   1
ATOM      1  C   UNL     1     -22.077   7.544  23.621  0.00  0.00    -0.100 C 
BRANCH   1  34
ATOM     34  C   UNL     1     -21.343   8.436  24.418  0.00  0.00    +0.000 A 
ATOM     35  C   UNL     1     -19.952   8.352  24.431  0.00  0.00    -0.130 A 
ATOM     36  C   UNL     1     -19.196   9.228  25.208  0.00  0.00    +0.185 A 
ATOM     39  C   UNL     1     -19.831  10.198  25.977  0.00  0.00    -0.130 A 
ATOM     40  C   UNL     1     -21.218  10.297  25.968  0.00  0.00    -0.130 A 
ATOM     41  C   UNL     1     -21.965   9.421  25.186  0.00  0.00    +0.185 A 
BRANCH  36  37
ATOM     37  O   UNL     1     -17.833   9.144  25.227  0.00  0.00    -0.365 OA
ATOM     38  C   UNL     1     -17.296   8.952  23.913  0.00  0.00    +0.030 C 
ENDBRANCH  36  37
BRANCH  41  42
ATOM     42  O   UNL     1     -23.329   9.475  25.147  0.00  0.00    -0.365 OA
ATOM     43  C   UNL     1     -23.804  10.476  24.233  0.00  0.00    +0.030 C 
ENDBRANCH  41  42
ENDBRANCH   1  34
ENDBRANCH   2   1
ENDBRANCH   3   2
ENDBRANCH   5   3
ENDBRANCH  11  10
BRANCH  25  26
ATOM     26  C   UNL     1     -23.772  -1.504  20.259  0.00  0.00    +0.000 A 
ATOM     27  C   UNL     1     -23.211  -2.723  19.880  0.00  0.00    -0.130 A 
ATOM     28  C   UNL     1     -23.761  -3.928  20.324  0.00  0.00    -0.130 A 
ATOM     29  C   UNL     1     -24.895  -3.920  21.130  0.00  0.00    +0.300 A 
ATOM     30  F   UNL     1     -25.458  -5.096  21.583  0.00  0.00    -0.300 F 
ATOM     31  C   UNL     1     -25.464  -2.710  21.499  0.00  0.00    -0.130 A 
ATOM     32  C   UNL     1     -24.909  -1.513  21.060  0.00  0.00    -0.130 A 
ENDBRANCH  25  26
BRANCH  14  15
ATOM     15  N   UNL     1     -22.086   1.443  17.105  0.00  0.00    -0.050 NA
ATOM     16  N   UNL     1     -21.995   0.629  16.155  0.00  0.00    -0.050 NA
BRANCH  16  17
ATOM     17  C   UNL     1     -21.385   1.004  15.032  0.00  0.00    +0.050 A 
ATOM     18  C   UNL     1     -20.557   2.122  15.037  0.00  0.00    -0.130 A 
ATOM     19  C   UNL     1     -19.870   2.492  13.887  0.00  0.00    -0.130 A 
ATOM     20  C   UNL     1     -19.988   1.729  12.731  0.00  0.00    +0.300 A 
ATOM     21  F   UNL     1     -19.307   2.100  11.596  0.00  0.00    -0.300 F 
ATOM     22  C   UNL     1     -20.795   0.596  12.729  0.00  0.00    -0.130 A 
ATOM     23  C   UNL     1     -21.482   0.225  13.883  0.00  0.00    -0.130 A 
ENDBRANCH  16  17
ENDBRANCH  14  15
TORSDOF 10
