REMARK  Name = 4dea_ligand
REMARK  5 active torsions:
REMARK  status: ('A' for Active; 'I' for Inactive)
REMARK    1  A    between atoms: C01_1  and  C19_22
REMARK    2  A    between atoms: N01_2  and  C09_12
REMARK    3  A    between atoms: N04_7  and  C13_16
REMARK    4  A    between atoms: N04_7  and  C16_19
REMARK    5  A    between atoms: C06_9  and  C11_14
REMARK                            x       y       z     vdW  Elec       q    Type
REMARK                         _______ _______ _______ _____ _____    ______ ____
ROOT
ATOM      9  C   UNL     1      -4.918 -30.044   7.405  0.00  0.00    +0.135 A 
ATOM     10  C   UNL     1      -4.895 -29.891   8.794  0.00  0.00    +0.057 A 
ATOM     11  C   UNL     1      -4.240 -30.905   9.500  0.00  0.00    +0.086 A 
ATOM     12  N   UNL     1      -3.648 -31.987   8.905  0.00  0.00    -0.268 NA
ATOM     13  C   UNL     1      -3.712 -32.055   7.542  0.00  0.00    +0.196 A 
ATOM     14  N   UNL     1      -3.133 -33.108   6.996  0.00  0.00    -0.243 N 
ATOM     15  H   UNL     1      -2.936 -33.885   7.643  0.00  0.00    +0.219 HD
ATOM     25  N   UNL     1      -4.333 -31.115   6.766  0.00  0.00    -0.234 NA
ENDROOT
BRANCH  14  16
ATOM     16  C   UNL     1      -2.768 -33.314   5.740  0.00  0.00    +0.068 A 
ATOM     17  C   UNL     1      -3.489 -32.787   4.611  0.00  0.00    +0.020 A 
ATOM     18  C   UNL     1      -3.071 -33.035   3.281  0.00  0.00    +0.005 A 
ATOM     19  C   UNL     1      -1.916 -33.828   3.036  0.00  0.00    -0.002 A 
ATOM     23  C   UNL     1      -1.189 -34.372   4.152  0.00  0.00    +0.005 A 
ATOM     24  C   UNL     1      -1.616 -34.112   5.486  0.00  0.00    +0.020 A 
BRANCH  19  20
ATOM     20  C   UNL     1      -1.498 -34.064   1.741  0.00  0.00    +0.055 C 
ATOM     21  O   UNL     1      -0.213 -34.262   1.484  0.00  0.00    -0.564 OA
ATOM     22  O   UNL     1      -2.284 -34.078   0.818  0.00  0.00    -0.564 OA
ENDBRANCH  19  20
ENDBRANCH  14  16
BRANCH   9   7
ATOM      7  N   UNL     1      -5.528 -29.112   6.707  0.00  0.00    -0.254 N 
ATOM      8  H   UNL     1      -5.782 -28.241   7.194  0.00  0.00    +0.217 HD
BRANCH   7   5
ATOM      2  C   UNL     1      -6.517 -29.446   2.671  0.00  0.00    -0.002 A 
ATOM      3  C   UNL     1      -5.161 -29.461   3.072  0.00  0.00    +0.005 A 
ATOM      4  C   UNL     1      -4.819 -29.343   4.438  0.00  0.00    +0.020 A 
ATOM      5  C   UNL     1      -5.836 -29.211   5.438  0.00  0.00    +0.067 A 
ATOM      6  C   UNL     1      -7.201 -29.190   5.030  0.00  0.00    +0.020 A 
ATOM     26  C   UNL     1      -7.543 -29.307   3.652  0.00  0.00    +0.005 A 
BRANCH   2   1
ATOM      1  C   UNL     1      -6.939 -29.582   1.184  0.00  0.00    +0.055 C 
ATOM     27  O   UNL     1      -8.112 -29.680   0.874  0.00  0.00    -0.564 OA
ATOM     28  O   UNL     1      -5.923 -29.611   0.176  0.00  0.00    -0.564 OA
ENDBRANCH   2   1
ENDBRANCH   7   5
ENDBRANCH   9   7
TORSDOF 5
