REMARK  Name = 4eh6_ligand
REMARK  2 active torsions:
REMARK  status: ('A' for Active; 'I' for Inactive)
REMARK    1  A    between atoms: CAN_6  and  NAL_7
REMARK    2  A    between atoms: CAM_8  and  CAO_10
REMARK                            x       y       z     vdW  Elec       q    Type
REMARK                         _______ _______ _______ _____ _____    ______ ____
ROOT
ATOM      3  N   UNL     1       4.137   0.002  19.398  0.00  0.00    -0.232 N 
ATOM      4  H   UNL     1       4.312   1.007  19.406  0.00  0.00    +0.226 HD
ATOM      5  C   UNL     1       3.589  -0.555  20.485  0.00  0.00    +0.240 C 
ATOM     12  O   UNL     1       3.294  -1.752  20.582  0.00  0.00    -0.370 OA
ENDROOT
BRANCH   3   2
ATOM      1  C   UNL     1       3.499  -1.367  17.554  0.00  0.00    +0.009 A 
ATOM      2  C   UNL     1       4.466  -0.688  18.305  0.00  0.00    +0.066 A 
ATOM     13  C   UNL     1       5.804  -0.705  17.920  0.00  0.00    +0.009 A 
ATOM     14  C   UNL     1       6.159  -1.403  16.776  0.00  0.00    -0.018 A 
ATOM     15  C   UNL     1       5.203  -2.085  16.034  0.00  0.00    -0.028 A 
ATOM     16  C   UNL     1       3.870  -2.074  16.421  0.00  0.00    -0.018 A 
ENDBRANCH   3   2
BRANCH   5   6
ATOM      6  C   UNL     1       3.355   0.442  21.651  0.00  0.00    +0.084 A 
ATOM      7  C   UNL     1       2.991   1.772  21.382  0.00  0.00    +0.120 A 
ATOM      8  N   UNL     1       2.797   2.631  22.374  0.00  0.00    -0.290 NA
ATOM      9  C   UNL     1       2.950   2.259  23.646  0.00  0.00    +0.101 A 
ATOM     10  C   UNL     1       3.326   0.953  23.996  0.00  0.00    +0.044 A 
ATOM     11  C   UNL     1       3.535   0.026  22.976  0.00  0.00    +0.057 A 
ENDBRANCH   5   6
TORSDOF 2
