REMARK  Name = 3d2r_ligand
REMARK  9 active torsions:
REMARK  status: ('A' for Active; 'I' for Inactive)
REMARK    1  A    between atoms: PB_1  and  O3A_8
REMARK    2  A    between atoms: PA_5  and  O3A_8
REMARK    3  A    between atoms: PA_5  and  O5'_9
REMARK    4  A    between atoms: O5'_9  and  C5'_10
REMARK    5  A    between atoms: C5'_10  and  C4'_11
REMARK    6  A    between atoms: C3'_13  and  O3'_14
REMARK    7  A    between atoms: C2'_15  and  O2'_16
REMARK    8  A    between atoms: C1'_17  and  N9_18
REMARK    9  A    between atoms: C6_22  and  N6_23
REMARK                            x       y       z     vdW  Elec       q    Type
REMARK                         _______ _______ _______ _____ _____    ______ ____
ROOT
ATOM      6  C   UNL     1     -17.016   5.220  28.178  0.00  0.00    +0.184 C 
ATOM      7  C   UNL     1     -17.837   6.434  28.642  0.00  0.00    +0.180 C 
ATOM      8  C   UNL     1     -16.804   7.345  29.227  0.00  0.00    +0.206 C 
ATOM      9  C   UNL     1     -15.591   7.078  28.335  0.00  0.00    +0.301 C 
ATOM     26  O   UNL     1     -15.837   5.836  27.693  0.00  0.00    -0.336 OA
ENDROOT
BRANCH   9  10
ATOM     10  N   UNL     1     -15.397   8.152  27.339  0.00  0.00    -0.192 N 
ATOM     11  C   UNL     1     -14.795   9.310  27.625  0.00  0.00    +0.161 A 
ATOM     12  N   UNL     1     -14.286   9.888  28.775  0.00  0.00    -0.271 NA
ATOM     13  C   UNL     1     -13.753  11.109  28.744  0.00  0.00    +0.153 A 
ATOM     14  N   UNL     1     -13.685  11.793  27.597  0.00  0.00    -0.270 NA
ATOM     15  C   UNL     1     -14.245  11.373  26.402  0.00  0.00    +0.130 A 
ATOM     19  C   UNL     1     -14.789  10.047  26.353  0.00  0.00    +0.105 A 
ATOM     20  N   UNL     1     -15.334   9.241  25.388  0.00  0.00    -0.296 NA
ATOM     21  C   UNL     1     -15.708   8.103  26.015  0.00  0.00    +0.247 A 
BRANCH  15  16
ATOM     16  N   UNL     1     -14.215  12.162  25.254  0.00  0.00    -0.315 N 
ATOM     17  H   UNL     1     -14.584  11.793  24.366  0.00  0.00    +0.182 HD
ATOM     18  H   UNL     1     -13.823  13.114  25.293  0.00  0.00    +0.182 HD
ENDBRANCH  15  16
ENDBRANCH   9  10
BRANCH   8  22
ATOM     22  O   UNL     1     -16.495   6.859  30.538  0.00  0.00    -0.384 OA
ATOM     23  H   UNL     1     -17.282   6.864  31.070  0.00  0.00    +0.210 HD
ENDBRANCH   8  22
BRANCH   7  24
ATOM     24  O   UNL     1     -18.885   6.091  29.567  0.00  0.00    -0.386 OA
ATOM     25  H   UNL     1     -19.484   5.481  29.153  0.00  0.00    +0.210 HD
ENDBRANCH   7  24
BRANCH   6   5
ATOM      5  C   UNL     1     -17.629   4.431  27.007  0.00  0.00    +0.243 C 
BRANCH   5   4
ATOM      4  O   UNL     1     -18.069   5.278  25.920  0.00  0.00    -0.244 OA
BRANCH   4   3
ATOM      3  P   UNL     1     -19.274   4.692  24.966  0.00  0.00    +0.328 P 
ATOM     27  O   UNL     1     -18.800   3.361  24.417  0.00  0.00    -0.556 OA
ATOM     28  O   UNL     1     -19.661   5.880  24.122  0.00  0.00    -0.556 OA
BRANCH   3   2
ATOM      2  O   UNL     1     -20.473   4.368  26.010  0.00  0.00    -0.155 OA
BRANCH   2   1
ATOM      1  P   UNL     1     -21.465   5.378  26.868  0.00  0.00    +0.207 P 
ATOM     29  O   UNL     1     -21.325   6.753  26.323  0.00  0.00    -0.589 OA
ATOM     30  O   UNL     1     -22.802   4.812  26.712  0.00  0.00    -0.589 OA
ATOM     31  O   UNL     1     -20.912   5.279  28.332  0.00  0.00    -0.589 OA
ENDBRANCH   2   1
ENDBRANCH   3   2
ENDBRANCH   4   3
ENDBRANCH   5   4
ENDBRANCH   6   5
TORSDOF 9
