REMARK  Name = 3ezv_ligand
REMARK  5 active torsions:
REMARK  status: ('A' for Active; 'I' for Inactive)
REMARK    1  A    between atoms: C2_2  and  C19_19
REMARK    2  A    between atoms: C9_9  and  C10_10
REMARK    3  A    between atoms: C18_18  and  N20_20
REMARK    4  A    between atoms: N23_23  and  C26_26
REMARK    5  A    between atoms: C29_29  and  N32_32
REMARK                            x       y       z     vdW  Elec       q    Type
REMARK                         _______ _______ _______ _____ _____    ______ ____
ROOT
ATOM      1  C   UNL     1      -1.357  30.141  10.037  0.00  0.00    +0.004 A 
ATOM      2  C   UNL     1      -0.260  29.755   9.302  0.00  0.00    +0.011 A 
ATOM      3  C   UNL     1       0.286  30.715   8.470  0.00  0.00    +0.035 A 
ATOM      4  C   UNL     1       1.376  30.773   7.567  0.00  0.00    +0.176 A 
ATOM     23  N   UNL     1       1.484  31.977   6.990  0.00  0.00    -0.219 N 
ATOM     24  H   UNL     1       2.182  32.292   6.301  0.00  0.00    +0.296 HD
ATOM     25  N   UNL     1       0.470  32.676   7.521  0.00  0.00    -0.266 NA
ATOM     26  C   UNL     1      -0.281  31.971   8.414  0.00  0.00    +0.017 A 
ATOM     27  C   UNL     1      -1.361  32.368   9.160  0.00  0.00    +0.013 A 
ATOM     28  C   UNL     1      -1.895  31.403   9.982  0.00  0.00    -0.026 A 
ENDROOT
BRANCH   4   5
ATOM      5  C   UNL     1       2.343  29.688   7.296  0.00  0.00    +0.169 A 
ATOM      6  N   UNL     1       2.332  28.452   7.875  0.00  0.00    -0.311 NA
ATOM      7  C   UNL     1       3.382  27.738   7.383  0.00  0.00    +0.055 A 
ATOM      8  C   UNL     1       3.801  26.455   7.638  0.00  0.00    +0.047 A 
ATOM     17  C   UNL     1       4.919  26.074   6.937  0.00  0.00    -0.018 A 
ATOM     18  C   UNL     1       5.559  26.912   6.056  0.00  0.00    -0.036 A 
ATOM     19  C   UNL     1       5.129  28.194   5.811  0.00  0.00    -0.012 A 
ATOM     20  C   UNL     1       4.004  28.597   6.506  0.00  0.00    +0.070 A 
ATOM     21  N   UNL     1       3.351  29.799   6.467  0.00  0.00    -0.257 N 
ATOM     22  H   UNL     1       3.601  30.623   5.901  0.00  0.00    +0.224 HD
BRANCH   8   9
ATOM      9  N   UNL     1       3.144  25.605   8.530  0.00  0.00    -0.300 N 
ATOM     10  C   UNL     1       3.912  24.396   8.721  0.00  0.00    +0.181 C 
ATOM     11  C   UNL     1       3.118  23.460   9.602  0.00  0.00    +0.155 C 
ATOM     12  N   UNL     1       2.738  24.182  10.844  0.00  0.00    +0.236 N 
ATOM     13  H   UNL     1       3.599  24.418  11.312  0.00  0.00    +0.203 HD
ATOM     14  C   UNL     1       1.971  23.308  11.760  0.00  0.00    +0.190 C 
ATOM     15  C   UNL     1       2.022  25.464  10.606  0.00  0.00    +0.155 C 
ATOM     16  C   UNL     1       2.918  26.330   9.755  0.00  0.00    +0.181 C 
ENDBRANCH   8   9
ENDBRANCH   4   5
BRANCH  28  29
ATOM     29  C   UNL     1      -2.975  31.761  10.859  0.00  0.00    -0.030 A 
ATOM     30  C   UNL     1      -2.962  33.024  11.402  0.00  0.00    -0.005 A 
ATOM     31  C   UNL     1      -3.934  33.432  12.283  0.00  0.00    +0.010 A 
ATOM     32  C   UNL     1      -4.936  32.562  12.650  0.00  0.00    +0.037 A 
ATOM     36  C   UNL     1      -4.949  31.294  12.113  0.00  0.00    +0.010 A 
ATOM     37  C   UNL     1      -3.978  30.894  11.223  0.00  0.00    -0.005 A 
BRANCH  32  33
ATOM     33  N   UNL     1      -5.922  32.976  13.565  0.00  0.00    -0.336 N 
ATOM     34  H   UNL     1      -5.893  33.928  13.958  0.00  0.00    +0.173 HD
ATOM     35  H   UNL     1      -6.673  32.327  13.842  0.00  0.00    +0.173 HD
ENDBRANCH  32  33
ENDBRANCH  28  29
TORSDOF 4
