REMARK  Name = 6BRU
REMARK  5 active torsions:
REMARK  status: ('A' for Active; 'I' for Inactive)
REMARK    1  A    between atoms: C_6  and  C_9
REMARK    2  A    between atoms: C_7  and  N_18
REMARK    3  A    between atoms: C_8  and  N_19
REMARK    4  A    between atoms: C_11  and  O_23
REMARK    5  A    between atoms: N_12  and  C_16
REMARK                            x       y       z     vdW  Elec       q    Type
REMARK                         _______ _______ _______ _____ _____    ______ ____
ROOT
ATOM      1  C   UNL     1     -30.463   3.485  49.338  0.00  0.00    +0.093 A 
ATOM      2  N   UNL     1     -31.424   2.634  49.945  0.00  0.00    -0.269 N 
ATOM      3  C   UNL     1     -32.165   1.672  49.111  0.00  0.00    +0.138 C 
ATOM      4  C   UNL     1     -31.660   2.653  51.293  0.00  0.00    +0.240 C 
ATOM      5  O   UNL     1     -32.422   1.857  51.825  0.00  0.00    -0.273 OA
ATOM      6  C   UNL     1     -30.929   3.687  52.138  0.00  0.00    +0.158 C 
ATOM      7  N   UNL     1     -29.681   4.184  51.513  0.00  0.00    -0.307 N 
ATOM      8  C   UNL     1     -28.593   4.642  52.381  0.00  0.00    +0.131 C 
ATOM      9  C   UNL     1     -31.828   4.867  52.472  0.00  0.00    +0.038 C 
ATOM     10  C   UNL     1     -30.304   3.609  47.945  0.00  0.00    +0.141 A 
ATOM     11  N   UNL     1     -29.387   4.409  47.413  0.00  0.00    -0.219 NA
ATOM     12  C   UNL     1     -28.598   5.110  48.255  0.00  0.00    +0.230 A 
ATOM     13  N   UNL     1     -28.679   5.064  49.594  0.00  0.00    -0.311 N 
ATOM     14  H   UNL     1     -28.032   5.656  50.207  0.00  0.00    +0.170 HD
ATOM     15  N   UNL     1     -27.658   5.932  47.697  0.00  0.00    -0.213 NA
ATOM     26  C   UNL     1     -29.597   4.252  50.140  0.00  0.00    +0.125 A 
ENDROOT
BRANCH  15  16
ATOM     16  C   UNL     1     -26.631   6.714  48.287  0.00  0.00    +0.073 A 
ATOM     17  C   UNL     1     -26.654   7.074  49.635  0.00  0.00    +0.070 A 
ATOM     18  C   UNL     1     -25.648   7.860  50.142  0.00  0.00    +0.170 A 
ATOM     19  F   UNL     1     -25.670   8.202  51.448  0.00  0.00    -0.202 F 
ATOM     20  C   UNL     1     -24.596   8.301  49.362  0.00  0.00    +0.188 A 
ATOM     23  C   UNL     1     -24.584   7.929  48.026  0.00  0.00    +0.170 A 
ATOM     24  F   UNL     1     -23.572   8.353  47.242  0.00  0.00    -0.202 F 
ATOM     25  C   UNL     1     -25.585   7.157  47.477  0.00  0.00    +0.070 A 
BRANCH  20  21
ATOM     21  O   UNL     1     -23.636   9.057  49.926  0.00  0.00    -0.502 OA
ATOM     22  H   UNL     1     -24.063   9.935  50.312  0.00  0.00    +0.292 HD
ENDBRANCH  20  21
ENDBRANCH  15  16
TORSDOF 2
