REMARK  Name = 2WEL
REMARK  6 active torsions:
REMARK  status: ('A' for Active; 'I' for Inactive)
REMARK    1  A    between atoms: C_1  and  N_2
REMARK    2  A    between atoms: N_2  and  C_3
REMARK    3  A    between atoms: N_2  and  S_4
REMARK    4  A    between atoms: S_4  and  C_7
REMARK    5  A    between atoms: C_16  and  C_17
REMARK    6  A    between atoms: C_17  and  C_18
REMARK                            x       y       z     vdW  Elec       q    Type
REMARK                         _______ _______ _______ _____ _____    ______ ____
ROOT
ATOM      4  C   UNL     1      20.280 -13.301  -1.369  0.00  0.00    +0.106 A 
ATOM      5  C   UNL     1      20.295 -14.694  -1.535  0.00  0.00    +0.030 A 
ATOM      6  C   UNL     1      21.487 -15.421  -1.414  0.00  0.00    +0.028 A 
ATOM      7  C   UNL     1      22.662 -14.744  -1.117  0.00  0.00    +0.065 A 
ATOM      8  N   UNL     1      23.913 -15.180  -0.920  0.00  0.00    -0.176 NA
ATOM      9  C   UNL     1      24.696 -14.129  -0.626  0.00  0.00    +0.265 C 
ATOM     10  C   UNL     1      23.928 -12.946  -0.649  0.00  0.00    +0.031 C 
ATOM     21  O   UNL     1      25.901 -14.226  -0.414  0.00  0.00    -0.268 OA
ATOM     22  C   UNL     1      22.637 -13.341  -0.953  0.00  0.00    +0.008 A 
ATOM     23  C   UNL     1      21.453 -12.620  -1.077  0.00  0.00    +0.039 A 
ENDROOT
BRANCH   4   3
ATOM      3  S   UNL     1      18.742 -12.379  -1.563  0.00  0.00    +0.060 S 
ATOM     24  O   UNL     1      18.645 -11.314  -0.537  0.00  0.00    -0.153 OA
ATOM     25  O   UNL     1      17.686 -13.413  -1.440  0.00  0.00    -0.153 OA
BRANCH   3   2
ATOM      1  C   UNL     1      19.119 -12.613  -4.165  0.00  0.00    +0.131 C 
ATOM      2  N   UNL     1      18.762 -11.650  -3.116  0.00  0.00    -0.183 NA
ATOM     26  C   UNL     1      19.714 -10.515  -3.150  0.00  0.00    +0.131 C 
ENDBRANCH   3   2
ENDBRANCH   4   3
BRANCH  10  11
ATOM     11  C   UNL     1      24.270 -11.612  -0.434  0.00  0.00    +0.096 C 
BRANCH  11  12
ATOM     12  C   UNL     1      25.578 -11.131  -0.348  0.00  0.00    +0.046 A 
ATOM     13  N   UNL     1      26.738 -11.803  -0.221  0.00  0.00    -0.256 NA
ATOM     14  C   UNL     1      27.735 -10.908  -0.136  0.00  0.00    +0.045 A 
ATOM     15  C   UNL     1      29.228 -11.203   0.029  0.00  0.00    +0.056 C 
ATOM     16  C   UNL     1      29.927  -9.972   0.650  0.00  0.00    +0.006 C 
ATOM     17  C   UNL     1      29.495  -8.594   0.092  0.00  0.00    +0.005 C 
ATOM     18  C   UNL     1      27.990  -8.340  -0.174  0.00  0.00    +0.037 C 
ATOM     19  C   UNL     1      27.176  -9.642  -0.237  0.00  0.00    -0.024 A 
ATOM     20  C   UNL     1      25.834  -9.799  -0.357  0.00  0.00    +0.029 A 
ENDBRANCH  11  12
ENDBRANCH  10  11
TORSDOF 4
