REMARK  Name = 3efk_ligand
REMARK  9 active torsions:
REMARK  status: ('A' for Active; 'I' for Inactive)
REMARK    1  A    between atoms: C5_4  and  O3_25
REMARK    2  A    between atoms: C6_5  and  O1_19
REMARK    3  A    between atoms: C7_6  and  O2_18
REMARK    4  A    between atoms: C10_8  and  O2_18
REMARK    5  A    between atoms: C15_10  and  C18_30
REMARK    6  A    between atoms: C22_14  and  N2_33
REMARK    7  A    between atoms: O1_19  and  C11_20
REMARK    8  A    between atoms: O3_25  and  C12_26
REMARK    9  A    between atoms: N4_34  and  C23_35
REMARK                            x       y       z     vdW  Elec       q    Type
REMARK                         _______ _______ _______ _____ _____    ______ ____
ROOT
ATOM      6  C   UNL     1      62.541  13.557 116.659  0.00  0.00    +0.208 A 
ATOM      7  C   UNL     1      62.746  14.937 116.660  0.00  0.00    +0.081 A 
ATOM      8  C   UNL     1      63.159  15.544 115.468  0.00  0.00    +0.046 A 
ATOM      9  C   UNL     1      63.338  14.826 114.274  0.00  0.00    +0.030 A 
ATOM     28  C   UNL     1      63.135  13.450 114.302  0.00  0.00    +0.078 A 
ATOM     29  C   UNL     1      62.735  12.844 115.485  0.00  0.00    +0.205 A 
ATOM     30  F   UNL     1      62.524  11.525 115.518  0.00  0.00    -0.171 F 
ENDROOT
BRANCH   9  10
ATOM     10  C   UNL     1      63.797  15.447 113.096  0.00  0.00    +0.139 A 
ATOM     11  C   UNL     1      63.663  16.816 112.826  0.00  0.00    +0.225 A 
ATOM     12  N   UNL     1      64.208  17.348 111.636  0.00  0.00    -0.241 N 
ATOM     13  C   UNL     1      64.048  18.797 111.331  0.00  0.00    +0.165 C 
ATOM     14  C   UNL     1      64.891  16.495 110.742  0.00  0.00    +0.217 A 
ATOM     15  N   UNL     1      65.400  17.008 109.604  0.00  0.00    -0.277 N 
ATOM     16  H   UNL     1      65.059  17.937 109.319  0.00  0.00    +0.208 HD
ATOM     24  N   UNL     1      65.008  15.189 111.051  0.00  0.00    -0.232 N 
ATOM     25  H   UNL     1      65.502  14.566 110.396  0.00  0.00    +0.242 HD
ATOM     26  O   UNL     1      63.070  17.570 113.594  0.00  0.00    -0.381 OA
ATOM     27  C   UNL     1      64.509  14.677 112.170  0.00  0.00    +0.293 A 
BRANCH  15  17
ATOM     17  C   UNL     1      66.307  16.425 108.808  0.00  0.00    +0.058 A 
ATOM     18  C   UNL     1      67.497  15.906 109.329  0.00  0.00    +0.018 A 
ATOM     19  C   UNL     1      68.435  15.315 108.492  0.00  0.00    +0.023 A 
ATOM     20  C   UNL     1      68.185  15.236 107.125  0.00  0.00    +0.123 A 
ATOM     21  F   UNL     1      69.100  14.658 106.325  0.00  0.00    -0.191 F 
ATOM     22  C   UNL     1      67.002  15.751 106.588  0.00  0.00    +0.023 A 
ATOM     23  C   UNL     1      66.066  16.351 107.432  0.00  0.00    +0.018 A 
ENDBRANCH  15  17
ENDBRANCH   9  10
BRANCH   6   5
ATOM      5  O   UNL     1      62.132  12.855 117.758  0.00  0.00    -0.203 OA
BRANCH   5   4
ATOM      1  N   UNL     1      64.582  12.524 121.095  0.00  0.00    -0.309 NA
ATOM      2  C   UNL     1      65.103  12.973 119.960  0.00  0.00    +0.086 A 
ATOM      3  C   UNL     1      64.320  13.094 118.809  0.00  0.00    +0.076 A 
ATOM      4  C   UNL     1      62.965  12.754 118.851  0.00  0.00    +0.169 A 
ATOM     31  C   UNL     1      62.448  12.285 120.066  0.00  0.00    +0.044 A 
ATOM     32  C   UNL     1      61.105  11.924 120.172  0.00  0.00    +0.046 A 
ATOM     33  C   UNL     1      60.595  11.461 121.388  0.00  0.00    +0.138 A 
ATOM     36  C   UNL     1      61.423  11.357 122.503  0.00  0.00    +0.136 A 
ATOM     39  C   UNL     1      62.775  11.709 122.398  0.00  0.00    +0.041 A 
ATOM     40  C   UNL     1      63.286  12.174 121.185  0.00  0.00    +0.034 A 
BRANCH  33  34
ATOM     34  O   UNL     1      59.283  11.106 121.527  0.00  0.00    -0.315 OA
ATOM     35  C   UNL     1      58.519  11.188 120.322  0.00  0.00    +0.234 C 
ENDBRANCH  33  34
BRANCH  36  37
ATOM     37  O   UNL     1      60.856  10.885 123.664  0.00  0.00    -0.317 OA
ATOM     38  C   UNL     1      61.658  10.872 124.854  0.00  0.00    +0.233 C 
ENDBRANCH  36  37
ENDBRANCH   5   4
ENDBRANCH   6   5
TORSDOF 6
