REMARK  Name = 5I8A
REMARK  4 active torsions:
REMARK  status: ('A' for Active; 'I' for Inactive)
REMARK    1  A    between atoms: S_1  and  C_4
REMARK    2  A    between atoms: S_1  and  C_7
REMARK    3  A    between atoms: C_5  and  C_16
REMARK    4  A    between atoms: C_8  and  C_21
REMARK                            x       y       z     vdW  Elec       q    Type
REMARK                         _______ _______ _______ _____ _____    ______ ____
ROOT
ATOM      3  C   UNL     1      26.206 -33.480  -2.651  0.00  0.00    +0.058 A 
ATOM      4  S   UNL     1      27.674 -34.148  -1.978  0.00  0.00    -0.079 S 
ATOM      5  C   UNL     1      28.469 -34.140  -3.511  0.00  0.00    +0.042 A 
ATOM     12  C   UNL     1      27.653 -33.655  -4.509  0.00  0.00    -0.016 A 
ATOM     13  C   UNL     1      27.987 -33.502  -5.971  0.00  0.00    +0.064 C 
ATOM     14  C   UNL     1      26.724 -33.329  -6.816  0.00  0.00    +0.108 C 
ATOM     15  N   UNL     1      25.716 -32.500  -6.138  0.00  0.00    -0.304 N 
ATOM     16  H   UNL     1      25.144 -31.848  -6.765  0.00  0.00    +0.150 HD
ATOM     17  C   UNL     1      25.425 -32.463  -4.816  0.00  0.00    +0.246 C 
ATOM     18  O   UNL     1      24.502 -31.781  -4.368  0.00  0.00    -0.270 OA
ATOM     25  C   UNL     1      26.345 -33.250  -4.009  0.00  0.00    +0.061 A 
ENDROOT
BRANCH   5   6
ATOM      6  C   UNL     1      29.871 -34.555  -3.550  0.00  0.00    +0.073 A 
ATOM      7  C   UNL     1      30.797 -34.542  -4.662  0.00  0.00    +0.050 A 
ATOM      8  C   UNL     1      31.988 -34.995  -4.162  0.00  0.00    +0.135 A 
ATOM      9  N   UNL     1      31.803 -35.261  -2.864  0.00  0.00    -0.182 NA
ATOM     10  N   UNL     1      30.533 -35.006  -2.474  0.00  0.00    -0.277 N 
ATOM     11  H   UNL     1      30.132 -35.139  -1.491  0.00  0.00    +0.189 HD
ENDBRANCH   5   6
BRANCH  14  19
ATOM     19  C   UNL     1      27.016 -32.848  -8.225  0.00  0.00    -0.027 A 
ATOM     20  C   UNL     1      28.011 -31.906  -8.472  0.00  0.00    +0.005 A 
ATOM     21  C   UNL     1      28.384 -31.596  -9.774  0.00  0.00    +0.000 A 
ATOM     22  C   UNL     1      27.757 -32.211 -10.843  0.00  0.00    +0.000 A 
ATOM     23  C   UNL     1      26.742 -33.120 -10.610  0.00  0.00    +0.000 A 
ATOM     24  C   UNL     1      26.370 -33.433  -9.310  0.00  0.00    +0.005 A 
ENDBRANCH  14  19
BRANCH   3   1
ATOM      1  S   UNL     1      24.787 -33.273  -1.637  0.00  0.00    -0.121 S 
ATOM      2  C   UNL     1      25.271 -33.874  -0.013  0.00  0.00    +0.090 C 
ENDBRANCH   3   1
TORSDOF 3
