REMARK  Name = 1x8b_ligand
REMARK  1 active torsions:
REMARK  status: ('A' for Active; 'I' for Inactive)
REMARK    1  A    between atoms: C2_18  and  C7_20
REMARK                            x       y       z     vdW  Elec       q    Type
REMARK                         _______ _______ _______ _____ _____    ______ ____
ROOT
ATOM      1  O   UNL     1       8.189  55.652  21.934  0.00  0.00    -0.404 OA
ATOM      2  C   UNL     1       7.021  55.262  22.405  0.00  0.00    +0.112 C 
ATOM      3  C   UNL     1       6.712  55.183  23.785  0.00  0.00    +0.172 C 
ATOM      4  C   UNL     1       5.397  54.747  24.096  0.00  0.00    +0.005 A 
ATOM      5  C   UNL     1       4.677  54.554  25.349  0.00  0.00    +0.021 A 
ATOM      6  C   UNL     1       5.033  54.757  26.721  0.00  0.00    +0.067 A 
ATOM      7  C   UNL     1       4.093  54.441  27.760  0.00  0.00    +0.067 A 
ATOM      8  C   UNL     1       2.732  53.990  27.482  0.00  0.00    -0.005 A 
ATOM     15  C   UNL     1       2.399  53.779  26.109  0.00  0.00    +0.037 A 
ATOM     16  C   UNL     1       4.859  54.781  28.971  0.00  0.00    +0.230 A 
ATOM     17  N   UNL     1       6.132  55.184  28.731  0.00  0.00    -0.201 N 
ATOM     18  H   UNL     1       6.831  55.426  29.404  0.00  0.00    +0.221 HD
ATOM     19  O   UNL     1       4.397  54.623  30.143  0.00  0.00    -0.371 OA
ATOM     20  C   UNL     1       6.249  55.187  27.392  0.00  0.00    +0.233 A 
ATOM     21  O   UNL     1       7.299  55.625  26.841  0.00  0.00    -0.369 OA
ATOM     22  C   UNL     1       3.343  54.030  25.093  0.00  0.00    +0.076 A 
ATOM     23  N   UNL     1       3.271  53.934  23.735  0.00  0.00    -0.274 N 
ATOM     24  H   UNL     1       2.443  53.578  23.236  0.00  0.00    +0.220 HD
ATOM     25  C   UNL     1       4.403  54.355  23.103  0.00  0.00    +0.076 A 
ATOM     26  C   UNL     1       4.766  54.389  21.750  0.00  0.00    +0.048 C 
ATOM     27  C   UNL     1       6.045  54.866  21.433  0.00  0.00    +0.041 C 
ENDROOT
BRANCH   8   9
ATOM      9  C   UNL     1       1.748  53.690  28.532  0.00  0.00    -0.018 A 
ATOM     10  C   UNL     1       1.020  52.503  28.465  0.00  0.00    +0.008 A 
ATOM     11  C   UNL     1       0.033  52.300  29.453  0.00  0.00    +0.001 A 
ATOM     12  C   UNL     1      -0.219  53.238  30.425  0.00  0.00    -0.000 A 
ATOM     13  C   UNL     1       0.490  54.433  30.509  0.00  0.00    +0.001 A 
ATOM     14  C   UNL     1       1.446  54.684  29.492  0.00  0.00    +0.008 A 
ENDBRANCH   8   9
TORSDOF 1
