REMARK  Name = 4L5B
REMARK  16 active torsions:
REMARK  status: ('A' for Active; 'I' for Inactive)
REMARK    1  A    between atoms: C_1  and  C_2
REMARK    2  A    between atoms: C_2  and  C_3
REMARK    3  A    between atoms: C_2  and  O_4
REMARK    4  A    between atoms: C_2  and  C_5
REMARK    5  A    between atoms: C_5  and  O_6
REMARK    6  A    between atoms: O_6  and  C_7
REMARK    7  A    between atoms: C_9  and  O_10
REMARK    8  A    between atoms: O_10  and  C_11
REMARK    9  A    between atoms: C_14  and  C_15
REMARK   10  A    between atoms: C_18  and  C_19
REMARK   11  A    between atoms: C_19  and  C_20
REMARK   12  A    between atoms: C_20  and  C_21
REMARK   13  A    between atoms: C_22  and  C_23
REMARK   14  A    between atoms: C_23  and  S_24
REMARK   15  A    between atoms: S_24  and  C_25
REMARK   16  A    between atoms: C_31  and  N_32
REMARK                            x       y       z     vdW  Elec       q    Type
REMARK                         _______ _______ _______ _____ _____    ______ ____
ROOT
ATOM     10  C   UNL     1     -32.893  12.437  -3.940  0.00  0.00    +0.109 A 
ATOM     11  S   UNL     1     -32.328  13.466  -5.166  0.00  0.00    -0.072 S 
ATOM     12  C   UNL     1     -30.780  13.405  -4.579  0.00  0.00    +0.014 A 
ATOM     13  C   UNL     1     -30.738  12.618  -3.495  0.00  0.00    +0.063 A 
ATOM     31  N   UNL     1     -31.904  12.075  -3.134  0.00  0.00    -0.243 NA
ENDROOT
BRANCH  10   9
ATOM      5  C   UNL     1     -35.887  10.796  -2.708  0.00  0.00    +0.163 A 
ATOM      6  C   UNL     1     -36.838  11.387  -3.537  0.00  0.00    +0.162 A 
ATOM      7  C   UNL     1     -36.470  12.327  -4.494  0.00  0.00    +0.050 A 
ATOM      8  C   UNL     1     -35.126  12.652  -4.588  0.00  0.00    +0.014 A 
ATOM      9  C   UNL     1     -34.158  12.059  -3.781  0.00  0.00    +0.011 A 
ATOM     34  C   UNL     1     -34.531  11.118  -2.819  0.00  0.00    +0.060 A 
BRANCH   6  32
ATOM     32  O   UNL     1     -38.127  11.003  -3.352  0.00  0.00    -0.491 OA
ATOM     33  C   UNL     1     -39.012  11.969  -3.953  0.00  0.00    +0.277 C 
ENDBRANCH   6  32
BRANCH   5   4
ATOM      4  O   UNL     1     -36.394   9.906  -1.820  0.00  0.00    -0.485 OA
BRANCH   4   3
ATOM      3  C   UNL     1     -35.461   8.952  -1.320  0.00  0.00    +0.263 C 
BRANCH   3   2
ATOM      1  C   UNL     1     -35.265   7.972   0.970  0.00  0.00    +0.044 C 
ATOM      2  C   UNL     1     -36.171   8.112  -0.260  0.00  0.00    +0.094 C 
ATOM     37  C   UNL     1     -37.481   8.799   0.152  0.00  0.00    +0.044 C 
BRANCH   2  35
ATOM     35  O   UNL     1     -36.467   6.823  -0.825  0.00  0.00    -0.386 OA
ATOM     36  H   UNL     1     -35.573   6.354  -1.115  0.00  0.00    +0.210 HD
ENDBRANCH   2  35
ENDBRANCH   3   2
ENDBRANCH   4   3
ENDBRANCH   5   4
ENDBRANCH  10   9
BRANCH  13  14
ATOM     14  C   UNL     1     -29.468  12.307  -2.699  0.00  0.00    +0.133 C 
BRANCH  14  15
ATOM     15  S   UNL     1     -28.778  10.655  -3.141  0.00  0.00    -0.080 S 
BRANCH  15  16
ATOM     16  C   UNL     1     -27.134  11.068  -3.577  0.00  0.00    +0.192 A 
ATOM     17  N   UNL     1     -26.773  12.354  -3.718  0.00  0.00    -0.207 NA
ATOM     18  C   UNL     1     -25.503  12.664  -4.029  0.00  0.00    +0.122 A 
ATOM     19  C   UNL     1     -24.535  11.643  -4.214  0.00  0.00    +0.086 A 
ATOM     20  C   UNL     1     -24.950  10.312  -4.053  0.00  0.00    +0.122 A 
ATOM     24  N   UNL     1     -25.229  13.978  -4.157  0.00  0.00    -0.343 N 
ATOM     25  H   UNL     1     -24.238  14.296  -4.404  0.00  0.00    +0.144 HD
ATOM     26  H   UNL     1     -26.003  14.703  -4.012  0.00  0.00    +0.144 HD
ATOM     27  N   UNL     1     -26.239  10.078  -3.750  0.00  0.00    -0.207 NA
BRANCH  20  21
ATOM     21  N   UNL     1     -24.121   9.248  -4.169  0.00  0.00    -0.343 N 
ATOM     22  H   UNL     1     -23.089   9.398  -4.409  0.00  0.00    +0.144 HD
ATOM     23  H   UNL     1     -24.498   8.258  -4.021  0.00  0.00    +0.144 HD
ENDBRANCH  20  21
ENDBRANCH  15  16
ENDBRANCH  14  15
ENDBRANCH  13  14
BRANCH  12  28
ATOM     28  C   UNL     1     -29.568  14.133  -5.181  0.00  0.00    +0.044 C 
BRANCH  28  29
ATOM     29  C   UNL     1     -29.736  15.650  -5.018  0.00  0.00    +0.002 C 
ATOM     30  C   UNL     1     -29.367  16.123  -3.593  0.00  0.00    +0.004 C 
ENDBRANCH  28  29
ENDBRANCH  12  28
TORSDOF 12
