REMARK  Name = 5GJD
REMARK  6 active torsions:
REMARK  status: ('A' for Active; 'I' for Inactive)
REMARK    1  A    between atoms: C_1  and  N_14
REMARK    2  A    between atoms: C_8  and  N_18
REMARK    3  A    between atoms: N_15  and  C_17
REMARK    4  A    between atoms: N_20  and  C_22
REMARK    5  A    between atoms: C_25  and  O_28
REMARK    6  A    between atoms: O_28  and  C_29
REMARK                            x       y       z     vdW  Elec       q    Type
REMARK                         _______ _______ _______ _____ _____    ______ ____
ROOT
ATOM     13  N   UNL     1      -4.117 -50.267 -14.644  0.00  0.00    -0.269 N 
ATOM     14  H   UNL     1      -3.968 -50.752 -13.702  0.00  0.00    +0.156 HD
ATOM     15  C   UNL     1      -5.404 -50.017 -15.040  0.00  0.00    +0.308 C 
ATOM     16  O   UNL     1      -5.700 -49.097 -15.794  0.00  0.00    -0.252 OA
ATOM     17  N   UNL     1      -6.329 -50.896 -14.547  0.00  0.00    -0.269 N 
ATOM     18  H   UNL     1      -5.968 -51.745 -14.004  0.00  0.00    +0.156 HD
ENDROOT
BRANCH  13  12
ATOM      1  C   UNL     1       0.395 -48.903 -17.777  0.00  0.00    +0.038 A 
ATOM      9  C   UNL     1      -0.729 -49.285 -16.976  0.00  0.00    +0.003 A 
ATOM     10  C   UNL     1      -0.893 -50.573 -16.394  0.00  0.00    +0.012 A 
ATOM     11  C   UNL     1      -1.984 -50.871 -15.638  0.00  0.00    +0.024 A 
ATOM     12  C   UNL     1      -2.973 -49.925 -15.402  0.00  0.00    +0.035 A 
ATOM     35  C   UNL     1      -2.865 -48.666 -15.953  0.00  0.00    +0.031 A 
ATOM     36  C   UNL     1      -1.750 -48.315 -16.741  0.00  0.00    -0.014 A 
ATOM     37  C   UNL     1      -1.625 -47.023 -17.309  0.00  0.00    +0.008 A 
ATOM     38  C   UNL     1      -0.543 -46.697 -18.068  0.00  0.00    +0.002 A 
ATOM     39  C   UNL     1       0.459 -47.622 -18.313  0.00  0.00    +0.024 A 
BRANCH   1   2
ATOM      2  N   UNL     1       1.397 -49.881 -18.033  0.00  0.00    -0.327 N 
ATOM      3  C   UNL     1       2.784 -49.445 -17.807  0.00  0.00    +0.120 C 
ATOM      4  C   UNL     1       3.828 -50.399 -18.361  0.00  0.00    +0.103 C 
ATOM      5  N   UNL     1       3.257 -51.714 -18.626  0.00  0.00    -0.302 NA
ATOM      6  C   UNL     1       4.297 -52.645 -19.069  0.00  0.00    +0.105 C 
ATOM      7  C   UNL     1       2.224 -51.588 -19.641  0.00  0.00    +0.103 C 
ATOM      8  C   UNL     1       1.051 -50.801 -19.125  0.00  0.00    +0.120 C 
ENDBRANCH   1   2
ENDBRANCH  13  12
BRANCH  17  19
ATOM     19  C   UNL     1      -7.732 -50.764 -14.703  0.00  0.00    +0.035 A 
ATOM     20  C   UNL     1      -8.261 -50.397 -15.935  0.00  0.00    +0.027 A 
ATOM     21  C   UNL     1      -9.626 -50.247 -16.094  0.00  0.00    +0.048 A 
ATOM     22  C   UNL     1     -10.471 -50.466 -15.023  0.00  0.00    +0.129 A 
ATOM     33  C   UNL     1      -9.954 -50.819 -13.787  0.00  0.00    +0.048 A 
ATOM     34  C   UNL     1      -8.589 -50.970 -13.630  0.00  0.00    +0.027 A 
BRANCH  22  23
ATOM     23  O   UNL     1     -11.844 -50.298 -15.197  0.00  0.00    -0.455 OA
BRANCH  23  24
ATOM     24  C   UNL     1     -12.383 -49.019 -15.094  0.00  0.00    +0.141 A 
ATOM     25  C   UNL     1     -13.656 -48.813 -15.654  0.00  0.00    +0.063 A 
ATOM     26  C   UNL     1     -14.614 -49.619 -16.350  0.00  0.00    +0.035 A 
ATOM     27  C   UNL     1     -15.663 -48.807 -16.633  0.00  0.00    +0.114 A 
ATOM     28  N   UNL     1     -15.418 -47.540 -16.155  0.00  0.00    -0.236 NA
ATOM     29  C   UNL     1     -14.193 -47.532 -15.554  0.00  0.00    +0.163 A 
ATOM     30  N   UNL     1     -13.571 -46.497 -14.960  0.00  0.00    -0.235 NA
ATOM     31  C   UNL     1     -12.356 -46.737 -14.438  0.00  0.00    +0.117 A 
ATOM     32  C   UNL     1     -11.721 -47.966 -14.471  0.00  0.00    +0.067 A 
ENDBRANCH  23  24
ENDBRANCH  22  23
ENDBRANCH  17  19
TORSDOF 5
