REMARK  Name = 6EGA
REMARK  7 active torsions:
REMARK  status: ('A' for Active; 'I' for Inactive)
REMARK    1  A    between atoms: CAU_16  and  CBG_29
REMARK    2  A    between atoms: CAU_16  and  NBN_37
REMARK    3  A    between atoms: NAY_20  and  CBD_26
REMARK    4  A    between atoms: CBB_24  and  CBE_27
REMARK    5  A    between atoms: CBC_25  and  CBM_35
REMARK    6  A    between atoms: CBF_28  and  CBH_30
REMARK    7  A    between atoms: CBJ_32  and  CBO_36
REMARK                            x       y       z     vdW  Elec       q    Type
REMARK                         _______ _______ _______ _____ _____    ______ ____
ROOT
ATOM      1  C   UNL     1       0.502  25.926  26.206  0.00  0.00    -0.130 A 
ATOM      2  C   UNL     1      -0.503  26.416  27.038  0.00  0.00    -0.130 A 
ATOM      3  C   UNL     1      -0.613  27.787  27.251  0.00  0.00    +0.000 A 
ATOM     19  C   UNL     1       0.269  28.646  26.615  0.00  0.00    -0.130 A 
ATOM     20  C   UNL     1       1.268  28.161  25.790  0.00  0.00    +0.000 A 
ATOM     41  C   UNL     1       1.391  26.793  25.576  0.00  0.00    -0.130 A 
ENDROOT
BRANCH   3   4
ATOM      4  C   UNL     1      -1.601  28.339  28.064  0.00  0.00    +0.100 A 
ATOM      5  N   UNL     1      -2.889  28.031  27.872  0.00  0.00    -0.450 NA
ATOM      6  C   UNL     1      -3.857  28.567  28.633  0.00  0.00    +0.350 A 
ATOM      7  S   UNL     1      -5.494  28.347  28.602  0.00  0.00    +0.000 S 
ATOM      8  C   UNL     1      -5.834  29.371  29.832  0.00  0.00    +0.150 A 
ATOM      9  N   UNL     1      -7.030  29.665  30.366  0.00  0.00    -0.350 NA
ATOM     10  C   UNL     1      -8.197  29.468  29.705  0.00  0.00    +0.600 C 
ATOM     14  O   UNL     1      -8.320  29.008  28.570  0.00  0.00    -0.550 OA
ATOM     15  N   UNL     1      -4.678  29.872  30.280  0.00  0.00    -0.300 NA
ATOM     16  C   UNL     1      -3.576  29.440  29.622  0.00  0.00    +0.200 A 
ATOM     17  C   UNL     1      -2.301  29.772  29.835  0.00  0.00    -0.130 A 
ATOM     18  C   UNL     1      -1.274  29.241  29.064  0.00  0.00    -0.130 A 
BRANCH  10  11
ATOM     11  C   UNL     1      -9.445  29.834  30.517  0.00  0.00    -0.050 C 
ATOM     12  C   UNL     1     -10.718  30.031  29.718  0.00  0.00    -0.100 C 
ATOM     13  C   UNL     1     -10.518  28.761  30.528  0.00  0.00    -0.100 C 
ENDBRANCH  10  11
ENDBRANCH   3   4
BRANCH  20  21
ATOM     21  C   UNL     1       2.108  29.091  25.192  0.00  0.00    +0.600 C 
ATOM     22  O   UNL     1       1.731  30.256  25.136  0.00  0.00    -0.550 OA
ATOM     23  N   UNL     1       3.272  28.607  24.713  0.00  0.00    -0.350 NA
BRANCH  23  24
ATOM     24  C   UNL     1       4.189  29.367  24.085  0.00  0.00    +0.050 A 
ATOM     25  C   UNL     1       4.182  30.765  23.997  0.00  0.00    -0.130 A 
ATOM     26  C   UNL     1       5.172  31.480  23.321  0.00  0.00    +0.000 A 
ATOM     31  C   UNL     1       6.201  30.755  22.700  0.00  0.00    +0.000 A 
ATOM     39  C   UNL     1       6.216  29.365  22.806  0.00  0.00    -0.130 A 
ATOM     40  C   UNL     1       5.223  28.676  23.476  0.00  0.00    -0.130 A 
BRANCH  26  27
ATOM     27  C   UNL     1       5.060  32.892  23.298  0.00  0.00    +0.900 C 
ATOM     28  F   UNL     1       4.127  33.263  24.207  0.00  0.00    -0.300 F 
ATOM     29  F   UNL     1       4.686  33.301  22.123  0.00  0.00    -0.300 F 
ATOM     30  F   UNL     1       6.228  33.510  23.627  0.00  0.00    -0.300 F 
ENDBRANCH  26  27
BRANCH  31  32
ATOM     32  C   UNL     1       7.264  31.342  22.010  0.00  0.00    +0.100 C 
BRANCH  32  33
ATOM     33  N   UNL     1       7.070  31.632  20.575  0.00  0.00    -0.600 NA
ATOM     34  C   UNL     1       8.401  32.039  20.102  0.00  0.00    +0.100 C 
ATOM     35  C   UNL     1       8.388  32.398  18.634  0.00  0.00    +0.100 C 
ATOM     36  N   UNL     1       7.949  31.251  17.824  0.00  0.00    -0.750 NA
ATOM     37  C   UNL     1       6.607  30.845  18.270  0.00  0.00    +0.100 C 
ATOM     38  C   UNL     1       6.629  30.483  19.759  0.00  0.00    +0.100 C 
ENDBRANCH  32  33
ENDBRANCH  31  32
ENDBRANCH  23  24
ENDBRANCH  20  21
TORSDOF 7
