REMARK  Name = 5BYZ
REMARK  10 active torsions:
REMARK  status: ('A' for Active; 'I' for Inactive)
REMARK    1  A    between atoms: C_1  and  C_2
REMARK    2  A    between atoms: C_2  and  C_3
REMARK    3  A    between atoms: C_2  and  N_22
REMARK    4  A    between atoms: C_4  and  C_5
REMARK    5  A    between atoms: C_10  and  N_29
REMARK    6  A    between atoms: C_12  and  C_14
REMARK    7  A    between atoms: C_16  and  N_32
REMARK    8  A    between atoms: C_16  and  C_33
REMARK    9  A    between atoms: C_24  and  C_25
REMARK   10  A    between atoms: C_33  and  N_34
REMARK                            x       y       z     vdW  Elec       q    Type
REMARK                         _______ _______ _______ _____ _____    ______ ____
ROOT
ATOM      5  C   UNL     1       1.165 -40.968 -13.019  0.00  0.00    +0.129 A 
ATOM      6  N   UNL     1       1.603 -42.205 -12.691  0.00  0.00    -0.210 NA
ATOM      7  C   UNL     1       2.025 -43.066 -13.599  0.00  0.00    +0.220 A 
ATOM      8  N   UNL     1       2.500 -44.321 -13.273  0.00  0.00    -0.284 N 
ATOM      9  H   UNL     1       2.920 -44.875 -14.087  0.00  0.00    +0.155 HD
ATOM     28  N   UNL     1       2.054 -42.746 -14.889  0.00  0.00    -0.220 NA
ATOM     29  C   UNL     1       1.658 -41.549 -15.293  0.00  0.00    +0.155 A 
ATOM     30  C   UNL     1       1.186 -40.621 -14.380  0.00  0.00    +0.169 A 
ATOM     31  F   UNL     1       0.792 -39.414 -14.830  0.00  0.00    -0.202 F 
ENDROOT
BRANCH   5   4
ATOM      3  N   UNL     1       1.016 -40.034 -10.616  0.00  0.00    -0.324 N 
ATOM      4  C   UNL     1       0.677 -40.051 -11.967  0.00  0.00    +0.090 A 
ATOM     32  C   UNL     1      -0.243 -39.051 -12.138  0.00  0.00    +0.141 A 
ATOM     33  N   UNL     1      -0.434 -38.442 -10.966  0.00  0.00    -0.240 NA
ATOM     34  C   UNL     1       0.306 -39.017 -10.063  0.00  0.00    +0.107 A 
ATOM     35  C   UNL     1       0.324 -38.581  -8.620  0.00  0.00    +0.086 C 
BRANCH   3   2
ATOM      1  C   UNL     1       3.182 -40.061  -9.414  0.00  0.00    +0.030 C 
ATOM      2  C   UNL     1       2.009 -40.907  -9.934  0.00  0.00    +0.083 C 
ATOM     36  C   UNL     1       1.372 -41.751  -8.830  0.00  0.00    +0.030 C 
ENDBRANCH   3   2
ENDBRANCH   5   4
BRANCH   8  10
ATOM     10  C   UNL     1       2.514 -44.978 -12.033  0.00  0.00    +0.034 A 
ATOM     11  C   UNL     1       1.765 -44.626 -10.907  0.00  0.00    +0.024 A 
ATOM     12  C   UNL     1       1.849 -45.376  -9.748  0.00  0.00    +0.015 A 
ATOM     13  C   UNL     1       2.687 -46.504  -9.662  0.00  0.00    +0.037 A 
ATOM     14  C   UNL     1       3.411 -46.874 -10.814  0.00  0.00    +0.015 A 
ATOM     27  C   UNL     1       3.327 -46.125 -11.966  0.00  0.00    +0.024 A 
BRANCH  13  15
ATOM     15  C   UNL     1       2.708 -47.313  -8.408  0.00  0.00    +0.244 C 
ATOM     16  N   UNL     1       3.555 -48.372  -8.245  0.00  0.00    -0.310 N 
ATOM     17  H   UNL     1       4.266 -48.572  -9.020  0.00  0.00    +0.149 HD
ATOM     26  O   UNL     1       1.884 -47.030  -7.539  0.00  0.00    -0.270 OA
BRANCH  16  18
ATOM     18  C   UNL     1       3.549 -49.258  -7.064  0.00  0.00    +0.120 C 
BRANCH  18  19
ATOM     19  C   UNL     1       4.706 -49.060  -6.084  0.00  0.00    +0.103 C 
BRANCH  19  20
ATOM     20  N   UNL     1       4.673 -47.765  -5.392  0.00  0.00    -0.301 NA
ATOM     21  C   UNL     1       3.532 -47.604  -4.470  0.00  0.00    +0.084 C 
ATOM     22  C   UNL     1       3.585 -46.210  -3.853  0.00  0.00    +0.015 C 
ATOM     23  C   UNL     1       4.859 -46.118  -3.026  0.00  0.00    +0.002 C 
ATOM     24  C   UNL     1       6.024 -46.259  -4.001  0.00  0.00    +0.015 C 
ATOM     25  C   UNL     1       5.956 -47.621  -4.687  0.00  0.00    +0.084 C 
ENDBRANCH  19  20
ENDBRANCH  18  19
ENDBRANCH  16  18
ENDBRANCH  13  15
ENDBRANCH   8  10
TORSDOF 7
