REMARK  Name = 3MTF
REMARK  10 active torsions:
REMARK  status: ('A' for Active; 'I' for Inactive)
REMARK    1  A    between atoms: C_1  and  O_15
REMARK    2  A    between atoms: C_2  and  O_16
REMARK    3  A    between atoms: C_3  and  O_17
REMARK    4  A    between atoms: N_4  and  C_19
REMARK    5  A    between atoms: O_5  and  C_18
REMARK    6  A    between atoms: O_15  and  C_23
REMARK    7  A    between atoms: O_16  and  C_24
REMARK    8  A    between atoms: O_17  and  C_26
REMARK    9  A    between atoms: C_20  and  C_21
REMARK   10  A    between atoms: C_22  and  C_25
REMARK                            x       y       z     vdW  Elec       q    Type
REMARK                         _______ _______ _______ _____ _____    ______ ____
ROOT
ATOM     10  C   UNL     1     -16.638 -13.943  38.266  0.00  0.00    +0.022 A 
ATOM     11  C   UNL     1     -15.299 -14.129  37.993  0.00  0.00    +0.124 A 
ATOM     12  N   UNL     1     -14.458 -13.085  37.967  0.00  0.00    -0.239 NA
ATOM     13  C   UNL     1     -14.820 -11.852  38.200  0.00  0.00    +0.121 A 
ATOM     14  C   UNL     1     -16.132 -11.590  38.569  0.00  0.00    +0.001 A 
ATOM     26  C   UNL     1     -17.052 -12.642  38.555  0.00  0.00    +0.022 A 
ENDROOT
BRANCH  10   9
ATOM      3  C   UNL     1     -18.262 -17.196  39.158  0.00  0.00    +0.166 A 
ATOM      4  C   UNL     1     -19.454 -17.072  38.459  0.00  0.00    +0.203 A 
ATOM      5  C   UNL     1     -19.702 -15.955  37.664  0.00  0.00    +0.166 A 
ATOM      8  C   UNL     1     -18.773 -14.925  37.598  0.00  0.00    +0.058 A 
ATOM      9  C   UNL     1     -17.564 -15.019  38.285  0.00  0.00    -0.007 A 
ATOM     29  C   UNL     1     -17.333 -16.154  39.068  0.00  0.00    +0.058 A 
BRANCH   3   2
ATOM      1  C   UNL     1     -16.959 -18.375  40.913  0.00  0.00    +0.277 C 
ATOM      2  O   UNL     1     -18.039 -18.348  39.914  0.00  0.00    -0.491 OA
ENDBRANCH   3   2
BRANCH   5   6
ATOM      6  O   UNL     1     -20.878 -15.937  36.984  0.00  0.00    -0.491 OA
ATOM      7  C   UNL     1     -21.174 -14.730  36.267  0.00  0.00    +0.277 C 
ENDBRANCH   5   6
BRANCH   4  27
ATOM     27  O   UNL     1     -20.408 -18.041  38.521  0.00  0.00    -0.488 OA
ATOM     28  C   UNL     1     -20.230 -19.007  37.500  0.00  0.00    +0.277 C 
ENDBRANCH   4  27
ENDBRANCH  10   9
BRANCH  14  15
ATOM     15  C   UNL     1     -16.533 -10.258  38.794  0.00  0.00    -0.013 A 
ATOM     16  C   UNL     1     -17.730  -9.837  38.243  0.00  0.00    +0.054 A 
ATOM     17  C   UNL     1     -18.153  -8.525  38.375  0.00  0.00    +0.117 A 
ATOM     18  C   UNL     1     -17.377  -7.581  39.037  0.00  0.00    +0.045 A 
ATOM     19  C   UNL     1     -16.152  -7.994  39.556  0.00  0.00    +0.004 A 
ATOM     22  C   UNL     1     -15.716  -9.320  39.419  0.00  0.00    +0.009 A 
BRANCH  17  20
ATOM     20  O   UNL     1     -19.329  -8.169  37.803  0.00  0.00    -0.507 OA
ATOM     21  H   UNL     1     -19.975  -7.787  38.538  0.00  0.00    +0.292 HD
ENDBRANCH  17  20
ENDBRANCH  14  15
BRANCH  11  23
ATOM     23  N   UNL     1     -14.883 -15.340  37.641  0.00  0.00    -0.343 N 
ATOM     24  H   UNL     1     -15.562 -16.167  37.665  0.00  0.00    +0.144 HD
ATOM     25  H   UNL     1     -13.869 -15.489  37.333  0.00  0.00    +0.144 HD
ENDBRANCH  11  23
TORSDOF 7
