REMARK  Name = 5L2I
REMARK  5 active torsions:
REMARK  status: ('A' for Active; 'I' for Inactive)
REMARK    1  A    between atoms: C_2  and  C_3
REMARK    2  A    between atoms: C_2  and  C_4
REMARK    3  A    between atoms: C_5  and  C_6
REMARK    4  A    between atoms: N_13  and  C_14
REMARK    5  A    between atoms: C_25  and  N_28
REMARK                            x       y       z     vdW  Elec       q    Type
REMARK                         _______ _______ _______ _____ _____    ______ ____
ROOT
ATOM      3  C   UNL     1      15.474  25.721   5.445  0.00  0.00    +0.085 C 
ATOM      4  C   UNL     1      14.517  26.731   5.836  0.00  0.00    +0.264 C 
ATOM      5  O   UNL     1      13.729  27.218   5.033  0.00  0.00    -0.267 OA
ATOM      6  N   UNL     1      14.540  27.164   7.200  0.00  0.00    -0.289 N 
ATOM     12  C   UNL     1      15.446  26.661   8.129  0.00  0.00    +0.149 A 
ATOM     13  N   UNL     1      15.432  27.218   9.355  0.00  0.00    -0.196 NA
ATOM     14  C   UNL     1      16.424  26.842  10.183  0.00  0.00    +0.222 A 
ATOM     15  N   UNL     1      16.469  27.316  11.464  0.00  0.00    -0.268 N 
ATOM     16  H   UNL     1      17.277  27.027  12.007  0.00  0.00    +0.156 HD
ATOM     17  C   UNL     1      15.601  28.132  12.155  0.00  0.00    +0.125 A 
ATOM     18  C   UNL     1      15.409  29.498  11.913  0.00  0.00    +0.045 A 
ATOM     19  C   UNL     1      14.478  30.174  12.676  0.00  0.00    +0.028 A 
ATOM     20  C   UNL     1      13.762  29.498  13.659  0.00  0.00    +0.048 A 
ATOM     28  C   UNL     1      14.041  28.147  13.842  0.00  0.00    +0.136 A 
ATOM     29  N   UNL     1      14.934  27.467  13.111  0.00  0.00    -0.238 NA
ATOM     30  N   UNL     1      17.412  25.980   9.899  0.00  0.00    -0.222 NA
ATOM     31  C   UNL     1      17.351  25.404   8.696  0.00  0.00    +0.126 A 
ATOM     32  C   UNL     1      16.389  25.691   7.723  0.00  0.00    +0.040 A 
ATOM     33  C   UNL     1      16.355  25.201   6.350  0.00  0.00    -0.023 C 
ATOM     34  C   UNL     1      17.258  24.069   5.956  0.00  0.00    +0.045 C 
ENDROOT
BRANCH  20  21
ATOM     21  N   UNL     1      12.744  30.118  14.388  0.00  0.00    -0.326 N 
ATOM     22  C   UNL     1      11.378  29.795  13.960  0.00  0.00    +0.120 C 
ATOM     23  C   UNL     1      10.381  30.180  15.028  0.00  0.00    +0.100 C 
ATOM     24  N   UNL     1      10.539  31.616  15.385  0.00  0.00    -0.313 NA
ATOM     25  H   UNL     1       9.857  31.902  16.081  0.00  0.00    +0.122 HD
ATOM     26  C   UNL     1      11.925  31.906  15.838  0.00  0.00    +0.100 C 
ATOM     27  C   UNL     1      12.912  31.526  14.760  0.00  0.00    +0.120 C 
ENDBRANCH  20  21
BRANCH   6   7
ATOM      7  C   UNL     1      13.634  28.279   7.585  0.00  0.00    +0.092 C 
ATOM      8  C   UNL     1      12.162  28.055   7.229  0.00  0.00    +0.025 C 
ATOM      9  C   UNL     1      11.794  29.231   6.353  0.00  0.00    +0.002 C 
ATOM     10  C   UNL     1      12.718  30.319   6.747  0.00  0.00    +0.002 C 
ATOM     11  C   UNL     1      14.036  29.637   7.006  0.00  0.00    +0.025 C 
ENDBRANCH   6   7
BRANCH   3   2
ATOM      1  O   UNL     1      16.473  25.557   3.326  0.00  0.00    -0.292 OA
ATOM      2  C   UNL     1      15.505  25.287   4.040  0.00  0.00    +0.166 C 
ATOM     35  C   UNL     1      14.343  24.533   3.471  0.00  0.00    +0.091 C 
ENDBRANCH   3   2
TORSDOF 3
