REMARK  Name = DXM
REMARK  4 active torsions:
REMARK  status: ('A' for Active; 'I' for Inactive)
REMARK    1  A    between atoms: C5_2  and  C8_6
REMARK    2  A    between atoms: C10_9  and  N6_33
REMARK    3  A    between atoms: C11_10  and  C12_11
REMARK    4  A    between atoms: N3_12  and  C3_29
REMARK                            x       y       z     vdW  Elec       q    Type
REMARK                         _______ _______ _______ _____ _____    ______ ____
ROOT
ATOM     17  C   UNL     1      43.655 -19.442   9.208  0.00  0.00    +0.048 A 
ATOM     18  C   UNL     1      44.296 -20.259  10.123  0.00  0.00    +0.006 A 
ATOM     19  C   UNL     1      44.789 -21.488   9.701  0.00  0.00    +0.031 A 
ATOM     20  C   UNL     1      44.648 -21.893   8.383  0.00  0.00    +0.158 A 
ATOM     21  F   UNL     1      45.138 -23.099   8.024  0.00  0.00    -0.203 F 
ATOM     22  C   UNL     1      44.018 -21.099   7.457  0.00  0.00    +0.128 A 
ATOM     35  C   UNL     1      43.530 -19.876   7.874  0.00  0.00    +0.159 A 
ATOM     36  F   UNL     1      42.923 -19.119   6.947  0.00  0.00    -0.203 F 
ENDROOT
BRANCH  17  16
ATOM      1  C   UNL     1      42.555 -17.936  10.865  0.00  0.00    +0.042 C 
ATOM      2  C   UNL     1      42.083 -16.754  11.219  0.00  0.00    +0.131 C 
ATOM     11  C   UNL     1      42.177 -15.643  10.255  0.00  0.00    +0.292 C 
ATOM     12  O   UNL     1      41.723 -14.504  10.556  0.00  0.00    -0.264 OA
ATOM     13  N   UNL     1      42.705 -15.872   9.062  0.00  0.00    -0.214 N 
ATOM     14  N   UNL     1      43.197 -17.133   8.762  0.00  0.00    -0.167 NA
ATOM     15  C   UNL     1      42.797 -14.830   8.039  0.00  0.00    +0.157 C 
ATOM     16  C   UNL     1      43.109 -18.122   9.667  0.00  0.00    +0.105 C 
BRANCH   2   3
ATOM      3  N   UNL     1      41.484 -16.403  12.409  0.00  0.00    -0.188 NA
ATOM      4  C   UNL     1      41.317 -17.172  13.544  0.00  0.00    +0.173 A 
ATOM      5  C   UNL     1      40.748 -16.696  14.714  0.00  0.00    +0.052 A 
ATOM      6  C   UNL     1      40.741 -17.793  15.551  0.00  0.00    +0.059 A 
ATOM      7  C   UNL     1      40.165 -17.641  16.936  0.00  0.00    +0.052 C 
ATOM      8  N   UNL     1      41.271 -18.819  14.905  0.00  0.00    -0.252 N 
ATOM      9  C   UNL     1      41.549 -20.225  15.296  0.00  0.00    +0.153 C 
ATOM     10  N   UNL     1      41.639 -18.475  13.612  0.00  0.00    -0.153 NA
ENDBRANCH   2   3
ENDBRANCH  17  16
BRANCH  22  23
ATOM     23  N   UNL     1      43.852 -21.486   6.103  0.00  0.00    -0.170 NA
ATOM     24  C   UNL     1      44.886 -21.623   5.269  0.00  0.00    +0.275 C 
ATOM     25  O   UNL     1      46.014 -21.403   5.712  0.00  0.00    -0.268 OA
BRANCH  24  26
ATOM     26  C   UNL     1      44.718 -22.014   3.836  0.00  0.00    +0.084 A 
ATOM     27  C   UNL     1      43.631 -22.313   3.215  0.00  0.00    +0.007 A 
ATOM     28  C   UNL     1      43.808 -22.564   1.959  0.00  0.00    -0.020 A 
ATOM     29  C   UNL     1      45.096 -22.517   1.598  0.00  0.00    +0.003 A 
ATOM     30  C   UNL     1      45.607 -22.788   0.196  0.00  0.00    +0.033 C 
ATOM     31  C   UNL     1      44.565 -23.505  -0.644  0.00  0.00    +0.005 C 
ATOM     32  C   UNL     1      43.208 -22.834  -0.504  0.00  0.00    +0.005 C 
ATOM     33  C   UNL     1      42.720 -22.881   0.939  0.00  0.00    +0.027 C 
ATOM     34  S   UNL     1      46.097 -22.087   2.861  0.00  0.00    -0.087 S 
ENDBRANCH  24  26
ENDBRANCH  22  23
TORSDOF 4
