REMARK  Name = 4DIT
REMARK  3 active torsions:
REMARK  status: ('A' for Active; 'I' for Inactive)
REMARK    1  A    between atoms: C_5  and  C_6
REMARK    2  A    between atoms: C_14  and  C_15
REMARK    3  A    between atoms: N_16  and  C_17
REMARK                            x       y       z     vdW  Elec       q    Type
REMARK                         _______ _______ _______ _____ _____    ______ ____
ROOT
ATOM      3  C   UNL     1      11.244  -3.592 -11.703  0.00  0.00    +0.141 A 
ATOM      4  N   UNL     1      11.033  -4.197 -10.576  0.00  0.00    -0.225 NA
ATOM      5  C   UNL     1      11.994  -3.627  -9.676  0.00  0.00    +0.121 A 
ATOM      6  C   UNL     1      12.287  -3.849  -8.301  0.00  0.00    +0.067 A 
ATOM     17  C   UNL     1      13.348  -3.030  -7.791  0.00  0.00    +0.035 A 
ATOM     18  C   UNL     1      14.028  -2.090  -8.620  0.00  0.00    +0.114 A 
ATOM     19  N   UNL     1      13.756  -1.878  -9.927  0.00  0.00    -0.236 NA
ATOM     20  C   UNL     1      12.749  -2.659 -10.386  0.00  0.00    +0.159 A 
ATOM     21  N   UNL     1      12.248  -2.669 -11.656  0.00  0.00    -0.323 N 
ATOM     22  H   UNL     1      12.583  -2.061 -12.470  0.00  0.00    +0.169 HD
ENDROOT
BRANCH   3   2
ATOM      1  C   UNL     1      10.627  -3.241 -14.172  0.00  0.00    +0.019 A 
ATOM      2  C   UNL     1      10.463  -3.863 -12.896  0.00  0.00    +0.024 A 
ATOM     23  C   UNL     1       9.433  -4.799 -12.928  0.00  0.00    +0.056 A 
ATOM     24  S   UNL     1       8.684  -4.903 -14.479  0.00  0.00    -0.104 S 
ATOM     25  C   UNL     1       9.734  -3.710 -15.105  0.00  0.00    +0.046 A 
ENDBRANCH   3   2
BRANCH   6   7
ATOM      7  C   UNL     1      11.615  -4.839  -7.374  0.00  0.00    +0.251 C 
ATOM      8  O   UNL     1      11.991  -4.904  -6.205  0.00  0.00    -0.270 OA
ATOM      9  N   UNL     1      10.603  -5.647  -7.919  0.00  0.00    -0.280 N 
ATOM     10  H   UNL     1      10.359  -5.477  -8.947  0.00  0.00    +0.155 HD
BRANCH   9  11
ATOM     11  C   UNL     1       9.859  -6.679  -7.244  0.00  0.00    +0.052 A 
ATOM     12  C   UNL     1       9.711  -6.779  -5.808  0.00  0.00    +0.134 A 
ATOM     13  N   UNL     1       9.011  -7.777  -5.193  0.00  0.00    -0.261 NA
ATOM     14  C   UNL     1       8.420  -8.734  -5.954  0.00  0.00    +0.111 A 
ATOM     15  C   UNL     1       8.491  -8.752  -7.373  0.00  0.00    +0.021 A 
ATOM     16  C   UNL     1       9.219  -7.713  -8.035  0.00  0.00    +0.026 A 
ENDBRANCH   9  11
ENDBRANCH   6   7
TORSDOF 3
