REMARK  Name = 1uvr_ligand
REMARK  7 active torsions:
REMARK  status: ('A' for Active; 'I' for Inactive)
REMARK    1  A    between atoms: CB0_1  and  NAO_29
REMARK    2  A    between atoms: NBC_2  and  CBB_3
REMARK    3  A    between atoms: CBB_3  and  CBA_4
REMARK    4  A    between atoms: CBA_4  and  CAY_5
REMARK    5  A    between atoms: CAY_5  and  NAH_6
REMARK    6  A    between atoms: CAG_14  and  CAI_15
REMARK    7  A    between atoms: CAJ_21  and  CAK_22
REMARK                            x       y       z     vdW  Elec       q    Type
REMARK                         _______ _______ _______ _____ _____    ______ ____
ROOT
ATOM     10  C   UNL     1      83.070  15.261  12.497  0.00  0.00    +0.044 C 
ATOM     11  C   UNL     1      83.143  13.871  12.469  0.00  0.00    +0.224 C 
ATOM     12  O   UNL     1      84.032  13.150  12.920  0.00  0.00    -0.372 OA
ATOM     13  N   UNL     1      82.045  13.466  11.834  0.00  0.00    -0.204 N 
ATOM     14  H   UNL     1      81.830  12.504  11.668  0.00  0.00    +0.220 HD
ATOM     15  C   UNL     1      81.261  14.468  11.441  0.00  0.00    +0.224 C 
ATOM     16  O   UNL     1      80.211  14.369  10.808  0.00  0.00    -0.372 OA
ATOM     17  C   UNL     1      81.892  15.635  11.857  0.00  0.00    +0.044 C 
ENDROOT
BRANCH  10   4
ATOM      1  C   UNL     1      87.404  16.490  14.167  0.00  0.00    +0.214 C 
ATOM      2  N   UNL     1      85.968  16.614  13.829  0.00  0.00    -0.262 N 
ATOM      3  C   UNL     1      85.277  15.662  13.200  0.00  0.00    +0.142 A 
ATOM      4  C   UNL     1      84.019  16.086  13.094  0.00  0.00    -0.005 A 
ATOM      5  C   UNL     1      83.942  17.339  13.686  0.00  0.00    -0.013 A 
ATOM      6  C   UNL     1      82.891  18.227  13.892  0.00  0.00    -0.017 A 
ATOM      7  C   UNL     1      83.114  19.435  14.546  0.00  0.00    -0.026 A 
ATOM      8  C   UNL     1      84.393  19.757  14.993  0.00  0.00    -0.021 A 
ATOM      9  C   UNL     1      85.448  18.873  14.794  0.00  0.00    +0.014 A 
ATOM     34  C   UNL     1      85.212  17.666  14.145  0.00  0.00    +0.071 A 
ENDBRANCH  10   4
BRANCH  17  18
ATOM     18  C   UNL     1      81.386  16.908  11.600  0.00  0.00    -0.005 A 
ATOM     19  C   UNL     1      80.075  17.348  11.484  0.00  0.00    -0.013 A 
ATOM     20  C   UNL     1      78.847  16.749  11.757  0.00  0.00    -0.017 A 
ATOM     21  C   UNL     1      77.661  17.429  11.488  0.00  0.00    -0.026 A 
ATOM     22  C   UNL     1      77.696  18.714  10.955  0.00  0.00    -0.021 A 
ATOM     23  C   UNL     1      78.921  19.319  10.688  0.00  0.00    +0.014 A 
ATOM     24  C   UNL     1      80.101  18.629  10.950  0.00  0.00    +0.071 A 
ATOM     25  N   UNL     1      81.396  18.896  10.771  0.00  0.00    -0.259 N 
ATOM     33  C   UNL     1      82.179  17.882  11.154  0.00  0.00    +0.142 A 
BRANCH  25  26
ATOM     26  C   UNL     1      81.849  20.128  10.104  0.00  0.00    +0.180 C 
BRANCH  26  27
ATOM     27  C   UNL     1      83.212  20.652  10.559  0.00  0.00    +0.083 C 
BRANCH  27  28
ATOM     28  C   UNL     1      83.169  21.102  12.020  0.00  0.00    +0.130 C 
BRANCH  28  29
ATOM     29  N   UNL     1      84.418  21.800  12.356  0.00  0.00    +0.219 N 
ATOM     30  H   UNL     1      85.198  21.177  12.220  0.00  0.00    +0.199 HD
ATOM     31  H   UNL     1      84.523  22.606  11.760  0.00  0.00    +0.199 HD
ATOM     32  H   UNL     1      84.389  22.096  13.319  0.00  0.00    +0.199 HD
ENDBRANCH  28  29
ENDBRANCH  27  28
ENDBRANCH  26  27
ENDBRANCH  25  26
ENDBRANCH  17  18
TORSDOF 6
