REMARK  Name = 3vqu_ligand
REMARK  8 active torsions:
REMARK  status: ('A' for Active; 'I' for Inactive)
REMARK    1  A    between atoms: C15_2  and  C12_4
REMARK    2  A    between atoms: C9_9  and  N3_10
REMARK    3  A    between atoms: N3_10  and  C8_11
REMARK    4  A    between atoms: C6_13  and  N2_14
REMARK    5  A    between atoms: C4_15  and  C5_16
REMARK    6  A    between atoms: C3_19  and  O1_20
REMARK    7  A    between atoms: O1_20  and  C2_21
REMARK    8  A    between atoms: C2_21  and  C1_22
REMARK                            x       y       z     vdW  Elec       q    Type
REMARK                         _______ _______ _______ _____ _____    ______ ____
ROOT
ATOM      9  C   UNL     1       0.439 -33.437 -10.800  0.00  0.00    +0.115 A 
ATOM     10  N   UNL     1       0.996 -34.500 -11.340  0.00  0.00    -0.260 NA
ATOM     11  C   UNL     1       1.847 -34.395 -12.346  0.00  0.00    +0.177 A 
ATOM     15  C   UNL     1       2.204 -33.081 -12.909  0.00  0.00    +0.154 A 
ATOM     18  C   UNL     1       1.548 -31.950 -12.288  0.00  0.00    +0.072 A 
ATOM     22  C   UNL     1       0.696 -32.182 -11.260  0.00  0.00    +0.047 A 
ENDROOT
BRANCH  18  19
ATOM     19  N   UNL     1       1.764 -30.712 -12.704  0.00  0.00    -0.326 N 
ATOM     20  H   UNL     1       1.290 -29.931 -12.250  0.00  0.00    +0.180 HD
ATOM     21  H   UNL     1       2.405 -30.539 -13.479  0.00  0.00    +0.180 HD
ENDBRANCH  18  19
BRANCH   9   7
ATOM      7  N   UNL     1      -0.413 -33.541  -9.785  0.00  0.00    -0.259 N 
ATOM      8  H   UNL     1      -0.893 -32.687  -9.500  0.00  0.00    +0.216 HD
BRANCH   7   6
ATOM      3  C   UNL     1      -1.344 -36.867  -7.653  0.00  0.00    +0.037 A 
ATOM      4  C   UNL     1      -1.600 -35.626  -7.151  0.00  0.00    +0.013 A 
ATOM      5  C   UNL     1      -1.287 -34.520  -7.883  0.00  0.00    +0.023 A 
ATOM      6  C   UNL     1      -0.702 -34.644  -9.105  0.00  0.00    +0.068 A 
ATOM     23  C   UNL     1      -0.446 -35.881  -9.607  0.00  0.00    +0.023 A 
ATOM     24  C   UNL     1      -0.756 -36.996  -8.876  0.00  0.00    +0.013 A 
BRANCH   3   2
ATOM      1  O   UNL     1      -1.288 -38.152  -5.727  0.00  0.00    -0.390 OA
ATOM      2  C   UNL     1      -1.674 -38.071  -6.855  0.00  0.00    +0.194 C 
ATOM     25  N   UNL     1      -2.364 -39.041  -7.374  0.00  0.00    -0.302 N 
ATOM     26  H   UNL     1      -2.694 -38.974  -8.337  0.00  0.00    +0.180 HD
ATOM     27  H   UNL     1      -2.576 -39.870  -6.819  0.00  0.00    +0.180 HD
ENDBRANCH   3   2
ENDBRANCH   7   6
ENDBRANCH   9   7
BRANCH  15  16
ATOM     16  C   UNL     1       3.015 -32.901 -13.884  0.00  0.00    +0.077 C 
ATOM     17  N   UNL     1       3.745 -32.732 -14.750  0.00  0.00    -0.355 NA
ENDBRANCH  15  16
BRANCH  11  12
ATOM     12  O   UNL     1       2.354 -35.543 -12.796  0.00  0.00    -0.296 OA
BRANCH  12  13
ATOM     13  C   UNL     1       1.812 -36.682 -12.215  0.00  0.00    +0.198 C 
ATOM     14  C   UNL     1       2.595 -37.828 -12.756  0.00  0.00    +0.041 C 
ENDBRANCH  12  13
ENDBRANCH  11  12
TORSDOF 7
