REMARK  Name = 2xnp_ligand
REMARK  10 active torsions:
REMARK  status: ('A' for Active; 'I' for Inactive)
REMARK    1  A    between atoms: C01_1  and  C02_2
REMARK    2  A    between atoms: C02_2  and  O03_3
REMARK    3  A    between atoms: C02_2  and  C30_30
REMARK    4  A    between atoms: O03_3  and  C04_4
REMARK    5  A    between atoms: C06_6  and  N07_9
REMARK    6  A    between atoms: C12_13  and  O13_14
REMARK    7  A    between atoms: O13_14  and  C14_15
REMARK    8  A    between atoms: N17_18  and  C18_19
REMARK    9  A    between atoms: C26_26  and  C27_27
REMARK   10  A    between atoms: C35_35  and  C36_36
REMARK                            x       y       z     vdW  Elec       q    Type
REMARK                         _______ _______ _______ _____ _____    ______ ____
ROOT
ATOM     14  C   UNL     1     -24.563  -3.405  15.623  0.00  0.00    +0.111 A 
ATOM     15  C   UNL     1     -23.252  -4.038  15.366  0.00  0.00    +0.070 A 
ATOM     21  C   UNL     1     -22.672  -4.971  16.360  0.00  0.00    +0.007 A 
ATOM     22  C   UNL     1     -23.402  -5.264  17.624  0.00  0.00    +0.015 A 
ATOM     23  C   UNL     1     -24.699  -4.634  17.867  0.00  0.00    +0.091 A 
ATOM     41  C   UNL     1     -25.316  -3.706  16.875  0.00  0.00    +0.055 A 
ENDROOT
BRANCH  23  24
ATOM     24  N   UNL     1     -25.309  -4.902  19.031  0.00  0.00    -0.197 N 
ATOM     25  C   UNL     1     -25.962  -3.974  19.869  0.00  0.00    +0.094 A 
ATOM     26  C   UNL     1     -26.427  -4.707  20.976  0.00  0.00    +0.029 A 
ATOM     27  C   UNL     1     -27.143  -4.020  22.061  0.00  0.00    +0.013 A 
ATOM     28  C   UNL     1     -27.388  -2.592  21.942  0.00  0.00    +0.078 A 
ATOM     37  C   UNL     1     -26.936  -1.818  20.804  0.00  0.00    +0.007 A 
ATOM     38  N   UNL     1     -26.041  -6.028  20.839  0.00  0.00    -0.306 NA
ATOM     39  C   UNL     1     -26.219  -2.510  19.745  0.00  0.00    +0.013 A 
ATOM     40  C   UNL     1     -25.347  -6.162  19.596  0.00  0.00    +0.257 A 
BRANCH  28  29
ATOM     29  O   UNL     1     -28.081  -1.969  23.003  0.00  0.00    -0.322 OA
BRANCH  29  30
ATOM     30  C   UNL     1     -29.085  -2.844  23.523  0.00  0.00    +0.140 C 
ATOM     31  C   UNL     1     -28.315  -3.017  24.853  0.00  0.00    +0.014 C 
ATOM     32  C   UNL     1     -28.069  -1.613  25.485  0.00  0.00    -0.107 C 
ATOM     33  N   UNL     1     -29.336  -0.850  25.692  0.00  0.00    +0.401 NA
ATOM     34  C   UNL     1     -29.085   0.406  26.442  0.00  0.00    -0.131 C 
ATOM     35  C   UNL     1     -30.189  -0.755  24.493  0.00  0.00    -0.107 C 
ATOM     36  C   UNL     1     -30.422  -2.105  23.774  0.00  0.00    +0.014 C 
ENDBRANCH  29  30
ENDBRANCH  28  29
ENDBRANCH  23  24
BRANCH  15  16
ATOM     16  C   UNL     1     -22.435  -3.767  14.076  0.00  0.00    +0.191 C 
ATOM     17  O   UNL     1     -21.393  -4.308  13.957  0.00  0.00    -0.395 OA
ATOM     18  N   UNL     1     -22.950  -2.895  13.017  0.00  0.00    -0.303 N 
ATOM     19  H   UNL     1     -23.852  -2.433  13.131  0.00  0.00    +0.180 HD
ATOM     20  H   UNL     1     -22.407  -2.751  12.166  0.00  0.00    +0.180 HD
ENDBRANCH  15  16
BRANCH  14  13
ATOM     13  O   UNL     1     -25.088  -2.487  14.688  0.00  0.00    -0.293 OA
BRANCH  13   2
ATOM      1  C   UNL     1     -26.838  -1.251  13.649  0.00  0.00    +0.069 C 
ATOM      2  C   UNL     1     -26.311  -1.848  14.974  0.00  0.00    +0.218 C 
BRANCH   2   3
ATOM      3  C   UNL     1     -26.046  -0.724  16.012  0.00  0.00    +0.024 A 
ATOM      4  C   UNL     1     -27.146  -0.294  16.954  0.00  0.00    +0.052 A 
ATOM      9  C   UNL     1     -26.924   0.748  17.905  0.00  0.00    +0.044 A 
ATOM     10  C   UNL     1     -25.593   1.416  17.945  0.00  0.00    +0.026 A 
ATOM     11  C   UNL     1     -24.516   1.009  17.007  0.00  0.00    +0.043 A 
ATOM     12  C   UNL     1     -24.743  -0.060  16.046  0.00  0.00    +0.037 A 
BRANCH   4   5
ATOM      5  C   UNL     1     -28.536  -0.997  16.911  0.00  0.00    +0.371 C 
ATOM      6  F   UNL     1     -29.113  -0.909  15.658  0.00  0.00    -0.226 F 
ATOM      7  F   UNL     1     -28.399  -2.304  17.272  0.00  0.00    -0.226 F 
ATOM      8  F   UNL     1     -29.335  -0.383  17.809  0.00  0.00    -0.226 F 
ENDBRANCH   4   5
ENDBRANCH   2   3
ENDBRANCH  13   2
ENDBRANCH  14  13
TORSDOF 8
