REMARK  Name = 4ZY5
REMARK  6 active torsions:
REMARK  status: ('A' for Active; 'I' for Inactive)
REMARK    1  A    between atoms: C_4  and  N_12
REMARK    2  A    between atoms: C_4  and  C_13
REMARK    3  A    between atoms: C_5  and  N_17
REMARK    4  A    between atoms: C_10  and  N_18
REMARK    5  A    between atoms: N_18  and  C_19
REMARK    6  A    between atoms: C_22  and  C_23
REMARK                            x       y       z     vdW  Elec       q    Type
REMARK                         _______ _______ _______ _____ _____    ______ ____
ROOT
ATOM      1  N   UNL     1      13.864 -13.678  15.412  0.00  0.00    -0.199 NA
ATOM      2  C   UNL     1      13.634 -14.445  16.468  0.00  0.00    +0.129 A 
ATOM     14  C   UNL     1      12.362 -14.426  17.051  0.00  0.00    +0.063 A 
ATOM     15  C   UNL     1      11.390 -13.617  16.497  0.00  0.00    +0.118 A 
ATOM     16  N   UNL     1      11.692 -12.880  15.436  0.00  0.00    -0.223 NA
ATOM     17  C   UNL     1      12.908 -12.909  14.908  0.00  0.00    +0.217 A 
ATOM     18  N   UNL     1      13.200 -12.131  13.800  0.00  0.00    -0.313 N 
ATOM     19  H   UNL     1      12.550 -11.335  13.503  0.00  0.00    +0.149 HD
ENDROOT
BRANCH   2   3
ATOM      3  N   UNL     1      14.625 -15.245  17.020  0.00  0.00    -0.285 N 
ATOM      4  H   UNL     1      14.499 -15.553  18.037  0.00  0.00    +0.155 HD
BRANCH   3   5
ATOM      5  C   UNL     1      15.771 -15.679  16.355  0.00  0.00    +0.120 A 
ATOM      6  N   UNL     1      16.735 -16.433  16.938  0.00  0.00    -0.264 N 
ATOM      7  H   UNL     1      16.736 -16.778  17.951  0.00  0.00    +0.190 HD
ATOM      8  N   UNL     1      17.726 -16.680  15.985  0.00  0.00    -0.177 NA
ATOM      9  C   UNL     1      17.383 -16.108  14.860  0.00  0.00    +0.068 A 
ATOM     13  C   UNL     1      16.155 -15.465  15.058  0.00  0.00    +0.068 A 
BRANCH   9  10
ATOM     10  C   UNL     1      18.199 -16.154  13.587  0.00  0.00    +0.040 C 
ATOM     11  C   UNL     1      18.968 -14.895  13.178  0.00  0.00    +0.010 C 
ATOM     12  C   UNL     1      17.736 -15.335  12.381  0.00  0.00    +0.010 C 
ENDBRANCH   9  10
ENDBRANCH   3   5
ENDBRANCH   2   3
BRANCH  18  20
ATOM     20  C   UNL     1      14.418 -12.423  13.047  0.00  0.00    +0.108 C 
BRANCH  20  21
ATOM     21  C   UNL     1      15.165 -11.140  12.676  0.00  0.00    +0.006 C 
ATOM     22  C   UNL     1      14.875 -10.017  13.671  0.00  0.00    +0.006 C 
ATOM     23  C   UNL     1      15.601  -8.757  13.188  0.00  0.00    +0.019 C 
ATOM     24  C   UNL     1      17.112  -9.012  13.120  0.00  0.00    +0.051 C 
ATOM     28  C   UNL     1      17.405 -10.175  12.176  0.00  0.00    +0.019 C 
ATOM     29  C   UNL     1      16.671 -11.414  12.684  0.00  0.00    +0.006 C 
BRANCH  24  25
ATOM     25  N   UNL     1      17.805  -7.807  12.643  0.00  0.00    -0.327 NA
ATOM     26  H   UNL     1      17.447  -7.552  11.667  0.00  0.00    +0.118 HD
ATOM     27  H   UNL     1      17.615  -6.996  13.315  0.00  0.00    +0.118 HD
ENDBRANCH  24  25
ENDBRANCH  20  21
ENDBRANCH  18  20
TORSDOF 6
