REMARK  Name = 1ung_ligand
REMARK  6 active torsions:
REMARK  status: ('A' for Active; 'I' for Inactive)
REMARK    1  A    between atoms: OAO_1  and  CAN_2
REMARK    2  A    between atoms: CAM_5  and  CAL_8
REMARK    3  A    between atoms: CAK_16  and  CAG_17
REMARK    4  A    between atoms: CAG_17  and  CAD_18
REMARK    5  A    between atoms: CAD_18  and  CAC_19
REMARK    6  A    between atoms: CAC_19  and  CAB_20
REMARK                            x       y       z     vdW  Elec       q    Type
REMARK                         _______ _______ _______ _____ _____    ______ ____
ROOT
ATOM      7  C   UNL     1       4.398  65.836   0.311  0.00  0.00    +0.069 A 
ATOM      8  C   UNL     1       5.083  65.080   1.299  0.00  0.00    -0.011 A 
ATOM     13  C   UNL     1       5.785  64.212   0.480  0.00  0.00    +0.076 A 
ATOM     14  N   UNL     1       6.700  63.168   0.830  0.00  0.00    -0.296 NA
ATOM     15  C   UNL     1       7.201  62.431  -0.154  0.00  0.00    +0.101 A 
ATOM     16  C   UNL     1       6.880  62.672  -1.496  0.00  0.00    +0.105 A 
ATOM     17  N   UNL     1       6.070  63.661  -1.900  0.00  0.00    -0.263 NA
ATOM     18  C   UNL     1       5.484  64.436  -0.839  0.00  0.00    +0.160 A 
ATOM     19  N   UNL     1       4.637  65.442  -0.971  0.00  0.00    -0.260 N 
ATOM     20  H   UNL     1       4.248  65.836  -1.840  0.00  0.00    +0.226 HD
ENDROOT
BRANCH   7   6
ATOM      3  C   UNL     1       1.807  69.008   0.937  0.00  0.00    +0.089 A 
ATOM      4  C   UNL     1       2.108  68.597  -0.345  0.00  0.00    +0.022 A 
ATOM      5  C   UNL     1       2.986  67.535  -0.494  0.00  0.00    -0.002 A 
ATOM      6  C   UNL     1       3.552  66.890   0.628  0.00  0.00    -0.006 A 
ATOM     21  C   UNL     1       3.249  67.316   1.914  0.00  0.00    -0.002 A 
ATOM     22  C   UNL     1       2.379  68.399   2.055  0.00  0.00    +0.022 A 
BRANCH   3   1
ATOM      1  O   UNL     1       0.986  70.012   1.071  0.00  0.00    -0.332 OA
ATOM      2  H   UNL     1       0.696  70.299   0.213  0.00  0.00    +0.249 HD
ENDBRANCH   3   1
ENDBRANCH   7   6
BRANCH   8   9
ATOM      9  C   UNL     1       5.155  65.199   2.822  0.00  0.00    +0.042 C 
BRANCH   9  10
ATOM     10  C   UNL     1       4.349  64.271   3.729  0.00  0.00    +0.008 C 
BRANCH  10  11
ATOM     11  C   UNL     1       5.121  64.122   5.039  0.00  0.00    -0.002 C 
ATOM     12  C   UNL     1       4.515  64.833   6.245  0.00  0.00    +0.004 C 
ENDBRANCH  10  11
ENDBRANCH   9  10
ENDBRANCH   8   9
TORSDOF 5
