REMARK  Name = 3GR4
REMARK  8 active torsions:
REMARK  status: ('A' for Active; 'I' for Inactive)
REMARK    1  A    between atoms: P_1  and  O_8
REMARK    2  A    between atoms: P_5  and  O_8
REMARK    3  A    between atoms: P_5  and  O_9
REMARK    4  A    between atoms: O_9  and  C_10
REMARK    5  A    between atoms: C_10  and  C_11
REMARK    6  A    between atoms: C_13  and  O_14
REMARK    7  A    between atoms: C_15  and  O_16
REMARK    8  A    between atoms: C_17  and  N_18
REMARK                            x       y       z     vdW  Elec       q    Type
REMARK                         _______ _______ _______ _____ _____    ______ ____
ROOT
ATOM      6  C   UNL     1     -16.798  17.037  -4.282  0.00  0.00    +0.177 C 
ATOM      7  C   UNL     1     -17.328  18.157  -5.167  0.00  0.00    +0.178 C 
ATOM      8  C   UNL     1     -18.552  17.554  -5.820  0.00  0.00    +0.189 C 
ATOM      9  C   UNL     1     -19.063  16.513  -4.858  0.00  0.00    +0.215 C 
ATOM     17  O   UNL     1     -17.990  16.306  -3.926  0.00  0.00    -0.351 OA
ENDROOT
BRANCH   9  10
ATOM     10  N   UNL     1     -20.333  16.954  -4.200  0.00  0.00    -0.304 NA
ATOM     11  H   UNL     1     -20.650  16.209  -3.500  0.00  0.00    +0.121 HD
ATOM     12  H   UNL     1     -20.167  17.878  -3.686  0.00  0.00    +0.121 HD
ENDBRANCH   9  10
BRANCH   8  13
ATOM     13  O   UNL     1     -18.197  16.836  -6.977  0.00  0.00    -0.385 OA
ATOM     14  H   UNL     1     -17.732  17.482  -7.662  0.00  0.00    +0.210 HD
ENDBRANCH   8  13
BRANCH   7  15
ATOM     15  O   UNL     1     -16.394  18.637  -6.137  0.00  0.00    -0.386 OA
ATOM     16  H   UNL     1     -15.543  19.010  -5.649  0.00  0.00    +0.210 HD
ENDBRANCH   7  15
BRANCH   6   5
ATOM      5  C   UNL     1     -16.097  17.529  -3.015  0.00  0.00    +0.202 C 
BRANCH   5   4
ATOM      4  O   UNL     1     -14.645  17.372  -2.855  0.00  0.00    -0.325 OA
BRANCH   4   3
ATOM      3  P   UNL     1     -14.366  17.662  -1.296  0.00  0.00    +0.215 P 
ATOM     18  O   UNL     1     -12.978  17.825  -0.729  0.00  0.00    -0.437 OA
ATOM     19  O   UNL     1     -15.200  16.534  -0.813  0.00  0.00    -0.517 OA
BRANCH   3   2
ATOM      2  O   UNL     1     -15.113  19.099  -1.083  0.00  0.00    -0.314 OA
BRANCH   2   1
ATOM      1  P   UNL     1     -14.552  20.427  -0.311  0.00  0.00    -0.007 P 
ATOM     20  O   UNL     1     -15.823  20.945   0.336  0.00  0.00    -0.577 OA
ATOM     21  O   UNL     1     -13.531  19.996   0.719  0.00  0.00    -0.577 OA
ATOM     22  O   UNL     1     -13.960  21.279  -1.408  0.00  0.00    -0.637 OA
ENDBRANCH   2   1
ENDBRANCH   3   2
ENDBRANCH   4   3
ENDBRANCH   5   4
ENDBRANCH   6   5
TORSDOF 8
