REMARK  Name = A4T
REMARK  2 active torsions:
REMARK  status: ('A' for Active; 'I' for Inactive)
REMARK    1  A    between atoms: C1_1  and  C_12
REMARK    2  A    between atoms: C4_4  and  C5_5
REMARK                            x       y       z     vdW  Elec       q    Type
REMARK                         _______ _______ _______ _____ _____    ______ ____
ROOT
ATOM      1  C   UNL     1      70.178 139.621 350.658  0.00  0.00    -0.002 A 
ATOM      2  C   UNL     1      70.888 140.572 351.379  0.00  0.00    +0.009 A 
ATOM      3  C   UNL     1      70.680 141.916 351.156  0.00  0.00    +0.057 A 
ATOM      4 CL   UNL     1      71.598 143.051 352.084  0.00  0.00    -0.082 Cl
ATOM      5  C   UNL     1      69.754 142.370 350.225  0.00  0.00    +0.013 A 
ATOM     13  C   UNL     1      69.032 141.410 349.514  0.00  0.00    +0.001 A 
ATOM     16  C   UNL     1      69.239 140.059 349.739  0.00  0.00    -0.003 A 
ENDROOT
BRANCH   5   6
ATOM      6  C   UNL     1      69.503 143.824 349.992  0.00  0.00    +0.028 A 
ATOM      7  C   UNL     1      68.336 144.422 350.464  0.00  0.00    +0.002 A 
ATOM      8  C   UNL     1      68.129 145.785 350.335  0.00  0.00    +0.000 A 
ATOM      9  C   UNL     1      69.098 146.584 349.770  0.00  0.00    +0.002 A 
ATOM     10  C   UNL     1      70.264 146.025 349.284  0.00  0.00    +0.030 A 
ATOM     11  C   UNL     1      70.432 144.664 349.388  0.00  0.00    +0.140 A 
ATOM     12  F   UNL     1      71.513 144.114 348.793  0.00  0.00    -0.204 F 
ENDBRANCH   5   6
BRANCH   1  14
ATOM     14  C   UNL     1      70.558 138.164 350.846  0.00  0.00    +0.136 C 
ATOM     15  N   UNL     1      70.703 137.725 352.217  0.00  0.00    -0.126 NA
ENDBRANCH   1  14
TORSDOF 2
