REMARK  Name = 3elj_ligand
REMARK  8 active torsions:
REMARK  status: ('A' for Active; 'I' for Inactive)
REMARK    1  A    between atoms: N1_10  and  C9_11
REMARK    2  A    between atoms: C2_12  and  O1_13
REMARK    3  A    between atoms: O1_13  and  C1_14
REMARK    4  A    between atoms: C4_17  and  C5_19
REMARK    5  A    between atoms: C5_19  and  S_20
REMARK    6  A    between atoms: S_20  and  C6_23
REMARK    7  A    between atoms: C18_25  and  C17_27
REMARK    8  A    between atoms: C12_33  and  N3_34
REMARK                            x       y       z     vdW  Elec       q    Type
REMARK                         _______ _______ _______ _____ _____    ______ ____
ROOT
ATOM      1  C   UNL     1      20.773   8.519  32.340  0.00  0.00    +0.130 A 
ATOM      2  N   UNL     1      21.265   9.819  32.179  0.00  0.00    -0.253 N 
ATOM      3  H   UNL     1      20.583  10.579  32.311  0.00  0.00    +0.220 HD
ATOM     16  C   UNL     1      19.521   8.397  32.906  0.00  0.00    +0.036 A 
ATOM     17  C   UNL     1      18.551   9.309  33.398  0.00  0.00    -0.032 A 
ATOM     18  C   UNL     1      17.481   8.566  33.847  0.00  0.00    +0.106 A 
ATOM     19  N   UNL     1      17.777   7.249  33.640  0.00  0.00    -0.273 N 
ATOM     20  H   UNL     1      17.159   6.460  33.877  0.00  0.00    +0.230 HD
ATOM     21  C   UNL     1      19.013   7.134  33.072  0.00  0.00    +0.121 A 
ATOM     22  N   UNL     1      19.610   5.995  32.741  0.00  0.00    -0.266 NA
ATOM     23  C   UNL     1      20.816   6.185  32.201  0.00  0.00    +0.170 A 
ATOM     24  N   UNL     1      21.493   5.007  31.827  0.00  0.00    -0.257 N 
ATOM     25  H   UNL     1      21.027   4.107  32.012  0.00  0.00    +0.211 HD
ATOM     39  N   UNL     1      21.392   7.376  31.996  0.00  0.00    -0.252 NA
ENDROOT
BRANCH   2   4
ATOM      4  C   UNL     1      22.569  10.215  31.861  0.00  0.00    +0.084 A 
ATOM      5  C   UNL     1      23.604   9.320  31.697  0.00  0.00    +0.016 A 
ATOM      6  C   UNL     1      24.871   9.760  31.383  0.00  0.00    -0.007 A 
ATOM      7  C   UNL     1      25.119  11.105  31.231  0.00  0.00    +0.019 A 
ATOM      8  C   UNL     1      24.094  12.008  31.394  0.00  0.00    +0.145 A 
ATOM      9  F   UNL     1      24.347  13.317  31.244  0.00  0.00    -0.180 F 
ATOM     10  C   UNL     1      22.827  11.564  31.706  0.00  0.00    +0.106 A 
BRANCH  10  11
ATOM     11  C   UNL     1      21.727  12.531  31.880  0.00  0.00    +0.195 C 
ATOM     12  N   UNL     1      21.821  13.644  31.086  0.00  0.00    -0.303 N 
ATOM     13  H   UNL     1      21.119  14.355  31.136  0.00  0.00    +0.180 HD
ATOM     14  H   UNL     1      22.591  13.746  30.456  0.00  0.00    +0.180 HD
ATOM     15  O   UNL     1      20.826  12.313  32.681  0.00  0.00    -0.394 OA
ENDBRANCH  10  11
ENDBRANCH   2   4
BRANCH  24  26
ATOM     26  C   UNL     1      22.763   4.974  31.217  0.00  0.00    +0.088 A 
ATOM     27  C   UNL     1      23.094   5.819  30.179  0.00  0.00    -0.004 A 
ATOM     28  C   UNL     1      24.344   5.759  29.605  0.00  0.00    -0.036 A 
ATOM     29  C   UNL     1      25.279   4.845  30.044  0.00  0.00    -0.042 A 
ATOM     35  C   UNL     1      24.955   3.993  31.080  0.00  0.00    +0.006 A 
ATOM     36  C   UNL     1      23.699   4.063  31.658  0.00  0.00    +0.109 A 
BRANCH  36  37
ATOM     37  O   UNL     1      23.295   3.243  32.703  0.00  0.00    -0.327 OA
ATOM     38  C   UNL     1      24.183   2.140  32.823  0.00  0.00    +0.229 C 
ENDBRANCH  36  37
BRANCH  29  30
ATOM     30  C   UNL     1      26.629   4.808  29.404  0.00  0.00    +0.220 C 
BRANCH  30  31
ATOM     31  S   UNL     1      26.539   3.791  27.947  0.00  0.00    -0.026 S 
ATOM     32  C   UNL     1      28.178   3.920  27.298  0.00  0.00    +0.196 C 
ATOM     33  O   UNL     1      26.333   2.424  28.388  0.00  0.00    -0.173 OA
ATOM     34  O   UNL     1      25.629   4.405  26.998  0.00  0.00    -0.173 OA
ENDBRANCH  30  31
ENDBRANCH  29  30
ENDBRANCH  24  26
TORSDOF 6
