REMARK  Name = 3jya_ligand
REMARK  0 active torsions:
REMARK  status: ('A' for Active; 'I' for Inactive)
REMARK                            x       y       z     vdW  Elec       q    Type
REMARK                         _______ _______ _______ _____ _____    ______ ____
ROOT
ATOM      1  C   UNL     1       9.029  81.360  -1.234  0.00  0.00    +0.234 A 
ATOM      2  C   UNL     1       7.773  81.758  -0.734  0.00  0.00    +0.113 A 
ATOM      3  C   UNL     1       7.477  82.059   0.570  0.00  0.00    +0.033 A 
ATOM      4  C   UNL     1       6.126  82.431   0.789  0.00  0.00    +0.014 A 
ATOM      5  C   UNL     1       5.445  82.800   1.938  0.00  0.00    +0.042 A 
ATOM      6  C   UNL     1       4.107  83.113   1.841  0.00  0.00    +0.003 A 
ATOM      7  C   UNL     1       3.434  83.062   0.636  0.00  0.00    +0.007 A 
ATOM      8  C   UNL     1       4.092  82.702  -0.517  0.00  0.00    +0.055 A 
ATOM      9 CL   UNL     1       3.344  82.602  -2.074  0.00  0.00    -0.075 Cl
ATOM     10 CL   UNL     1       6.349  82.848   3.426  0.00  0.00    -0.071 Cl
ATOM     11  C   UNL     1       5.425  82.398  -0.413  0.00  0.00    +0.055 A 
ATOM     12  N   UNL     1       8.450  81.985   1.572  0.00  0.00    -0.301 NA
ATOM     13  C   UNL     1       9.600  81.615   1.101  0.00  0.00    +0.272 A 
ATOM     14  S   UNL     1       6.406  81.931  -1.740  0.00  0.00    -0.034 S 
ATOM     15  O   UNL     1       9.272  81.103  -2.403  0.00  0.00    -0.403 OA
ATOM     16  N   UNL     1       9.922  81.314  -0.200  0.00  0.00    -0.202 N 
ATOM     17  H   UNL     1      10.864  81.046  -0.402  0.00  0.00    +0.256 HD
ENDROOT
TORSDOF 0
