REMARK  Name = 1wbw_ligand
REMARK  4 active torsions:
REMARK  status: ('A' for Active; 'I' for Inactive)
REMARK    1  A    between atoms: C3_3  and  O10_6
REMARK    2  A    between atoms: C4_4  and  N12_7
REMARK    3  A    between atoms: O10_6  and  C9_19
REMARK    4  A    between atoms: C23_14  and  C9_19
REMARK                            x       y       z     vdW  Elec       q    Type
REMARK                         _______ _______ _______ _____ _____    ______ ____
ROOT
ATOM     10  C   UNL     1      20.295  31.214  31.484  0.00  0.00    +0.263 C 
ENDROOT
BRANCH  10  11
ATOM     11  C   UNL     1      18.996  30.680  32.060  0.00  0.00    -0.002 A 
ATOM     12  C   UNL     1      18.983  29.592  32.900  0.00  0.00    -0.005 A 
ATOM     13  C   UNL     1      17.784  29.128  33.463  0.00  0.00    -0.011 A 
ATOM     14  C   UNL     1      16.574  29.733  33.202  0.00  0.00    -0.009 A 
ATOM     15  C   UNL     1      16.541  30.849  32.344  0.00  0.00    -0.024 A 
ATOM     16  C   UNL     1      15.339  31.510  32.047  0.00  0.00    +0.004 A 
ATOM     17  C   UNL     1      15.386  32.583  31.215  0.00  0.00    -0.001 A 
ATOM     18  C   UNL     1      16.561  33.059  30.655  0.00  0.00    -0.002 A 
ATOM     19  C   UNL     1      17.740  32.463  30.913  0.00  0.00    +0.008 A 
ATOM     20  C   UNL     1      17.770  31.337  31.763  0.00  0.00    -0.010 A 
ENDBRANCH  10  11
BRANCH  10   9
ATOM      9  O   UNL     1      20.689  32.310  32.353  0.00  0.00    -0.302 OA
BRANCH   9   8
ATOM      1  C   UNL     1      23.315  33.728  30.218  0.00  0.00    -0.001 A 
ATOM      2  C   UNL     1      23.141  35.069  30.542  0.00  0.00    +0.051 A 
ATOM      3  N   UNL     1      22.207  35.443  31.404  0.00  0.00    -0.297 NA
ATOM      4  C   UNL     1      21.398  34.560  31.981  0.00  0.00    +0.140 A 
ATOM      8  C   UNL     1      21.517  33.194  31.716  0.00  0.00    +0.140 A 
ATOM     21  C   UNL     1      22.507  32.767  30.823  0.00  0.00    +0.036 A 
BRANCH   4   5
ATOM      5  N   UNL     1      20.440  34.994  32.881  0.00  0.00    -0.325 N 
ATOM      6  H   UNL     1      19.825  34.312  33.347  0.00  0.00    +0.173 HD
ATOM      7  H   UNL     1      20.343  35.999  33.085  0.00  0.00    +0.173 HD
ENDBRANCH   4   5
ENDBRANCH   9   8
ENDBRANCH  10   9
TORSDOF 4
