REMARK  Name = 3srv_ligand
REMARK  5 active torsions:
REMARK  status: ('A' for Active; 'I' for Inactive)
REMARK    1  A    between atoms: C1_1  and  C2_2
REMARK    2  A    between atoms: C5_5  and  N6_6
REMARK    3  A    between atoms: N10_10  and  C11_11
REMARK    4  A    between atoms: C16_16  and  N17_17
REMARK    5  A    between atoms: C20_20  and  C21_21
REMARK                            x       y       z     vdW  Elec       q    Type
REMARK                         _______ _______ _______ _____ _____    ______ ____
ROOT
ATOM      6  N   UNL     1      -0.696   0.185 -29.290  0.00  0.00    -0.256 N 
ATOM      7  H   UNL     1      -1.226   0.857 -29.864  0.00  0.00    +0.217 HD
ATOM      8  C   UNL     1      -1.443  -0.524 -28.342  0.00  0.00    +0.152 A 
ATOM      9  C   UNL     1      -2.813  -0.158 -28.211  0.00  0.00    +0.107 A 
ATOM     15  C   UNL     1      -3.510  -0.876 -27.263  0.00  0.00    +0.112 A 
ATOM     16  N   UNL     1      -2.985  -1.856 -26.512  0.00  0.00    -0.265 NA
ATOM     17  C   UNL     1      -1.698  -2.141 -26.712  0.00  0.00    +0.180 A 
ATOM     18  N   UNL     1      -1.096  -3.131 -26.001  0.00  0.00    -0.281 N 
ATOM     19  H   UNL     1      -1.702  -3.721 -25.413  0.00  0.00    +0.188 HD
ATOM     30  N   UNL     1      -0.925  -1.509 -27.599  0.00  0.00    -0.232 NA
ENDROOT
BRANCH   6   5
ATOM      1  C   UNL     1       4.843   0.207 -30.688  0.00  0.00    +0.075 C 
ATOM      2  C   UNL     1       3.397   0.154 -30.279  0.00  0.00    -0.057 A 
ATOM      3  C   UNL     1       2.917  -0.804 -29.413  0.00  0.00    -0.016 A 
ATOM      4  C   UNL     1       1.570  -0.838 -29.060  0.00  0.00    +0.008 A 
ATOM      5  C   UNL     1       0.693   0.102 -29.566  0.00  0.00    +0.059 A 
ATOM     31  C   UNL     1       1.201   1.052 -30.428  0.00  0.00    +0.008 A 
ATOM     32  C   UNL     1       2.531   1.088 -30.794  0.00  0.00    -0.016 A 
ENDBRANCH   6   5
BRANCH  18  20
ATOM     20  C   UNL     1       0.315  -3.429 -25.996  0.00  0.00    +0.151 C 
ATOM     21  C   UNL     1       1.117  -2.531 -25.057  0.00  0.00    +0.113 C 
ATOM     26  C   UNL     1       2.569  -2.976 -24.973  0.00  0.00    +0.216 C 
ATOM     27  O   UNL     1       2.661  -4.396 -24.727  0.00  0.00    -0.374 OA
ATOM     28  C   UNL     1       2.016  -5.128 -25.740  0.00  0.00    +0.162 C 
ATOM     29  C   UNL     1       0.538  -4.896 -25.664  0.00  0.00    +0.062 C 
BRANCH  21  22
ATOM     22  N   UNL     1       0.573  -2.564 -23.716  0.00  0.00    +0.224 N 
ATOM     23  H   UNL     1       0.633  -3.502 -23.352  0.00  0.00    +0.200 HD
ATOM     24  H   UNL     1       1.099  -1.940 -23.125  0.00  0.00    +0.200 HD
ATOM     25  H   UNL     1      -0.392  -2.273 -23.738  0.00  0.00    +0.200 HD
ENDBRANCH  21  22
ENDBRANCH  18  20
BRANCH   9  10
ATOM     10  C   UNL     1      -3.404   0.927 -29.016  0.00  0.00    +0.199 C 
ATOM     11  O   UNL     1      -2.697   1.667 -29.688  0.00  0.00    -0.393 OA
ATOM     12  N   UNL     1      -4.760   1.048 -28.952  0.00  0.00    -0.302 N 
ATOM     13  H   UNL     1      -5.292   0.421 -28.383  0.00  0.00    +0.180 HD
ATOM     14  H   UNL     1      -5.223   1.764 -29.474  0.00  0.00    +0.180 HD
ENDBRANCH   9  10
TORSDOF 4
