REMARK  Name = 3MDY
REMARK  3 active torsions:
REMARK  status: ('A' for Active; 'I' for Inactive)
REMARK    1  A    between atoms: C_22  and  C_23
REMARK    2  A    between atoms: C_24  and  N_30
REMARK    3  A    between atoms: C_25  and  C_26
REMARK                            x       y       z     vdW  Elec       q    Type
REMARK                         _______ _______ _______ _____ _____    ______ ____
ROOT
ATOM      6  C   UNL     1      43.214   8.959  57.137  0.00  0.00    +0.044 A 
ATOM      7  C   UNL     1      44.242   9.919  57.062  0.00  0.00    +0.157 A 
ATOM      8  N   UNL     1      43.774  11.019  57.780  0.00  0.00    -0.244 N 
ATOM      9  N   UNL     1      42.639  10.767  58.255  0.00  0.00    -0.298 N 
ATOM     10  H   UNL     1      42.069  11.430  58.872  0.00  0.00    +0.187 HD
ATOM     11  C   UNL     1      44.610  12.134  57.894  0.00  0.00    +0.118 C 
ATOM     12  C   UNL     1      45.856  12.172  57.290  0.00  0.00    -0.001 C 
ATOM     26  C   UNL     1      46.255  11.027  56.599  0.00  0.00    +0.181 C 
ATOM     27  N   UNL     1      45.462   9.971  56.482  0.00  0.00    -0.260 NA
ATOM     28  C   UNL     1      42.247   9.537  57.871  0.00  0.00    +0.114 A 
ENDROOT
BRANCH   6   5
ATOM      1  C   UNL     1      46.189   4.734  57.033  0.00  0.00    +0.002 A 
ATOM      2  C   UNL     1      44.991   4.443  56.360  0.00  0.00    +0.028 A 
ATOM      3  C   UNL     1      43.997   5.392  56.215  0.00  0.00    +0.071 A 
ATOM      4  C   UNL     1      44.188   6.673  56.731  0.00  0.00    +0.008 A 
ATOM      5  C   UNL     1      43.178   7.649  56.586  0.00  0.00    -0.002 A 
ATOM     29  C   UNL     1      42.020   7.224  55.945  0.00  0.00    +0.029 A 
ATOM     30  C   UNL     1      41.889   5.931  55.446  0.00  0.00    +0.112 A 
ATOM     31  C   UNL     1      45.389   6.953  57.401  0.00  0.00    +0.010 A 
ATOM     32  N   UNL     1      42.845   5.045  55.568  0.00  0.00    -0.255 NA
ATOM     33  C   UNL     1      46.384   6.007  57.527  0.00  0.00    +0.001 A 
ENDBRANCH   6   5
BRANCH  12  13
ATOM     13  C   UNL     1      46.685  13.330  57.445  0.00  0.00    -0.018 A 
ATOM     14  C   UNL     1      48.068  13.263  57.290  0.00  0.00    +0.010 A 
ATOM     15  C   UNL     1      48.864  14.399  57.491  0.00  0.00    +0.024 A 
ATOM     16  C   UNL     1      48.320  15.610  57.844  0.00  0.00    +0.030 A 
ATOM     24  C   UNL     1      46.949  15.691  58.009  0.00  0.00    +0.024 A 
ATOM     25  C   UNL     1      46.150  14.563  57.826  0.00  0.00    +0.010 A 
BRANCH  16  17
ATOM     17  N   UNL     1      49.176  16.685  58.096  0.00  0.00    -0.328 N 
ATOM     18  C   UNL     1      50.519  16.619  57.502  0.00  0.00    +0.120 C 
ATOM     19  C   UNL     1      51.471  17.531  58.248  0.00  0.00    +0.100 C 
ATOM     20  N   UNL     1      50.905  18.882  58.445  0.00  0.00    -0.313 NA
ATOM     21  H   UNL     1      51.662  19.498  58.883  0.00  0.00    +0.122 HD
ATOM     22  C   UNL     1      49.713  18.939  59.309  0.00  0.00    +0.100 C 
ATOM     23  C   UNL     1      48.785  17.694  59.163  0.00  0.00    +0.120 C 
ENDBRANCH  16  17
ENDBRANCH  12  13
TORSDOF 3
