REMARK  Name = 4lyn_ligand
REMARK  10 active torsions:
REMARK  status: ('A' for Active; 'I' for Inactive)
REMARK    1  A    between atoms: C5_1  and  C8_3
REMARK    2  A    between atoms: C8_3  and  C10_5
REMARK    3  A    between atoms: C8_3  and  C11_6
REMARK    4  A    between atoms: C8_3  and  C12_7
REMARK    5  A    between atoms: C9_4  and  S6_14
REMARK    6  A    between atoms: C1_11  and  C3_13
REMARK    7  A    between atoms: C3_13  and  S6_14
REMARK    8  A    between atoms: C18_17  and  C19_19
REMARK    9  A    between atoms: C19_19  and  C22_20
REMARK   10  A    between atoms: C19_19  and  C21_21
REMARK                            x       y       z     vdW  Elec       q    Type
REMARK                         _______ _______ _______ _____ _____    ______ ____
ROOT
ATOM      6  C   UNL     1      27.200  31.394  28.137  0.00  0.00    +0.075 A 
ATOM      7  S   UNL     1      26.523  29.784  28.175  0.00  0.00    +0.030 S 
ATOM      8  C   UNL     1      25.114  30.455  28.944  0.00  0.00    +0.199 A 
ATOM      9  N   UNL     1      23.948  29.752  29.183  0.00  0.00    -0.197 N 
ATOM     10  H   UNL     1      23.237  30.218  29.709  0.00  0.00    +0.238 HD
ATOM     11  C   UNL     1      23.678  28.477  28.765  0.00  0.00    +0.227 C 
ATOM     20  O   UNL     1      24.464  27.799  28.109  0.00  0.00    -0.378 OA
ATOM     21  N   UNL     1      25.146  31.738  29.171  0.00  0.00    -0.338 NA
ATOM     22  C   UNL     1      26.315  32.263  28.688  0.00  0.00    -0.005 A 
ENDROOT
BRANCH  11  12
ATOM     12  C   UNL     1      22.283  27.969  29.123  0.00  0.00    +0.156 C 
ATOM     19  C   UNL     1      21.590  27.437  27.868  0.00  0.00    +0.048 C 
BRANCH  12  13
ATOM     13  C   UNL     1      22.416  26.939  30.238  0.00  0.00    -0.021 A 
ATOM     14  C   UNL     1      22.178  27.316  31.553  0.00  0.00    -0.002 A 
ATOM     15  C   UNL     1      22.216  26.380  32.576  0.00  0.00    -0.008 A 
ATOM     16  C   UNL     1      22.490  25.056  32.297  0.00  0.00    -0.012 A 
ATOM     17  C   UNL     1      22.757  24.672  30.997  0.00  0.00    -0.008 A 
ATOM     18  C   UNL     1      22.729  25.609  29.975  0.00  0.00    -0.002 A 
ENDBRANCH  12  13
ENDBRANCH  11  12
BRANCH   6   5
ATOM      5  S   UNL     1      28.838  31.581  27.534  0.00  0.00    -0.067 S 
BRANCH   5   4
ATOM      4  C   UNL     1      28.542  31.489  25.762  0.00  0.00    +0.269 C 
BRANCH   4   3
ATOM      1  C   UNL     1      28.582  28.022  24.857  0.00  0.00    +0.107 A 
ATOM      2  O   UNL     1      27.922  29.214  25.074  0.00  0.00    -0.204 OA
ATOM      3  C   UNL     1      28.907  30.119  25.354  0.00  0.00    +0.240 A 
ATOM     23  N   UNL     1      30.129  29.596  25.308  0.00  0.00    -0.233 NA
ATOM     28  C   UNL     1      29.939  28.279  24.992  0.00  0.00    +0.166 A 
BRANCH   1  24
ATOM     24  C   UNL     1      27.811  26.730  24.587  0.00  0.00    -0.042 C 
ATOM     25  C   UNL     1      26.641  26.606  25.563  0.00  0.00    -0.080 C 
ATOM     26  C   UNL     1      27.276  26.738  23.156  0.00  0.00    -0.080 C 
ATOM     27  C   UNL     1      28.720  25.515  24.764  0.00  0.00    -0.080 C 
ENDBRANCH   1  24
ENDBRANCH   4   3
ENDBRANCH   5   4
ENDBRANCH   6   5
TORSDOF 6
