REMARK  Name = 4Y8D
REMARK  5 active torsions:
REMARK  status: ('A' for Active; 'I' for Inactive)
REMARK    1  A    between atoms: N_6  and  C_7
REMARK    2  A    between atoms: C_15  and  C_16
REMARK    3  A    between atoms: C_20  and  N_21
REMARK    4  A    between atoms: C_22  and  O_23
REMARK    5  A    between atoms: O_23  and  C_24
REMARK                            x       y       z     vdW  Elec       q    Type
REMARK                         _______ _______ _______ _____ _____    ______ ____
ROOT
ATOM      3  C   UNL     1      30.326  50.026 -61.622  0.00  0.00    +0.114 A 
ATOM      4  C   UNL     1      29.441  49.347 -60.904  0.00  0.00    +0.119 A 
ATOM      5  N   UNL     1      28.119  49.267 -61.093  0.00  0.00    -0.250 NA
ATOM      6  C   UNL     1      27.298  48.539 -60.251  0.00  0.00    +0.120 A 
ATOM      7  C   UNL     1      27.862  47.894 -59.176  0.00  0.00    +0.002 A 
ATOM     19  C   UNL     1      29.237  47.987 -59.035  0.00  0.00    +0.040 A 
ATOM     20  C   UNL     1      30.007  48.696 -59.867  0.00  0.00    +0.101 A 
ATOM     21  N   UNL     1      31.329  48.882 -59.787  0.00  0.00    -0.207 NA
ATOM     22  S   UNL     1      31.718  49.847 -61.031  0.00  0.00    +0.029 S 
ENDROOT
BRANCH   3   2
ATOM      1  C   UNL     1      31.295  51.085 -63.548  0.00  0.00    +0.133 C 
ATOM      2  N   UNL     1      30.106  50.735 -62.724  0.00  0.00    -0.317 N 
ATOM     23  C   UNL     1      28.737  51.130 -63.184  0.00  0.00    +0.133 C 
ATOM     24  C   UNL     1      28.635  51.080 -64.732  0.00  0.00    +0.178 C 
ATOM     25  O   UNL     1      29.954  51.307 -65.305  0.00  0.00    -0.377 OA
ATOM     26  C   UNL     1      30.822  52.053 -64.445  0.00  0.00    +0.178 C 
ENDBRANCH   3   2
BRANCH   7   8
ATOM      8  C   UNL     1      27.071  47.112 -58.331  0.00  0.00    -0.013 A 
ATOM      9  C   UNL     1      25.719  47.420 -58.160  0.00  0.00    +0.010 A 
ATOM     10  C   UNL     1      24.913  46.634 -57.341  0.00  0.00    +0.027 A 
ATOM     11  C   UNL     1      25.460  45.528 -56.714  0.00  0.00    +0.067 A 
ATOM     12  C   UNL     1      26.806  45.193 -56.866  0.00  0.00    +0.141 A 
ATOM     18  C   UNL     1      27.618  45.984 -57.683  0.00  0.00    +0.056 A 
BRANCH  11  15
ATOM     15  N   UNL     1      24.721  44.756 -55.922  0.00  0.00    -0.355 N 
ATOM     16  H   UNL     1      25.159  43.904 -55.445  0.00  0.00    +0.142 HD
ATOM     17  H   UNL     1      23.688  44.986 -55.762  0.00  0.00    +0.142 HD
ENDBRANCH  11  15
BRANCH  12  13
ATOM     13  O   UNL     1      27.222  44.067 -56.184  0.00  0.00    -0.493 OA
ATOM     14  C   UNL     1      28.657  43.859 -56.050  0.00  0.00    +0.277 C 
ENDBRANCH  12  13
ENDBRANCH   7   8
TORSDOF 4
