REMARK  Name = 3sxf_ligand
REMARK  8 active torsions:
REMARK  status: ('A' for Active; 'I' for Inactive)
REMARK    1  A    between atoms: C6_6  and  NAD_10
REMARK    2  A    between atoms: CAA_7  and  CAL_17
REMARK    3  A    between atoms: CAB_8  and  CAY_25
REMARK    4  A    between atoms: CAC_9  and  CAY_25
REMARK    5  A    between atoms: CAL_17  and  OAP_19
REMARK    6  A    between atoms: OAP_19  and  CAQ_20
REMARK    7  A    between atoms: CAR_21  and  CAT_22
REMARK    8  A    between atoms: CAY_25  and  NAZ_26
REMARK                            x       y       z     vdW  Elec       q    Type
REMARK                         _______ _______ _______ _____ _____    ______ ____
ROOT
ATOM      1  N   UNL     1      21.372  12.289  63.415  0.00  0.00    -0.266 NA
ATOM      2  C   UNL     1      20.248  12.996  63.629  0.00  0.00    +0.127 A 
ATOM      6  C   UNL     1      20.308  14.400  63.581  0.00  0.00    +0.087 A 
ATOM      7  C   UNL     1      19.446  15.499  63.738  0.00  0.00    +0.071 A 
ATOM     21  N   UNL     1      20.178  16.611  63.567  0.00  0.00    -0.194 NA
ATOM     22  N   UNL     1      21.355  16.299  63.330  0.00  0.00    -0.181 N 
ATOM     26  C   UNL     1      21.540  14.982  63.322  0.00  0.00    +0.164 A 
ATOM     27  N   UNL     1      22.630  14.214  63.134  0.00  0.00    -0.268 NA
ATOM     28  C   UNL     1      22.537  12.891  63.174  0.00  0.00    +0.160 A 
ENDROOT
BRANCH   7   8
ATOM      8  C   UNL     1      18.077  15.460  64.014  0.00  0.00    -0.010 A 
ATOM      9  C   UNL     1      17.549  14.728  65.080  0.00  0.00    +0.011 A 
ATOM     10  C   UNL     1      16.172  14.739  65.340  0.00  0.00    -0.024 A 
ATOM     11  C   UNL     1      15.313  15.484  64.530  0.00  0.00    -0.029 A 
ATOM     12  C   UNL     1      13.938  15.491  64.776  0.00  0.00    +0.021 A 
ATOM     13  C   UNL     1      13.413  14.740  65.823  0.00  0.00    +0.092 A 
ATOM     17  C   UNL     1      14.270  13.995  66.636  0.00  0.00    +0.032 A 
ATOM     18  C   UNL     1      15.835  16.229  63.480  0.00  0.00    -0.000 A 
ATOM     19  C   UNL     1      15.644  13.998  66.390  0.00  0.00    +0.005 A 
ATOM     20  C   UNL     1      17.207  16.224  63.232  0.00  0.00    +0.004 A 
BRANCH  13  14
ATOM     14  O   UNL     1      12.079  14.730  66.094  0.00  0.00    -0.317 OA
BRANCH  14  15
ATOM     15  C   UNL     1      11.211  14.939  64.950  0.00  0.00    +0.190 C 
ATOM     16  C   UNL     1       9.740  14.735  65.346  0.00  0.00    +0.040 C 
ENDBRANCH  14  15
ENDBRANCH  13  14
ENDBRANCH   7   8
BRANCH   2   3
ATOM      3  N   UNL     1      19.120  12.323  63.863  0.00  0.00    -0.313 N 
ATOM      4  H   UNL     1      19.128  11.293  63.876  0.00  0.00    +0.184 HD
ATOM      5  H   UNL     1      18.241  12.833  64.031  0.00  0.00    +0.184 HD
ENDBRANCH   2   3
BRANCH  22  23
ATOM     23  C   UNL     1      22.454  17.254  63.088  0.00  0.00    +0.141 C 
ATOM     24  C   UNL     1      22.573  17.496  61.579  0.00  0.00    +0.044 C 
ATOM     25  C   UNL     1      22.213  18.568  63.835  0.00  0.00    +0.044 C 
ENDBRANCH  22  23
TORSDOF 5
