REMARK  Name = 4alv_ligand
REMARK  4 active torsions:
REMARK  status: ('A' for Active; 'I' for Inactive)
REMARK    1  A    between atoms: C12_6  and  C11_7
REMARK    2  A    between atoms: C11_7  and  N2_8
REMARK    3  A    between atoms: N2_8  and  C10_9
REMARK    4  A    between atoms: C7_15  and  C6_16
REMARK                            x       y       z     vdW  Elec       q    Type
REMARK                         _______ _______ _______ _____ _____    ______ ____
ROOT
ATOM      6  C   UNL     1     -21.918  30.807   5.443  0.00  0.00    +0.046 A 
ATOM      7  C   UNL     1     -22.650  30.174   4.449  0.00  0.00    +0.018 A 
ATOM      8  C   UNL     1     -22.571  30.656   3.133  0.00  0.00    +0.012 A 
ATOM      9  C   UNL     1     -21.749  31.732   2.762  0.00  0.00    +0.042 A 
ATOM     26  C   UNL     1     -21.042  32.325   3.758  0.00  0.00    +0.050 A 
ATOM     27 CL   UNL     1     -19.986  33.617   3.444  0.00  0.00    -0.067 Cl
ATOM     28  C   UNL     1     -21.108  31.857   5.052  0.00  0.00    +0.032 A 
ENDROOT
BRANCH   9  10
ATOM     10  C   UNL     1     -21.741  32.150   1.436  0.00  0.00    +0.145 A 
ATOM     11  N   UNL     1     -21.474  31.201   0.429  0.00  0.00    -0.206 N 
ATOM     12  H   UNL     1     -21.243  30.262   0.685  0.00  0.00    +0.247 HD
ATOM     13  C   UNL     1     -21.528  31.554  -0.920  0.00  0.00    +0.255 A 
ATOM     14  O   UNL     1     -21.312  30.807  -1.870  0.00  0.00    -0.399 OA
ATOM     15  C   UNL     1     -21.840  32.834  -1.202  0.00  0.00    +0.200 A 
ATOM     16  O   UNL     1     -21.955  33.436  -2.398  0.00  0.00    -0.248 OA
ATOM     17  C   UNL     1     -22.284  34.712  -2.190  0.00  0.00    +0.129 A 
ATOM     18  C   UNL     1     -22.520  35.736  -3.080  0.00  0.00    +0.031 A 
ATOM     19  C   UNL     1     -22.855  36.989  -2.627  0.00  0.00    -0.002 A 
ATOM     20  C   UNL     1     -22.938  37.152  -1.248  0.00  0.00    +0.001 A 
ATOM     21 BR   UNL     1     -23.385  38.856  -0.440  0.00  0.00    -0.059 Br
ATOM     22  C   UNL     1     -22.698  36.097  -0.364  0.00  0.00    +0.007 A 
ATOM     23  C   UNL     1     -22.371  34.890  -0.835  0.00  0.00    +0.018 A 
ATOM     24  C   UNL     1     -22.084  33.735  -0.185  0.00  0.00    +0.046 A 
ATOM     25  N   UNL     1     -22.043  33.407   1.107  0.00  0.00    -0.313 NA
ENDBRANCH   9  10
BRANCH   6   4
ATOM      4  N   UNL     1     -21.825  30.456   6.738  0.00  0.00    -0.318 N 
ATOM      5  H   UNL     1     -20.869  30.231   7.047  0.00  0.00    +0.178 HD
BRANCH   4   3
ATOM      3  C   UNL     1     -22.838  30.336   7.787  0.00  0.00    +0.132 C 
BRANCH   3   2
ATOM      1  C   UNL     1     -22.656  32.919   7.815  0.00  0.00    +0.056 C 
ATOM      2  C   UNL     1     -23.369  31.670   8.325  0.00  0.00    +0.021 C 
ATOM     29  C   UNL     1     -23.377  31.710   9.851  0.00  0.00    +0.056 C 
ATOM     30  C   UNL     1     -24.190  32.949  10.294  0.00  0.00    +0.129 C 
ATOM     31  N   UNL     1     -24.638  33.764   9.122  0.00  0.00    +0.227 N 
ATOM     32  H   UNL     1     -25.059  34.613   9.464  0.00  0.00    +0.201 HD
ATOM     33  H   UNL     1     -25.322  33.234   8.605  0.00  0.00    +0.201 HD
ATOM     34  C   UNL     1     -23.523  34.125   8.201  0.00  0.00    +0.129 C 
ENDBRANCH   3   2
ENDBRANCH   4   3
ENDBRANCH   6   4
TORSDOF 4
