REMARK  Name = D0A
REMARK  3 active torsions:
REMARK  status: ('A' for Active; 'I' for Inactive)
REMARK    1  A    between atoms: C22_7  and  C24_8
REMARK    2  A    between atoms: C11_9  and  C4_14
REMARK    3  A    between atoms: C12_10  and  N10_20
REMARK                            x       y       z     vdW  Elec       q    Type
REMARK                         _______ _______ _______ _____ _____    ______ ____
ROOT
ATOM      3  N   UNL     1       3.043   7.371   5.215  0.00  0.00    -0.006 NA
ATOM      4  C   UNL     1       3.984   8.032   5.946  0.00  0.00    +0.357 C 
ATOM      5  C   UNL     1       4.213   7.661   7.303  0.00  0.00    +0.201 C 
ATOM      6  C   UNL     1       3.729   6.723   8.280  0.00  0.00    +0.012 C 
ATOM      7  C   UNL     1       4.409   6.980   9.428  0.00  0.00    +0.085 C 
ATOM      8  N   UNL     1       5.291   8.015   9.234  0.00  0.00    -0.185 NA
ATOM      9  C   UNL     1       5.238   8.451   7.943  0.00  0.00    +0.200 C 
ATOM     10  N   UNL     1       5.979   9.390   7.321  0.00  0.00    -0.346 NA
ATOM     11  C   UNL     1       5.669   9.606   6.029  0.00  0.00    +0.344 C 
ATOM     22  N   UNL     1       4.685   8.996   5.353  0.00  0.00    -0.005 NA
ENDROOT
BRANCH   3   2
ATOM      1  C   UNL     1       4.156   7.382   3.021  0.00  0.00    +0.067 A 
ATOM      2  C   UNL     1       3.036   7.165   3.829  0.00  0.00    +0.213 A 
ATOM     23  C   UNL     1       1.896   6.644   3.227  0.00  0.00    +0.200 A 
ATOM     24  F   UNL     1       0.853   6.311   4.032  0.00  0.00    -0.199 F 
ATOM     25  C   UNL     1       1.907   6.388   1.860  0.00  0.00    +0.132 A 
ATOM     26  N   UNL     1       2.982   6.578   1.089  0.00  0.00    -0.240 NA
ATOM     27  C   UNL     1       4.077   7.067   1.675  0.00  0.00    +0.103 A 
ENDBRANCH   3   2
BRANCH  11  12
ATOM     12  C   UNL     1       6.509  10.553   5.245  0.00  0.00    +0.156 A 
ATOM     13  N   UNL     1       7.793  10.754   5.610  0.00  0.00    -0.235 NA
ATOM     14  C   UNL     1       8.557  11.557   4.849  0.00  0.00    +0.153 A 
ATOM     19  C   UNL     1       8.069  12.212   3.729  0.00  0.00    +0.023 A 
ATOM     20  C   UNL     1       6.755  12.011   3.365  0.00  0.00    +0.003 A 
ATOM     21  C   UNL     1       5.959  11.173   4.124  0.00  0.00    +0.026 A 
BRANCH  14  15
ATOM     15  C   UNL     1      10.013  11.586   5.230  0.00  0.00    +0.435 C 
ATOM     16  F   UNL     1      10.206  11.945   6.509  0.00  0.00    -0.164 F 
ATOM     17  F   UNL     1      10.552  10.398   5.101  0.00  0.00    -0.164 F 
ATOM     18  F   UNL     1      10.723  12.434   4.459  0.00  0.00    -0.164 F 
ENDBRANCH  14  15
ENDBRANCH  11  12
TORSDOF 3
