REMARK  Name = 2cgu_ligand
REMARK  7 active torsions:
REMARK  status: ('A' for Active; 'I' for Inactive)
REMARK    1  A    between atoms: C11_2  and  C19_4
REMARK    2  A    between atoms: C19_4  and  O17_5
REMARK    3  A    between atoms: O17_5  and  C15_6
REMARK    4  A    between atoms: N6_13  and  O23_14
REMARK    5  A    between atoms: C16_20  and  O18_21
REMARK    6  A    between atoms: O18_21  and  C20_22
REMARK    7  A    between atoms: C20_22  and  C12_23
REMARK                            x       y       z     vdW  Elec       q    Type
REMARK                         _______ _______ _______ _____ _____    ______ ____
ROOT
ATOM      5  C   UNL     1       0.024  -3.349  20.363  0.00  0.00    +0.090 A 
ATOM      6  C   UNL     1      -0.165  -4.507  19.581  0.00  0.00    +0.016 A 
ATOM      7  C   UNL     1       0.869  -5.054  18.841  0.00  0.00    -0.012 A 
ATOM      8  C   UNL     1       2.108  -4.451  18.904  0.00  0.00    -0.039 A 
ATOM      9  C   UNL     1       3.280  -4.788  18.254  0.00  0.00    -0.039 A 
ATOM     10  C   UNL     1       3.578  -5.839  17.375  0.00  0.00    -0.012 A 
ATOM     11  C   UNL     1       4.872  -5.933  16.848  0.00  0.00    +0.016 A 
ATOM     12  C   UNL     1       5.830  -4.962  17.192  0.00  0.00    +0.090 A 
ATOM     18  C   UNL     1       5.515  -3.925  18.064  0.00  0.00    +0.021 A 
ATOM     19  C   UNL     1       4.243  -3.846  18.605  0.00  0.00    -0.015 A 
ATOM     20  C   UNL     1       3.644  -2.934  19.474  0.00  0.00    +0.092 C 
ATOM     21  N   UNL     1       4.235  -1.837  19.977  0.00  0.00    -0.108 NA
ATOM     24  C   UNL     1       2.318  -3.291  19.670  0.00  0.00    -0.015 A 
ATOM     25  C   UNL     1       1.281  -2.717  20.404  0.00  0.00    +0.021 A 
ENDROOT
BRANCH  21  22
ATOM     22  O   UNL     1       5.557  -1.571  19.683  0.00  0.00    -0.221 OA
ATOM     23  H   UNL     1       5.659  -1.478  18.743  0.00  0.00    +0.301 HD
ENDBRANCH  21  22
BRANCH   5   4
ATOM      4  O   UNL     1      -1.030  -2.842  21.086  0.00  0.00    -0.305 OA
BRANCH   4   3
ATOM      3  C   UNL     1      -2.006  -3.876  21.489  0.00  0.00    +0.279 C 
BRANCH   3   2
ATOM      1  O   UNL     1      -3.368  -1.954  21.920  0.00  0.00    -0.566 OA
ATOM      2  C   UNL     1      -3.378  -3.191  21.622  0.00  0.00    +0.065 C 
ATOM     26  O   UNL     1      -4.411  -3.900  21.415  0.00  0.00    -0.566 OA
ENDBRANCH   3   2
ENDBRANCH   4   3
ENDBRANCH   5   4
BRANCH  12  13
ATOM     13  O   UNL     1       7.102  -4.972  16.700  0.00  0.00    -0.305 OA
BRANCH  13  14
ATOM     14  C   UNL     1       7.367  -5.979  15.807  0.00  0.00    +0.279 C 
BRANCH  14  15
ATOM     15  C   UNL     1       8.782  -6.044  15.176  0.00  0.00    +0.065 C 
ATOM     16  O   UNL     1       8.970  -7.013  14.374  0.00  0.00    -0.566 OA
ATOM     17  O   UNL     1       9.630  -5.136  15.511  0.00  0.00    -0.566 OA
ENDBRANCH  14  15
ENDBRANCH  13  14
ENDBRANCH  12  13
TORSDOF 7
