REMARK  Name = 84X
REMARK  4 active torsions:
REMARK  status: ('A' for Active; 'I' for Inactive)
REMARK    1  A    between atoms: C19_11  and  C26_16
REMARK    2  A    between atoms: C31_19  and  N37_23
REMARK    3  A    between atoms: N37_23  and  C39_24
REMARK    4  A    between atoms: C39_24  and  C42_25
REMARK                            x       y       z     vdW  Elec       q    Type
REMARK                         _______ _______ _______ _____ _____    ______ ____
ROOT
ATOM      1  C   UNL     1      29.247  46.834  46.228  0.00  0.00    +0.164 C 
ATOM      2  O   UNL     1      28.115  46.044  46.303  0.00  0.00    -0.350 OA
ATOM      3  C   UNL     1      28.045  45.080  45.333  0.00  0.00    +0.164 C 
ATOM      4  C   UNL     1      28.213  45.675  43.909  0.00  0.00    +0.124 C 
ATOM      5  N   UNL     1      29.440  46.425  43.776  0.00  0.00    -0.286 N 
ATOM      6  C   UNL     1      30.188  46.505  42.440  0.00  0.00    +0.170 A 
ATOM      7  C   UNL     1      31.242  47.400  42.193  0.00  0.00    +0.194 A 
ATOM      8  O   UNL     1      31.871  48.400  42.986  0.00  0.00    -0.446 OA
ATOM      9  C   UNL     1      32.841  48.978  42.255  0.00  0.00    +0.181 A 
ATOM     10  C   UNL     1      32.852  48.377  41.007  0.00  0.00    +0.063 A 
ATOM     11  C   UNL     1      31.849  47.395  40.986  0.00  0.00    +0.123 A 
ATOM     12  N   UNL     1      31.435  46.501  39.982  0.00  0.00    -0.223 NA
ATOM     13  C   UNL     1      30.429  45.626  40.211  0.00  0.00    +0.164 A 
ATOM     29  N   UNL     1      29.810  45.653  41.452  0.00  0.00    -0.209 NA
ATOM     30  C   UNL     1      29.479  47.441  44.832  0.00  0.00    +0.124 C 
ENDROOT
BRANCH  13  14
ATOM     14  C   UNL     1      29.962  44.712  39.212  0.00  0.00    +0.040 A 
ATOM     15  C   UNL     1      29.019  43.704  39.536  0.00  0.00    +0.045 A 
ATOM     16  C   UNL     1      28.552  42.828  38.549  0.00  0.00    +0.197 A 
ATOM     17  O   UNL     1      27.619  41.823  38.881  0.00  0.00    -0.286 OA
ATOM     18  C   UNL     1      28.998  42.939  37.251  0.00  0.00    +0.058 A 
ATOM     19  C   UNL     1      29.929  43.933  36.898  0.00  0.00    +0.069 A 
ATOM     28  C   UNL     1      30.405  44.815  37.896  0.00  0.00    +0.019 A 
BRANCH  19  20
ATOM     20  N   UNL     1      30.363  43.975  35.455  0.00  0.00    -0.233 NA
BRANCH  20  21
ATOM     21  C   UNL     1      31.020  45.151  34.750  0.00  0.00    +0.139 C 
BRANCH  21  22
ATOM     22  C   UNL     1      30.598  46.537  35.330  0.00  0.00    -0.001 A 
ATOM     23  C   UNL     1      29.274  46.825  35.598  0.00  0.00    -0.003 A 
ATOM     24  C   UNL     1      28.925  48.076  36.130  0.00  0.00    -0.000 A 
ATOM     25  C   UNL     1      29.935  49.045  36.390  0.00  0.00    -0.000 A 
ATOM     26  C   UNL     1      31.276  48.756  36.120  0.00  0.00    -0.000 A 
ATOM     27  C   UNL     1      31.624  47.525  35.598  0.00  0.00    -0.003 A 
ENDBRANCH  21  22
ENDBRANCH  20  21
ENDBRANCH  19  20
ENDBRANCH  13  14
TORSDOF 4
