REMARK  Name = 5OWR
REMARK  8 active torsions:
REMARK  status: ('A' for Active; 'I' for Inactive)
REMARK    1  A    between atoms: C_2  and  C_3
REMARK    2  A    between atoms: N_4  and  C_16
REMARK    3  A    between atoms: C_7  and  C_8
REMARK    4  A    between atoms: C_9  and  N_18
REMARK    5  A    between atoms: C_12  and  C_13
REMARK    6  A    between atoms: C_16  and  C_17
REMARK    7  A    between atoms: C_17  and  O_33
REMARK    8  A    between atoms: N_22  and  C_23
REMARK                            x       y       z     vdW  Elec       q    Type
REMARK                         _______ _______ _______ _____ _____    ______ ____
ROOT
ATOM      1  C   UNL     1      -8.455  37.015  22.060  0.00  0.00    +0.133 A 
ATOM      2  N   UNL     1      -7.322  36.787  22.829  0.00  0.00    -0.232 NA
ATOM      3  C   UNL     1      -6.296  36.577  22.046  0.00  0.00    +0.164 A 
ATOM      4  S   UNL     1      -6.648  36.663  20.368  0.00  0.00    -0.048 S 
ATOM      5  N   UNL     1      -5.073  36.322  22.582  0.00  0.00    -0.279 N 
ATOM      6  H   UNL     1      -5.078  36.169  23.641  0.00  0.00    +0.156 HD
ATOM     24  C   UNL     1      -8.290  36.979  20.649  0.00  0.00    +0.095 A 
ENDROOT
BRANCH   5   7
ATOM      7  C   UNL     1      -3.807  36.225  21.990  0.00  0.00    +0.130 A 
ATOM      8  N   UNL     1      -3.724  36.301  20.642  0.00  0.00    -0.217 NA
ATOM      9  C   UNL     1      -2.504  36.208  20.090  0.00  0.00    +0.130 A 
ATOM     10  N   UNL     1      -1.360  36.043  20.772  0.00  0.00    -0.218 NA
ATOM     11  C   UNL     1      -1.431  35.967  22.109  0.00  0.00    +0.127 A 
ATOM     12  N   UNL     1      -0.255  35.804  22.785  0.00  0.00    -0.313 N 
ATOM     13  C   UNL     1       1.039  36.294  22.317  0.00  0.00    +0.122 C 
ATOM     14  C   UNL     1       2.024  35.149  22.224  0.00  0.00    +0.103 C 
ATOM     15  N   UNL     1       2.151  34.432  23.535  0.00  0.00    -0.297 NA
ATOM     16  C   UNL     1       0.803  33.985  24.007  0.00  0.00    +0.103 C 
ATOM     21  C   UNL     1      -0.147  35.151  24.091  0.00  0.00    +0.122 C 
ATOM     22  C   UNL     1      -2.415  36.292  18.600  0.00  0.00    +0.088 C 
ATOM     23  C   UNL     1      -2.657  36.058  22.768  0.00  0.00    +0.087 A 
BRANCH  15  17
ATOM     17  C   UNL     1       2.898  35.170  24.607  0.00  0.00    +0.112 C 
BRANCH  17  18
ATOM     18  C   UNL     1       4.348  35.405  24.284  0.00  0.00    +0.171 C 
BRANCH  18  19
ATOM     19  O   UNL     1       4.863  34.372  23.455  0.00  0.00    -0.394 OA
ATOM     20  H   UNL     1       4.775  33.450  23.949  0.00  0.00    +0.209 HD
ENDBRANCH  18  19
ENDBRANCH  17  18
ENDBRANCH  15  17
ENDBRANCH   5   7
BRANCH  24  25
ATOM     25  C   UNL     1      -9.282  37.206  19.568  0.00  0.00    +0.257 C 
ATOM     26  O   UNL     1     -10.480  37.164  19.835  0.00  0.00    -0.269 OA
ATOM     27  N   UNL     1      -8.799  37.483  18.327  0.00  0.00    -0.280 N 
ATOM     28  H   UNL     1      -7.743  37.397  18.175  0.00  0.00    +0.155 HD
BRANCH  27  29
ATOM     29  C   UNL     1      -9.590  37.876  17.223  0.00  0.00    +0.055 A 
ATOM     30  C   UNL     1      -9.951  36.943  16.248  0.00  0.00    +0.062 A 
ATOM     31 CL   UNL     1      -9.387  35.309  16.356  0.00  0.00    -0.082 Cl
ATOM     32  C   UNL     1     -10.748  37.311  15.178  0.00  0.00    +0.022 A 
ATOM     33  C   UNL     1     -11.199  38.611  15.086  0.00  0.00    +0.002 A 
ATOM     34  C   UNL     1     -10.863  39.546  16.055  0.00  0.00    +0.005 A 
ATOM     35  C   UNL     1     -10.055  39.199  17.143  0.00  0.00    -0.028 A 
ATOM     36  C   UNL     1      -9.695  40.235  18.179  0.00  0.00    +0.045 C 
ENDBRANCH  27  29
ENDBRANCH  24  25
TORSDOF 6
