REMARK  Name = 3ti1_ligand
REMARK  11 active torsions:
REMARK  status: ('A' for Active; 'I' for Inactive)
REMARK    1  A    between atoms: C4_1  and  C14_13
REMARK    2  A    between atoms: C13_5  and  C3_11
REMARK    3  A    between atoms: C22_10  and  C19_16
REMARK    4  A    between atoms: C12_12  and  C18_15
REMARK    5  A    between atoms: N25_19  and  C37_23
REMARK    6  A    between atoms: C37_23  and  C38_24
REMARK    7  A    between atoms: C38_24  and  N4_25
REMARK    8  A    between atoms: N4_25  and  C39_26
REMARK    9  A    between atoms: N4_25  and  C40_27
REMARK   10  A    between atoms: C39_26  and  C42_29
REMARK   11  A    between atoms: C40_27  and  C41_28
REMARK                            x       y       z     vdW  Elec       q    Type
REMARK                         _______ _______ _______ _____ _____    ______ ____
ROOT
ATOM      1  C   UNL     1     -88.664 -11.737 -83.751  0.00  0.00    +0.145 C 
ATOM      2  C   UNL     1     -89.726 -10.657 -83.508  0.00  0.00    +0.072 A 
ATOM      3  N   UNL     1     -90.791 -10.401 -84.335  0.00  0.00    -0.270 N 
ATOM      4  H   UNL     1     -91.005 -10.899 -85.211  0.00  0.00    +0.231 HD
ATOM      5  C   UNL     1     -91.534  -9.357 -83.792  0.00  0.00    +0.064 A 
ATOM     19  C   UNL     1     -90.925  -8.954 -82.594  0.00  0.00    -0.027 A 
ATOM     20  C   UNL     1     -91.417  -7.853 -81.691  0.00  0.00    +0.074 C 
ATOM     21  C   UNL     1     -89.787  -9.748 -82.405  0.00  0.00    +0.057 A 
ENDROOT
BRANCH   5   6
ATOM      6  C   UNL     1     -92.811  -8.721 -84.322  0.00  0.00    +0.035 C 
ATOM      7  C   UNL     1     -93.205  -8.908 -85.802  0.00  0.00    +0.030 C 
ATOM      8  C   UNL     1     -92.669  -9.702 -86.832  0.00  0.00    +0.205 C 
ATOM      9  O   UNL     1     -91.590 -10.559 -86.752  0.00  0.00    -0.391 OA
ATOM     10  N   UNL     1     -93.416  -9.465 -87.955  0.00  0.00    -0.244 N 
ATOM     11  H   UNL     1     -93.260  -9.889 -88.847  0.00  0.00    +0.223 HD
ATOM     12  C   UNL     1     -94.452  -8.523 -87.667  0.00  0.00    +0.061 A 
ATOM     13  C   UNL     1     -95.498  -7.929 -88.451  0.00  0.00    -0.000 A 
ATOM     14  C   UNL     1     -96.379  -7.005 -87.860  0.00  0.00    +0.005 A 
ATOM     15  C   UNL     1     -96.229  -6.671 -86.511  0.00  0.00    +0.110 A 
ATOM     16  F   UNL     1     -97.035  -5.814 -85.908  0.00  0.00    -0.198 F 
ATOM     17  C   UNL     1     -95.197  -7.255 -85.753  0.00  0.00    +0.007 A 
ATOM     18  C   UNL     1     -94.329  -8.180 -86.351  0.00  0.00    -0.011 A 
ENDBRANCH   5   6
BRANCH  21  22
ATOM     22  C   UNL     1     -88.819  -9.660 -81.200  0.00  0.00    +0.177 C 
ATOM     23  O   UNL     1     -87.578  -9.784 -81.378  0.00  0.00    -0.405 OA
ATOM     24  N   UNL     1     -89.341  -9.450 -79.849  0.00  0.00    -0.287 N 
ATOM     25  H   UNL     1     -90.325  -9.354 -79.701  0.00  0.00    +0.183 HD
BRANCH  24  26
ATOM     26  C   UNL     1     -88.441  -9.382 -78.742  0.00  0.00    +0.184 C 
BRANCH  26  27
ATOM     27  C   UNL     1     -88.638  -8.337 -77.670  0.00  0.00    +0.155 C 
BRANCH  27  28
ATOM     28  N   UNL     1     -88.881  -6.944 -78.059  0.00  0.00    +0.236 N 
ATOM     29  H   UNL     1     -88.967  -6.911 -79.063  0.00  0.00    +0.203 HD
BRANCH  28  30
ATOM     30  C   UNL     1     -87.784  -6.115 -77.680  0.00  0.00    +0.128 C 
ATOM     31  C   UNL     1     -87.664  -5.705 -76.209  0.00  0.00    +0.060 C 
ENDBRANCH  28  30
BRANCH  28  32
ATOM     32  C   UNL     1     -90.105  -6.450 -77.491  0.00  0.00    +0.128 C 
ATOM     33  C   UNL     1     -90.897  -7.320 -76.572  0.00  0.00    +0.060 C 
ENDBRANCH  28  32
ENDBRANCH  27  28
ENDBRANCH  26  27
ENDBRANCH  24  26
ENDBRANCH  21  22
TORSDOF 7
