REMARK  Name = 2qhn_ligand
REMARK  3 active torsions:
REMARK  status: ('A' for Active; 'I' for Inactive)
REMARK    1  A    between atoms: N11_7  and  C18_12
REMARK    2  A    between atoms: C18_12  and  C7_17
REMARK    3  A    between atoms: C23_14  and  C9_15
REMARK                            x       y       z     vdW  Elec       q    Type
REMARK                         _______ _______ _______ _____ _____    ______ ____
ROOT
ATOM      1  C   UNL     1      20.695  -2.302   9.555  0.00  0.00    -0.013 A 
ATOM      2  C   UNL     1      20.393  -1.120   8.792  0.00  0.00    -0.023 A 
ATOM      3  C   UNL     1      19.059  -0.585   8.763  0.00  0.00    -0.000 A 
ATOM      4  C   UNL     1      18.032  -1.225   9.458  0.00  0.00    +0.041 A 
ATOM      5  C   UNL     1      16.667  -0.659   9.454  0.00  0.00    +0.101 A 
ATOM      6  N   UNL     1      16.120   0.559   8.878  0.00  0.00    -0.222 N 
ATOM      7  H   UNL     1      16.649   1.269   8.351  0.00  0.00    +0.250 HD
ATOM      8  N   UNL     1      14.837   0.597   9.146  0.00  0.00    -0.228 NA
ATOM      9  C   UNL     1      14.461  -0.493   9.887  0.00  0.00    +0.024 A 
ATOM     10  C   UNL     1      13.060  -0.762  10.398  0.00  0.00    +0.089 C 
ATOM     11  C   UNL     1      15.661  -1.277  10.107  0.00  0.00    +0.076 A 
ATOM     12  C   UNL     1      15.925  -2.516  10.857  0.00  0.00    +0.207 A 
ATOM     13  O   UNL     1      14.962  -3.013  11.410  0.00  0.00    -0.404 OA
ATOM     14  N   UNL     1      17.222  -3.007  10.941  0.00  0.00    -0.219 N 
ATOM     17  C   UNL     1      18.300  -2.411  10.259  0.00  0.00    +0.089 A 
ATOM     18  C   UNL     1      19.650  -2.943  10.319  0.00  0.00    +0.017 A 
ENDROOT
BRANCH  14  15
ATOM     15  C   UNL     1      17.307  -4.238  11.807  0.00  0.00    +0.175 C 
ATOM     16  C   UNL     1      17.460  -5.450  10.878  0.00  0.00    +0.038 C 
ENDBRANCH  14  15
TORSDOF 1
