REMARK  Name = 5E8X
REMARK  5 active torsions:
REMARK  status: ('A' for Active; 'I' for Inactive)
REMARK    1  A    between atoms: C_4  and  N_34
REMARK    2  A    between atoms: C_5  and  O_32
REMARK    3  A    between atoms: C_6  and  C_7
REMARK    4  A    between atoms: O_32  and  C_33
REMARK    5  A    between atoms: N_34  and  C_35
REMARK                            x       y       z     vdW  Elec       q    Type
REMARK                         _______ _______ _______ _____ _____    ______ ____
ROOT
ATOM      1  O   UNL     1     -15.953 -15.714   7.618  0.00  0.00    -0.328 OA
ATOM      2  C   UNL     1     -15.073 -14.598   7.689  0.00  0.00    +0.174 C 
ATOM      3  N   UNL     1     -13.775 -15.127   8.169  0.00  0.00    -0.307 N 
ATOM      4  C   UNL     1     -12.465 -14.681   7.884  0.00  0.00    +0.053 A 
ATOM      5  C   UNL     1     -12.023 -13.611   7.106  0.00  0.00    +0.026 A 
ATOM      6  C   UNL     1     -10.657 -13.395   6.992  0.00  0.00    +0.002 A 
ATOM      7  C   UNL     1      -9.742 -14.222   7.631  0.00  0.00    +0.001 A 
ATOM      8  C   UNL     1     -10.182 -15.276   8.439  0.00  0.00    +0.010 A 
ATOM      9  C   UNL     1     -11.550 -15.503   8.580  0.00  0.00    +0.008 A 
ATOM     10  C   UNL     1     -12.326 -16.445   9.346  0.00  0.00    +0.015 A 
ATOM     11  C   UNL     1     -11.987 -17.455  10.252  0.00  0.00    -0.008 A 
ATOM     12  C   UNL     1     -10.627 -17.966  10.647  0.00  0.00    +0.141 C 
ATOM     13  N   UNL     1     -10.972 -18.964  11.641  0.00  0.00    -0.307 N 
ATOM     14  H   UNL     1     -10.257 -19.486  12.137  0.00  0.00    +0.149 HD
ATOM     15  C   UNL     1     -12.300 -19.122  11.830  0.00  0.00    +0.245 C 
ATOM     16  O   UNL     1     -12.822 -19.921  12.594  0.00  0.00    -0.270 OA
ATOM     17  C   UNL     1     -12.963 -18.167  10.937  0.00  0.00    +0.052 A 
ATOM     18  C   UNL     1     -14.333 -17.898  10.725  0.00  0.00    +0.022 A 
ATOM     19  C   UNL     1     -15.583 -18.368  11.290  0.00  0.00    +0.009 A 
ATOM     20  C   UNL     1     -15.919 -19.308  12.256  0.00  0.00    +0.010 A 
ATOM     21  C   UNL     1     -17.270 -19.569  12.542  0.00  0.00    +0.001 A 
ATOM     22  C   UNL     1     -18.270 -18.870  11.876  0.00  0.00    +0.002 A 
ATOM     23  C   UNL     1     -17.957 -17.909  10.925  0.00  0.00    +0.026 A 
ATOM     24  C   UNL     1     -16.616 -17.668  10.631  0.00  0.00    +0.052 A 
ATOM     25  N   UNL     1     -16.068 -16.811   9.686  0.00  0.00    -0.312 N 
ATOM     26  C   UNL     1     -14.679 -16.915   9.759  0.00  0.00    +0.077 A 
ATOM     27  C   UNL     1     -13.684 -16.183   9.077  0.00  0.00    +0.077 A 
ATOM     28  C   UNL     1     -14.994 -14.159   6.240  0.00  0.00    +0.069 C 
ATOM     29  C   UNL     1     -15.668 -13.509   8.649  0.00  0.00    +0.187 C 
ATOM     32  C   UNL     1     -17.191 -13.594   8.600  0.00  0.00    +0.091 C 
ATOM     36  C   UNL     1     -17.642 -14.925   9.225  0.00  0.00    +0.076 C 
ATOM     37  C   UNL     1     -16.822 -16.078   8.685  0.00  0.00    +0.224 C 
ENDROOT
BRANCH  32  33
ATOM     33  N   UNL     1     -17.804 -12.442   9.267  0.00  0.00    -0.314 NA
ATOM     34  H   UNL     1     -18.739 -12.634   9.612  0.00  0.00    +0.122 HD
ATOM     35  C   UNL     1     -17.800 -11.196   8.486  0.00  0.00    +0.101 C 
ENDBRANCH  32  33
BRANCH  29  30
ATOM     30  O   UNL     1     -15.294 -13.765  10.026  0.00  0.00    -0.374 OA
ATOM     31  C   UNL     1     -14.128 -13.096  10.488  0.00  0.00    +0.194 C 
ENDBRANCH  29  30
TORSDOF 2
