REMARK  Name = 3LFQ
REMARK  4 active torsions:
REMARK  status: ('A' for Active; 'I' for Inactive)
REMARK    1  A    between atoms: C_1  and  C_10
REMARK    2  A    between atoms: C_19  and  C_20
REMARK    3  A    between atoms: C_20  and  C_22
REMARK    4  A    between atoms: C_22  and  C_23
REMARK                            x       y       z     vdW  Elec       q    Type
REMARK                         _______ _______ _______ _____ _____    ______ ____
ROOT
ATOM      1  C   UNL     1      40.015  -8.624  24.725  0.00  0.00    +0.021 A 
ATOM      8  C   UNL     1      41.135  -9.456  24.921  0.00  0.00    +0.025 A 
ATOM      9  C   UNL     1      41.516 -10.381  23.931  0.00  0.00    +0.045 A 
ATOM     10  C   UNL     1      40.837 -10.424  22.716  0.00  0.00    +0.106 A 
ATOM     11  N   UNL     1      41.472 -11.296  21.925  0.00  0.00    -0.272 N 
ATOM     12  H   UNL     1      41.205 -11.501  20.909  0.00  0.00    +0.189 HD
ATOM     13  N   UNL     1      42.409 -11.833  22.527  0.00  0.00    -0.157 NA
ATOM     14  C   UNL     1      39.755  -9.573  22.496  0.00  0.00    +0.184 A 
ATOM     15  F   UNL     1      39.082  -9.620  21.331  0.00  0.00    -0.200 F 
ATOM     16  C   UNL     1      42.516 -11.337  23.759  0.00  0.00    +0.155 A 
ATOM     17  N   UNL     1      43.543 -11.651  24.564  0.00  0.00    -0.269 N 
ATOM     18  H   UNL     1      44.461 -11.922  24.085  0.00  0.00    +0.156 HD
ATOM     19  C   UNL     1      43.540 -11.661  25.909  0.00  0.00    +0.218 C 
ATOM     20  O   UNL     1      42.584 -11.385  26.629  0.00  0.00    -0.275 OA
ATOM     24  C   UNL     1      39.343  -8.681  23.493  0.00  0.00    +0.168 A 
ATOM     25  F   UNL     1      38.298  -7.874  23.231  0.00  0.00    -0.202 F 
ENDROOT
BRANCH   1   2
ATOM      2  C   UNL     1      39.658  -7.648  25.674  0.00  0.00    -0.015 A 
ATOM      3  C   UNL     1      40.643  -6.799  26.184  0.00  0.00    +0.008 A 
ATOM      4  C   UNL     1      40.330  -5.807  27.117  0.00  0.00    +0.001 A 
ATOM      5  C   UNL     1      39.008  -5.627  27.525  0.00  0.00    +0.000 A 
ATOM      6  C   UNL     1      38.009  -6.448  27.000  0.00  0.00    +0.001 A 
ATOM      7  C   UNL     1      38.329  -7.446  26.074  0.00  0.00    +0.008 A 
ENDBRANCH   1   2
BRANCH  19  21
ATOM     21  C   UNL     1      44.874 -12.075  26.548  0.00  0.00    +0.096 C 
BRANCH  21  22
ATOM     22  C   UNL     1      45.787 -10.865  26.740  0.00  0.00    +0.006 C 
ATOM     23  C   UNL     1      46.797 -11.127  27.856  0.00  0.00    +0.004 C 
ENDBRANCH  21  22
ENDBRANCH  19  21
TORSDOF 3
