REMARK  Name = 4FTA
REMARK  5 active torsions:
REMARK  status: ('A' for Active; 'I' for Inactive)
REMARK    1  A    between atoms: C_2  and  C_3
REMARK    2  A    between atoms: C_8  and  N_9
REMARK    3  A    between atoms: N_12  and  C_13
REMARK    4  A    between atoms: C_22  and  C_23
REMARK    5  A    between atoms: C_23  and  O_25
REMARK                            x       y       z     vdW  Elec       q    Type
REMARK                         _______ _______ _______ _____ _____    ______ ____
ROOT
ATOM      7  N   UNL     1      14.898  -2.443   9.487  0.00  0.00    -0.253 N 
ATOM      8  H   UNL     1      14.445  -1.601   9.146  0.00  0.00    +0.158 HD
ATOM      9  C   UNL     1      16.159  -2.707   9.011  0.00  0.00    +0.309 C 
ATOM     10  N   UNL     1      16.764  -3.809   9.578  0.00  0.00    -0.269 N 
ATOM     11  H   UNL     1      16.207  -4.517  10.044  0.00  0.00    +0.156 HD
ATOM     26  O   UNL     1      16.703  -1.990   8.177  0.00  0.00    -0.252 OA
ENDROOT
BRANCH  10  12
ATOM     12  C   UNL     1      18.148  -4.140   9.561  0.00  0.00    +0.035 A 
ATOM     13  C   UNL     1      18.587  -5.166  10.395  0.00  0.00    +0.024 A 
ATOM     14  C   UNL     1      19.897  -5.545  10.415  0.00  0.00    +0.010 A 
ATOM     15  C   UNL     1      20.854  -4.901   9.592  0.00  0.00    -0.017 A 
ATOM     16  C   UNL     1      22.216  -5.285   9.556  0.00  0.00    +0.023 A 
ATOM     17  C   UNL     1      23.124  -4.631   8.752  0.00  0.00    +0.059 A 
ATOM     22  C   UNL     1      22.687  -3.578   7.943  0.00  0.00    +0.015 A 
ATOM     23  C   UNL     1      21.380  -3.191   7.940  0.00  0.00    +0.009 A 
ATOM     24  C   UNL     1      20.423  -3.838   8.758  0.00  0.00    -0.016 A 
ATOM     25  C   UNL     1      19.053  -3.483   8.754  0.00  0.00    +0.031 A 
BRANCH  17  18
ATOM     18  C   UNL     1      24.576  -4.994   8.776  0.00  0.00    +0.337 C 
ATOM     21  O   UNL     1      25.392  -4.422   8.055  0.00  0.00    -0.245 OA
BRANCH  18  19
ATOM     19  O   UNL     1      24.914  -5.940   9.613  0.00  0.00    -0.477 OA
ATOM     20  H   UNL     1      25.888  -6.134   9.578  0.00  0.00    +0.295 HD
ENDBRANCH  18  19
ENDBRANCH  17  18
ENDBRANCH  10  12
BRANCH   7   6
ATOM      3  C   UNL     1      12.428  -4.383  12.111  0.00  0.00    +0.158 A 
ATOM      4  C   UNL     1      13.663  -4.963  11.712  0.00  0.00    +0.151 A 
ATOM      5  N   UNL     1      14.474  -4.320  10.860  0.00  0.00    -0.236 NA
ATOM      6  C   UNL     1      14.064  -3.131  10.388  0.00  0.00    +0.144 A 
ATOM     27  C   UNL     1      12.831  -2.578  10.766  0.00  0.00    +0.156 A 
ATOM     28  N   UNL     1      12.029  -3.183  11.649  0.00  0.00    -0.240 NA
BRANCH   3   2
ATOM      1  N   UNL     1      10.798  -5.658  13.609  0.00  0.00    -0.189 NA
ATOM      2  C   UNL     1      11.536  -5.093  12.953  0.00  0.00    +0.121 C 
ENDBRANCH   3   2
ENDBRANCH   7   6
TORSDOF 5
