REMARK  Name = 1qpe_ligand
REMARK  5 active torsions:
REMARK  status: ('A' for Active; 'I' for Inactive)
REMARK    1  A    between atoms: C8_7  and  C11_10
REMARK    2  A    between atoms: N10_9  and  C22_16
REMARK    3  A    between atoms: C22_16  and  C23_17
REMARK    4  A    between atoms: C22_16  and  C24_18
REMARK    5  A    between atoms: C22_16  and  C25_19
REMARK                            x       y       z     vdW  Elec       q    Type
REMARK                         _______ _______ _______ _____ _____    ______ ____
ROOT
ATOM      1  C   UNL     1      25.357  37.141  83.359  0.00  0.00    +0.164 A 
ATOM      2  N   UNL     1      26.341  36.657  82.556  0.00  0.00    -0.267 NA
ATOM      3  C   UNL     1      25.999  35.653  81.781  0.00  0.00    +0.160 A 
ATOM      4  N   UNL     1      24.739  35.127  81.788  0.00  0.00    -0.266 NA
ATOM      5  C   UNL     1      23.741  35.534  82.544  0.00  0.00    +0.128 A 
ATOM      6  N   UNL     1      22.458  35.032  82.398  0.00  0.00    -0.313 N 
ATOM      7  H   UNL     1      22.263  34.319  81.681  0.00  0.00    +0.184 HD
ATOM      8  H   UNL     1      21.700  35.372  83.006  0.00  0.00    +0.184 HD
ATOM      9  C   UNL     1      24.041  36.638  83.421  0.00  0.00    +0.088 A 
ATOM     10  C   UNL     1      23.290  37.392  84.318  0.00  0.00    +0.074 A 
ATOM     11  N   UNL     1      24.096  38.365  84.799  0.00  0.00    -0.191 NA
ATOM     19  N   UNL     1      25.355  38.213  84.240  0.00  0.00    -0.177 N 
ENDROOT
BRANCH  10  12
ATOM     12  C   UNL     1      21.941  37.183  84.855  0.00  0.00    -0.007 A 
ATOM     13  C   UNL     1      21.589  35.951  85.452  0.00  0.00    +0.008 A 
ATOM     14  C   UNL     1      20.366  35.762  86.112  0.00  0.00    +0.014 A 
ATOM     15  C   UNL     1      19.467  36.848  86.157  0.00  0.00    +0.040 A 
ATOM     16  C   UNL     1      19.775  38.081  85.595  0.00  0.00    +0.014 A 
ATOM     17 CL   UNL     1      17.860  36.655  86.893  0.00  0.00    -0.071 Cl
ATOM     18  C   UNL     1      21.048  38.286  84.901  0.00  0.00    +0.008 A 
ENDBRANCH  10  12
BRANCH  19  20
ATOM     20  C   UNL     1      26.507  39.139  84.603  0.00  0.00    +0.084 C 
ATOM     21  C   UNL     1      26.957  39.898  83.293  0.00  0.00    +0.048 C 
ATOM     22  C   UNL     1      27.646  38.507  85.445  0.00  0.00    +0.048 C 
ATOM     23  C   UNL     1      26.050  40.219  85.704  0.00  0.00    +0.048 C 
ENDBRANCH  19  20
TORSDOF 2
