REMARK  Name = 4hyu_ligand
REMARK  8 active torsions:
REMARK  status: ('A' for Active; 'I' for Inactive)
REMARK    1  A    between atoms: N1_1  and  C17_17
REMARK    2  A    between atoms: C13_13  and  O24_24
REMARK    3  A    between atoms: C20_20  and  O23_23
REMARK    4  A    between atoms: O24_24  and  C25_25
REMARK    5  A    between atoms: C25_25  and  C26_26
REMARK    6  A    between atoms: C26_26  and  C27_27
REMARK    7  A    between atoms: C27_27  and  S28_28
REMARK    8  A    between atoms: S28_28  and  C29_29
REMARK                            x       y       z     vdW  Elec       q    Type
REMARK                         _______ _______ _______ _____ _____    ______ ____
ROOT
ATOM      1  N   UNL     1      -3.804  -0.814   9.123  0.00  0.00    -0.288 N 
ATOM      2  H   UNL     1      -3.968  -1.206   8.185  0.00  0.00    +0.186 HD
ATOM     11  C   UNL     1      -2.775  -1.306   9.907  0.00  0.00    +0.180 A 
ATOM     12  N   UNL     1      -2.524  -0.727  11.073  0.00  0.00    -0.227 NA
ATOM     13  C   UNL     1      -1.544  -1.147  11.874  0.00  0.00    +0.178 A 
ATOM     14  N   UNL     1      -1.304  -0.530  13.106  0.00  0.00    -0.139 N 
ATOM     15  C   UNL     1      -1.846   0.642  13.606  0.00  0.00    +0.106 A 
ATOM     16  C   UNL     1      -2.741   1.603  13.136  0.00  0.00    +0.004 A 
ATOM     17  C   UNL     1      -3.079   2.692  13.927  0.00  0.00    -0.023 A 
ATOM     18  C   UNL     1      -2.542   2.855  15.211  0.00  0.00    +0.003 A 
ATOM     19  C   UNL     1      -1.638   1.920  15.691  0.00  0.00    +0.096 A 
ATOM     28  C   UNL     1      -1.302   0.814  14.892  0.00  0.00    +0.048 A 
ATOM     29  C   UNL     1      -0.419  -0.315  15.123  0.00  0.00    +0.098 A 
ATOM     30  N   UNL     1      -0.462  -1.072  14.076  0.00  0.00    -0.190 NA
ATOM     31  C   UNL     1      -0.777  -2.247  11.468  0.00  0.00    +0.070 A 
ATOM     32  C   UNL     1      -1.057  -2.824  10.238  0.00  0.00    +0.091 A 
ATOM     33  N   UNL     1      -2.052  -2.343   9.488  0.00  0.00    -0.268 NA
ENDROOT
BRANCH   1   3
ATOM      3  C   UNL     1      -4.663   0.267   9.627  0.00  0.00    +0.098 C 
ATOM      4  C   UNL     1      -5.260   1.064   8.460  0.00  0.00    +0.030 C 
ATOM      5  C   UNL     1      -6.219   2.160   8.964  0.00  0.00    +0.034 C 
ATOM      6  C   UNL     1      -7.303   1.573   9.886  0.00  0.00    +0.115 C 
ATOM      9  C   UNL     1      -6.657   0.814  11.050  0.00  0.00    +0.034 C 
ATOM     10  C   UNL     1      -5.795  -0.321  10.487  0.00  0.00    +0.030 C 
BRANCH   6   7
ATOM      7  O   UNL     1      -8.105   2.620  10.430  0.00  0.00    -0.392 OA
ATOM      8  H   UNL     1      -8.770   2.246  10.997  0.00  0.00    +0.210 HD
ENDBRANCH   6   7
ENDBRANCH   1   3
BRANCH  19  20
ATOM     20  O   UNL     1      -1.070   1.953  16.927  0.00  0.00    -0.316 OA
BRANCH  20  21
ATOM     21  C   UNL     1      -0.794   3.248  17.462  0.00  0.00    +0.197 C 
BRANCH  21  22
ATOM     22  C   UNL     1       0.371   3.093  18.454  0.00  0.00    +0.056 C 
BRANCH  22  23
ATOM     23  C   UNL     1      -0.021   2.097  19.543  0.00  0.00    +0.168 C 
BRANCH  23  24
ATOM     24  S   UNL     1       1.297   1.899  20.785  0.00  0.00    -0.034 S 
ATOM     25  O   UNL     1       1.444   3.106  21.526  0.00  0.00    -0.175 OA
ATOM     26  O   UNL     1       2.454   1.292  20.218  0.00  0.00    -0.175 OA
ATOM     27  C   UNL     1       0.446   0.679  21.827  0.00  0.00    +0.194 C 
ENDBRANCH  23  24
ENDBRANCH  22  23
ENDBRANCH  21  22
ENDBRANCH  20  21
ENDBRANCH  19  20
TORSDOF 7
