REMARK  Name = 4FKU
REMARK  6 active torsions:
REMARK  status: ('A' for Active; 'I' for Inactive)
REMARK    1  A    between atoms: S_1  and  C_2
REMARK    2  A    between atoms: S_1  and  N_3
REMARK    3  A    between atoms: N_6  and  N_9
REMARK    4  A    between atoms: N_6  and  C_11
REMARK    5  A    between atoms: O_15  and  C_21
REMARK    6  A    between atoms: C_20  and  C_21
REMARK                            x       y       z     vdW  Elec       q    Type
REMARK                         _______ _______ _______ _____ _____    ______ ____
ROOT
ATOM     14  N   UNL     1      25.587  29.905  27.280  0.00  0.00    -0.177 NA
ATOM     15  C   UNL     1      26.288  30.985  27.293  0.00  0.00    +0.152 C 
ATOM     16  C   UNL     1      27.464  31.260  26.480  0.00  0.00    +0.029 A 
ATOM     17  C   UNL     1      28.217  30.516  25.570  0.00  0.00    +0.021 A 
ATOM     18  C   UNL     1      29.311  31.102  24.931  0.00  0.00    -0.003 A 
ATOM     23  C   UNL     1      29.633  32.433  25.191  0.00  0.00    +0.011 A 
ATOM     24  C   UNL     1      28.898  33.195  26.084  0.00  0.00    +0.024 A 
ATOM     25  C   UNL     1      27.830  32.594  26.738  0.00  0.00    +0.043 A 
ATOM     26  N   UNL     1      26.962  33.132  27.692  0.00  0.00    -0.280 N 
ATOM     27  H   UNL     1      27.029  34.088  28.025  0.00  0.00    +0.155 HD
ATOM     28  C   UNL     1      26.031  32.225  28.091  0.00  0.00    +0.269 C 
ATOM     29  O   UNL     1      25.142  32.381  28.933  0.00  0.00    -0.268 OA
ENDROOT
BRANCH  14  12
ATOM     12  N   UNL     1      24.487  29.854  28.114  0.00  0.00    -0.237 N 
ATOM     13  H   UNL     1      24.274  30.558  28.813  0.00  0.00    +0.174 HD
BRANCH  12  10
ATOM      7  C   UNL     1      21.771  26.724  27.997  0.00  0.00    +0.105 A 
ATOM      8  C   UNL     1      22.770  26.781  27.040  0.00  0.00    +0.030 A 
ATOM      9  C   UNL     1      23.656  27.840  27.045  0.00  0.00    +0.026 A 
ATOM     10  C   UNL     1      23.571  28.818  28.026  0.00  0.00    +0.048 A 
ATOM     11  C   UNL     1      22.596  28.718  29.005  0.00  0.00    +0.026 A 
ATOM     30  C   UNL     1      21.695  27.679  28.990  0.00  0.00    +0.030 A 
BRANCH   7   1
ATOM      1  S   UNL     1      20.485  25.528  27.888  0.00  0.00    +0.056 S 
ATOM      2  O   UNL     1      19.383  26.147  27.245  0.00  0.00    -0.153 OA
ATOM      3  O   UNL     1      20.251  24.991  29.196  0.00  0.00    -0.153 OA
BRANCH   1   4
ATOM      4  N   UNL     1      20.987  24.316  26.957  0.00  0.00    -0.203 NA
ATOM      5  H   UNL     1      20.436  23.889  26.219  0.00  0.00    +0.144 HD
ATOM      6  H   UNL     1      21.889  23.856  27.020  0.00  0.00    +0.144 HD
ENDBRANCH   1   4
ENDBRANCH   7   1
ENDBRANCH  12  10
ENDBRANCH  14  12
BRANCH  18  19
ATOM     19  C   UNL     1      30.114  30.319  23.938  0.00  0.00    +0.056 C 
ATOM     22  O   UNL     1      31.111  30.823  23.409  0.00  0.00    -0.546 OA
BRANCH  19  20
ATOM     20  O   UNL     1      29.706  29.121  23.718  0.00  0.00    -0.628 OA
ATOM     21  H   UNL     1      30.248  28.617  23.056  0.00  0.00    +0.102 HD
ENDBRANCH  19  20
ENDBRANCH  18  19
TORSDOF 6
