REMARK  Name = 3e3b_ligand
REMARK  7 active torsions:
REMARK  status: ('A' for Active; 'I' for Inactive)
REMARK    1  A    between atoms: C5_5  and  N15_8
REMARK    2  A    between atoms: C27_14  and  C57_25
REMARK    3  A    between atoms: C37_19  and  N44_21
REMARK    4  A    between atoms: N44_21  and  C46_22
REMARK    5  A    between atoms: C46_22  and  C48_23
REMARK    6  A    between atoms: C46_22  and  C51_24
REMARK    7  A    between atoms: C57_25  and  C59_26
REMARK                            x       y       z     vdW  Elec       q    Type
REMARK                         _______ _______ _______ _____ _____    ______ ____
ROOT
ATOM      1  N   UNL     1     -24.595  26.243 -17.469  0.00  0.00    -0.285 NA
ATOM      2  C   UNL     1     -25.045  25.472 -16.493  0.00  0.00    +0.147 A 
ATOM      3  C   UNL     1     -25.933  24.447 -16.837  0.00  0.00    +0.186 A 
ATOM     13  N   UNL     1     -26.306  24.239 -18.077  0.00  0.00    -0.216 NA
ATOM     14  C   UNL     1     -25.832  25.029 -19.046  0.00  0.00    +0.198 A 
ATOM     15  N   UNL     1     -26.230  24.788 -20.301  0.00  0.00    -0.139 N 
ATOM     16  N   UNL     1     -26.136  25.614 -21.234  0.00  0.00    -0.193 NA
ATOM     17  C   UNL     1     -26.881  25.181 -22.289  0.00  0.00    +0.091 A 
ATOM     18  C   UNL     1     -27.368  23.863 -22.018  0.00  0.00    +0.005 A 
ATOM     19  C   UNL     1     -28.120  22.921 -22.750  0.00  0.00    -0.011 A 
ATOM     20  C   UNL     1     -28.373  21.704 -22.069  0.00  0.00    -0.002 A 
ATOM     21  C   UNL     1     -27.898  21.454 -20.744  0.00  0.00    +0.032 A 
ATOM     27  C   UNL     1     -27.155  22.436 -20.046  0.00  0.00    +0.029 A 
ATOM     28  C   UNL     1     -26.893  23.661 -20.701  0.00  0.00    +0.101 A 
ATOM     29  C   UNL     1     -24.952  26.067 -18.736  0.00  0.00    +0.147 A 
ENDROOT
BRANCH   3   4
ATOM      4  N   UNL     1     -26.409  23.653 -15.948  0.00  0.00    -0.229 N 
ATOM      5  C   UNL     1     -26.155  23.590 -14.526  0.00  0.00    +0.112 A 
ATOM      6  C   UNL     1     -26.594  22.416 -13.915  0.00  0.00    -0.048 A 
ATOM      7  C   UNL     1     -27.373  21.756 -14.895  0.00  0.00    -0.052 A 
ATOM     12  C   UNL     1     -27.180  22.452 -16.095  0.00  0.00    +0.102 A 
BRANCH   7   8
ATOM      8  C   UNL     1     -28.270  20.561 -14.689  0.00  0.00    +0.118 C 
BRANCH   8   9
ATOM      9  C   UNL     1     -27.843  19.590 -13.594  0.00  0.00    +0.041 C 
ATOM     10  O   UNL     1     -26.733  19.677 -13.054  0.00  0.00    -0.567 OA
ATOM     11  O   UNL     1     -28.662  18.721 -13.291  0.00  0.00    -0.567 OA
ENDBRANCH   8   9
ENDBRANCH   7   8
ENDBRANCH   3   4
BRANCH  21  22
ATOM     22  N   UNL     1     -28.184  20.222 -20.188  0.00  0.00    -0.322 N 
ATOM     23  H   UNL     1     -28.071  19.413 -20.816  0.00  0.00    +0.176 HD
BRANCH  22  24
ATOM     24  C   UNL     1     -28.628  19.908 -18.820  0.00  0.00    +0.084 C 
ATOM     25  C   UNL     1     -29.662  20.883 -18.342  0.00  0.00    +0.032 C 
ATOM     26  C   UNL     1     -29.395  18.608 -18.834  0.00  0.00    +0.032 C 
ENDBRANCH  22  24
ENDBRANCH  21  22
TORSDOF 5
