REMARK  Name = EB9
REMARK  4 active torsions:
REMARK  status: ('A' for Active; 'I' for Inactive)
REMARK    1  A    between atoms: CAN_2  and  NAK_3
REMARK    2  A    between atoms: CAC_15  and  NAP_16
REMARK    3  A    between atoms: NAP_16  and  SAQ_17
REMARK    4  A    between atoms: SAQ_17  and  CAR_20
REMARK                            x       y       z     vdW  Elec       q    Type
REMARK                         _______ _______ _______ _____ _____    ______ ____
ROOT
ATOM      3  N   UNL     1     -12.734   5.397   1.090  0.00  0.00    -0.295 N 
ATOM      4  C   UNL     1     -11.767   6.249   0.693  0.00  0.00    +0.063 A 
ATOM      5  C   UNL     1     -10.496   6.450   1.081  0.00  0.00    +0.019 A 
ATOM      6  C   UNL     1      -9.708   7.411   0.417  0.00  0.00    +0.020 A 
ATOM      7  C   UNL     1     -10.221   8.139  -0.668  0.00  0.00    +0.091 A 
ATOM      8  C   UNL     1     -11.552   7.887  -1.040  0.00  0.00    +0.018 A 
ATOM      9  C   UNL     1     -12.208   8.550  -2.088  0.00  0.00    +0.001 A 
ATOM     10  C   UNL     1     -13.533   8.198  -2.354  0.00  0.00    +0.000 A 
ATOM     11  C   UNL     1     -14.157   7.217  -1.576  0.00  0.00    +0.005 A 
ATOM     12  C   UNL     1     -13.512   6.620  -0.565  0.00  0.00    +0.058 A 
ATOM     23  C   UNL     1     -12.245   6.964  -0.333  0.00  0.00    +0.022 A 
ATOM     24  C   UNL     1     -13.801   5.632   0.316  0.00  0.00    +0.261 A 
ATOM     25  O   UNL     1     -14.844   4.951   0.361  0.00  0.00    -0.267 OA
ENDROOT
BRANCH   3   2
ATOM      1  C   UNL     1     -11.920   3.100   1.482  0.00  0.00    +0.027 C 
ATOM      2  C   UNL     1     -12.663   4.270   2.113  0.00  0.00    +0.109 C 
ENDBRANCH   3   2
BRANCH   7  13
ATOM     13  N   UNL     1      -9.531   9.116  -1.317  0.00  0.00    -0.097 NA
BRANCH  13  14
ATOM     14  S   UNL     1      -7.973   8.833  -2.018  0.00  0.00    +0.093 S 
ATOM     15  O   UNL     1      -7.028   8.195  -1.023  0.00  0.00    -0.148 OA
ATOM     16  O   UNL     1      -7.424  10.152  -2.542  0.00  0.00    -0.148 OA
BRANCH  14  17
ATOM     17  C   UNL     1      -8.371   7.745  -3.323  0.00  0.00    +0.127 A 
ATOM     18  C   UNL     1      -7.861   6.450  -3.365  0.00  0.00    +0.020 A 
ATOM     19  C   UNL     1      -8.222   5.624  -4.427  0.00  0.00    +0.001 A 
ATOM     20  C   UNL     1      -9.120   6.056  -5.413  0.00  0.00    +0.000 A 
ATOM     21  C   UNL     1      -9.650   7.339  -5.367  0.00  0.00    +0.001 A 
ATOM     22  C   UNL     1      -9.279   8.180  -4.316  0.00  0.00    +0.020 A 
ENDBRANCH  14  17
ENDBRANCH  13  14
ENDBRANCH   7  13
TORSDOF 4
