REMARK  Name = A9B
REMARK  2 active torsions:
REMARK  status: ('A' for Active; 'I' for Inactive)
REMARK    1  A    between atoms: C11_1  and  C10_2
REMARK    2  A    between atoms: C7_5  and  C6_8
REMARK                            x       y       z     vdW  Elec       q    Type
REMARK                         _______ _______ _______ _____ _____    ______ ____
ROOT
ATOM      2  C   UNL     1      -3.460  30.220 -25.244  0.00  0.00    +0.201 A 
ATOM      3  O   UNL     1      -2.807  29.183 -24.617  0.00  0.00    -0.449 OA
ATOM      4  C   UNL     1      -1.787  29.742 -23.895  0.00  0.00    +0.145 A 
ATOM     12  C   UNL     1      -1.815  31.088 -24.080  0.00  0.00    +0.041 A 
ATOM     13  C   UNL     1      -2.867  31.393 -24.929  0.00  0.00    +0.045 A 
ENDROOT
BRANCH   4   5
ATOM      5  C   UNL     1      -0.947  28.832 -23.129  0.00  0.00    +0.035 A 
ATOM      6  C   UNL     1       0.112  29.316 -22.364  0.00  0.00    +0.004 A 
ATOM      7  C   UNL     1       0.908  28.456 -21.634  0.00  0.00    +0.012 A 
ATOM      8  C   UNL     1       0.641  27.099 -21.667  0.00  0.00    +0.058 A 
ATOM      9 CL   UNL     1       1.643  26.012 -20.748  0.00  0.00    -0.082 Cl
ATOM     10  C   UNL     1      -0.403  26.595 -22.413  0.00  0.00    +0.012 A 
ATOM     11  C   UNL     1      -1.195  27.459 -23.142  0.00  0.00    +0.004 A 
ENDBRANCH   4   5
BRANCH   2   1
ATOM      1  C   UNL     1      -4.599  29.823 -26.076  0.00  0.00    +0.317 C 
ATOM     14  O   UNL     1      -4.881  28.638 -26.255  0.00  0.00    -0.264 OA
ATOM     15  N   UNL     1      -5.311  30.821 -26.623  0.00  0.00    -0.086 NA
ATOM     16  N   UNL     1      -5.086  32.170 -26.318  0.00  0.00    +0.007 NA
ENDBRANCH   2   1
TORSDOF 2
