REMARK  Name = 4uwk_ligand
REMARK  5 active torsions:
REMARK  status: ('A' for Active; 'I' for Inactive)
REMARK    1  A    between atoms: thiop_1  and  C18_18
REMARK    2  A    between atoms: N4_4  and  C28_28
REMARK    3  A    between atoms: C12_12  and  C29_29
REMARK    4  A    between atoms: C16_16  and  C30_30
REMARK    5  A    between atoms: C23_23  and  C28_28
REMARK                            x       y       z     vdW  Elec       q    Type
REMARK                         _______ _______ _______ _____ _____    ______ ____
ROOT
ATOM      1  C   UNL     1      20.673 -18.338 -25.476  0.00  0.00    +0.211 C 
ATOM      6  C   UNL     1      20.101 -19.629 -24.865  0.00  0.00    +0.064 C 
ATOM      7  C   UNL     1      18.576 -19.555 -24.755  0.00  0.00    +0.145 C 
ATOM      8  N   UNL     1      18.045 -18.213 -24.392  0.00  0.00    -0.217 N 
ATOM      9  C   UNL     1      16.650 -18.122 -24.068  0.00  0.00    +0.252 C 
ATOM     10  O   UNL     1      16.033 -19.172 -24.122  0.00  0.00    -0.365 OA
ATOM     11  C   UNL     1      16.129 -16.823 -23.697  0.00  0.00    +0.505 C 
ATOM     12  C   UNL     1      16.936 -15.682 -23.689  0.00  0.00    +0.444 C 
ATOM     13  N   UNL     1      16.510 -14.457 -23.418  0.00  0.00    -0.123 N 
ATOM     14  C   UNL     1      17.478 -13.401 -22.979  0.00  0.00    +0.279 C 
ATOM     15  C   UNL     1      18.445 -13.868 -21.906  0.00  0.00    +0.080 C 
ATOM     16  C   UNL     1      16.897 -12.077 -22.494  0.00  0.00    +0.227 C 
ATOM     17  O   UNL     1      15.555 -11.783 -22.919  0.00  0.00    -0.368 OA
ATOM     18  C   UNL     1      14.677 -12.903 -22.771  0.00  0.00    +0.227 C 
ATOM     19  C   UNL     1      15.087 -14.059 -23.648  0.00  0.00    +0.279 C 
ATOM     20  C   UNL     1      14.764 -13.819 -25.117  0.00  0.00    +0.080 C 
ATOM     21  N   UNL     1      18.281 -15.837 -24.150  0.00  0.00    -0.106 N 
ATOM     22  H   UNL     1      18.871 -15.000 -24.264  0.00  0.00    +0.319 HD
ATOM     23  C   UNL     1      18.802 -17.055 -24.442  0.00  0.00    +0.269 C 
ATOM     24  N   UNL     1      20.222 -17.136 -24.756  0.00  0.00    -0.266 N 
ENDROOT
BRANCH   1   2
ATOM      2  C   UNL     1      20.451 -18.200 -26.970  0.00  0.00    +0.415 C 
ATOM      3  F   UNL     1      21.306 -17.337 -27.503  0.00  0.00    -0.168 F 
ATOM      4  F   UNL     1      20.621 -19.354 -27.608  0.00  0.00    -0.168 F 
ATOM      5  F   UNL     1      19.236 -17.765 -27.281  0.00  0.00    -0.168 F 
ENDBRANCH   1   2
BRANCH  24  25
ATOM     25  C   UNL     1      21.036 -16.991 -23.506  0.00  0.00    +0.228 C 
BRANCH  25  26
ATOM     26  C   UNL     1      21.461 -15.651 -23.279  0.00  0.00    +0.037 A 
ATOM     27  C   UNL     1      21.341 -14.652 -24.183  0.00  0.00    -0.050 A 
ATOM     28  C   UNL     1      21.815 -13.425 -23.677  0.00  0.00    -0.040 A 
ATOM     29  C   UNL     1      22.295 -13.570 -22.421  0.00  0.00    +0.080 A 
ATOM     30 CL   UNL     1      22.949 -12.277 -21.571  0.00  0.00    -0.072 Cl
ATOM     31  S   UNL     1      22.145 -15.198 -21.822  0.00  0.00    -0.029 S 
ENDBRANCH  25  26
ENDBRANCH  24  25
TORSDOF 3
