REMARK  Name = E0C
REMARK  5 active torsions:
REMARK  status: ('A' for Active; 'I' for Inactive)
REMARK    1  A    between atoms: CAN_2  and  NAA_3
REMARK    2  A    between atoms: CAH_15  and  NAP_16
REMARK    3  A    between atoms: NAP_16  and  SAQ_17
REMARK    4  A    between atoms: SAQ_17  and  CAT_20
REMARK    5  A    between atoms: CAY_26  and  OBA_27
REMARK                            x       y       z     vdW  Elec       q    Type
REMARK                         _______ _______ _______ _____ _____    ______ ____
ROOT
ATOM      3  N   UNL     1      -9.027   7.863   3.322  0.00  0.00    -0.295 N 
ATOM      4  C   UNL     1      -7.988   8.713   3.317  0.00  0.00    +0.063 A 
ATOM      5  C   UNL     1      -6.915   8.879   4.105  0.00  0.00    +0.019 A 
ATOM      6  C   UNL     1      -5.986   9.896   3.813  0.00  0.00    +0.020 A 
ATOM      7  C   UNL     1      -6.170  10.731   2.699  0.00  0.00    +0.091 A 
ATOM     21  C   UNL     1      -7.313  10.518   1.910  0.00  0.00    +0.018 A 
ATOM     22  C   UNL     1      -7.645  11.268   0.777  0.00  0.00    +0.001 A 
ATOM     23  C   UNL     1      -8.814  10.943   0.078  0.00  0.00    +0.000 A 
ATOM     24  C   UNL     1      -9.625   9.890   0.521  0.00  0.00    +0.005 A 
ATOM     25  C   UNL     1      -9.272   9.205   1.610  0.00  0.00    +0.058 A 
ATOM     26  C   UNL     1      -8.155   9.526   2.266  0.00  0.00    +0.022 A 
ATOM     27  C   UNL     1      -9.807   8.175   2.275  0.00  0.00    +0.261 A 
ATOM     28  O   UNL     1     -10.865   7.611   1.957  0.00  0.00    -0.267 OA
ENDROOT
BRANCH   3   2
ATOM      1  C   UNL     1      -8.649   5.515   3.743  0.00  0.00    +0.027 C 
ATOM      2  C   UNL     1      -9.273   6.753   4.309  0.00  0.00    +0.109 C 
ENDBRANCH   3   2
BRANCH   7   8
ATOM      8  N   UNL     1      -5.311  11.736   2.378  0.00  0.00    -0.097 NA
BRANCH   8   9
ATOM      9  S   UNL     1      -3.801  11.339   1.712  0.00  0.00    +0.096 S 
ATOM     10  O   UNL     1      -3.166  10.246   2.575  0.00  0.00    -0.148 OA
ATOM     11  O   UNL     1      -2.916  12.577   1.617  0.00  0.00    -0.148 OA
BRANCH   9  12
ATOM     12  C   UNL     1      -4.005  10.653   0.083  0.00  0.00    +0.161 A 
ATOM     13  C   UNL     1      -3.713   9.299  -0.113  0.00  0.00    +0.030 A 
ATOM     14  C   UNL     1      -3.844   8.716  -1.366  0.00  0.00    +0.036 A 
ATOM     15 BR   UNL     1      -3.461   6.868  -1.581  0.00  0.00    -0.049 Br
ATOM     16  C   UNL     1      -4.268   9.489  -2.436  0.00  0.00    +0.010 A 
ATOM     17  C   UNL     1      -4.552  10.849  -2.258  0.00  0.00    +0.039 A 
ATOM     18  C   UNL     1      -4.420  11.449  -0.997  0.00  0.00    +0.158 A 
BRANCH  18  19
ATOM     19  O   UNL     1      -4.684  12.781  -0.709  0.00  0.00    -0.470 OA
ATOM     20  C   UNL     1      -5.307  13.598  -1.725  0.00  0.00    +0.253 C 
ENDBRANCH  18  19
ENDBRANCH   9  12
ENDBRANCH   8   9
ENDBRANCH   7   8
TORSDOF 5
