REMARK  Name = 2wxv_ligand
REMARK  6 active torsions:
REMARK  status: ('A' for Active; 'I' for Inactive)
REMARK    1  A    between atoms: C5_5  and  C9_9
REMARK    2  A    between atoms: N7_7  and  C8_8
REMARK    3  A    between atoms: N17_17  and  C19_19
REMARK    4  A    between atoms: N18_18  and  C29_29
REMARK    5  A    between atoms: N22_22  and  S25_25
REMARK    6  A    between atoms: S25_25  and  C26_26
REMARK                            x       y       z     vdW  Elec       q    Type
REMARK                         _______ _______ _______ _____ _____    ______ ____
ROOT
ATOM      1  C   UNL     1     -34.874 176.846  87.274  0.00  0.00    +0.082 C 
ATOM      2  C   UNL     1     -35.602 175.536  87.629  0.00  0.00    +0.002 A 
ATOM      3  C   UNL     1     -36.700 175.398  88.466  0.00  0.00    +0.091 A 
ATOM      4  N   UNL     1     -37.313 174.181  88.757  0.00  0.00    -0.269 NA
ATOM      5  C   UNL     1     -36.821 173.091  88.203  0.00  0.00    +0.176 A 
ATOM      6  N   UNL     1     -37.403 171.908  88.480  0.00  0.00    -0.291 N 
ATOM      7  H   UNL     1     -38.204 171.925  89.111  0.00  0.00    +0.184 HD
ATOM     18  N   UNL     1     -35.698 173.059  87.314  0.00  0.00    -0.264 NA
ATOM     19  C   UNL     1     -35.141 174.195  87.054  0.00  0.00    +0.075 A 
ATOM     20  C   UNL     1     -33.976 174.222  86.140  0.00  0.00    +0.114 A 
ATOM     21  N   UNL     1     -33.256 173.191  85.569  0.00  0.00    -0.198 N 
ATOM     22  C   UNL     1     -33.489 171.757  85.744  0.00  0.00    +0.240 C 
ATOM     23  N   UNL     1     -32.256 173.619  84.785  0.00  0.00    -0.184 NA
ATOM     24  C   UNL     1     -32.293 174.914  84.817  0.00  0.00    +0.124 A 
ATOM     30  C   UNL     1     -33.377 175.413  85.670  0.00  0.00    +0.011 A 
ATOM     31  C   UNL     1     -33.889 176.791  86.068  0.00  0.00    +0.069 C 
ENDROOT
BRANCH   6   8
ATOM      8  C   UNL     1     -37.000 170.610  87.967  0.00  0.00    +0.099 C 
ATOM      9  C   UNL     1     -37.722 169.500  88.820  0.00  0.00    +0.048 C 
ATOM     10  C   UNL     1     -37.553 168.089  88.197  0.00  0.00    +0.127 C 
ATOM     11  N   UNL     1     -37.970 168.061  86.758  0.00  0.00    -0.238 NA
ATOM     16  C   UNL     1     -38.232 169.356  86.068  0.00  0.00    +0.127 C 
ATOM     17  C   UNL     1     -37.199 170.415  86.418  0.00  0.00    +0.048 C 
BRANCH  11  12
ATOM     12  S   UNL     1     -38.157 166.664  85.945  0.00  0.00    +0.039 S 
ATOM     13  O   UNL     1     -38.885 166.934  84.727  0.00  0.00    -0.156 OA
ATOM     14  O   UNL     1     -38.639 165.637  86.838  0.00  0.00    -0.156 OA
ATOM     15  C   UNL     1     -36.500 166.220  85.518  0.00  0.00    +0.218 C 
ENDBRANCH  11  12
ENDBRANCH   6   8
BRANCH  24  25
ATOM     25  C   UNL     1     -31.310 175.733  84.044  0.00  0.00    +0.210 C 
ATOM     26  N   UNL     1     -30.449 174.956  83.356  0.00  0.00    -0.289 N 
ATOM     27  H   UNL     1     -30.558 173.945  83.441  0.00  0.00    +0.184 HD
ATOM     28  C   UNL     1     -29.390 175.438  82.512  0.00  0.00    +0.164 C 
ATOM     29  O   UNL     1     -31.320 176.964  84.055  0.00  0.00    -0.387 OA
ENDBRANCH  24  25
TORSDOF 3
