REMARK  Name = 4ksp_ligand
REMARK  8 active torsions:
REMARK  status: ('A' for Active; 'I' for Inactive)
REMARK    1  A    between atoms: C13_7  and  C27_27
REMARK    2  A    between atoms: C15_8  and  N30_30
REMARK    3  A    between atoms: C17_9  and  O34_34
REMARK    4  A    between atoms: C21_11  and  C25_26
REMARK    5  A    between atoms: C22_12  and  C26_14
REMARK    6  A    between atoms: C26_14  and  C12_20
REMARK    7  A    between atoms: C1_15  and  C11_19
REMARK    8  A    between atoms: C16_22  and  O34_34
REMARK                            x       y       z     vdW  Elec       q    Type
REMARK                         _______ _______ _______ _____ _____    ______ ____
ROOT
ATOM     11  C   UNL     1      47.473 -35.416   8.509  0.00  0.00    +0.092 A 
ATOM     12  C   UNL     1      47.492 -34.633   9.638  0.00  0.00    +0.140 A 
ATOM     13  F   UNL     1      48.344 -33.592   9.655  0.00  0.00    -0.202 F 
ATOM     14  C   UNL     1      46.663 -34.901  10.710  0.00  0.00    +0.005 A 
ATOM     15  C   UNL     1      45.802 -35.975  10.658  0.00  0.00    -0.003 A 
ATOM     16  C   UNL     1      45.780 -36.759   9.530  0.00  0.00    +0.101 A 
ATOM     36  C   UNL     1      46.617 -36.496   8.458  0.00  0.00    +0.033 A 
ENDROOT
BRANCH  11   9
ATOM      7  C   UNL     1      47.962 -34.861   6.171  0.00  0.00    +0.215 C 
ATOM      8  O   UNL     1      47.026 -35.396   5.599  0.00  0.00    -0.382 OA
ATOM      9  N   UNL     1      48.362 -35.073   7.469  0.00  0.00    -0.234 N 
ATOM     10  H   UNL     1      49.333 -34.979   7.687  0.00  0.00    +0.225 HD
BRANCH   7   6
ATOM      6  C   UNL     1      48.813 -33.829   5.522  0.00  0.00    +0.216 C 
BRANCH   6   4
ATOM      1  C   UNL     1      49.976 -34.265   1.451  0.00  0.00    +0.043 A 
ATOM      2  C   UNL     1      50.763 -34.843   2.430  0.00  0.00    +0.031 A 
ATOM      3  C   UNL     1      50.392 -34.706   3.751  0.00  0.00    +0.051 A 
ATOM      4  C   UNL     1      49.237 -34.016   4.094  0.00  0.00    +0.005 A 
ATOM      5  C   UNL     1      48.466 -33.439   3.107  0.00  0.00    +0.050 A 
ATOM     37  C   UNL     1      48.830 -33.563   1.786  0.00  0.00    +0.041 A 
BRANCH  37  38
ATOM     38  C   UNL     1      47.960 -32.914   0.763  0.00  0.00    +0.375 C 
ATOM     39  F   UNL     1      47.254 -31.887   1.306  0.00  0.00    -0.220 F 
ATOM     40  F   UNL     1      46.980 -33.692   0.242  0.00  0.00    -0.220 F 
ATOM     41  F   UNL     1      48.677 -32.432  -0.293  0.00  0.00    -0.220 F 
ENDBRANCH  37  38
ENDBRANCH   6   4
ENDBRANCH   7   6
ENDBRANCH  11   9
BRANCH  16  17
ATOM     17  O   UNL     1      44.950 -37.865   9.461  0.00  0.00    -0.260 OA
BRANCH  17  18
ATOM     18  C   UNL     1      43.582 -37.885   9.706  0.00  0.00    +0.141 A 
ATOM     19  C   UNL     1      43.094 -39.116  10.087  0.00  0.00    +0.136 A 
ATOM     20  C   UNL     1      41.741 -39.200  10.328  0.00  0.00    +0.076 A 
ATOM     21  S   UNL     1      40.840 -40.572  10.825  0.00  0.00    +0.035 S 
ATOM     22  C   UNL     1      39.386 -39.652  10.817  0.00  0.00    +0.210 A 
ATOM     23  N   UNL     1      38.176 -40.253  11.164  0.00  0.00    -0.191 N 
ATOM     24  H   UNL     1      37.364 -39.670  11.198  0.00  0.00    +0.244 HD
ATOM     25  C   UNL     1      38.012 -41.611  11.468  0.00  0.00    +0.220 C 
ATOM     26  O   UNL     1      38.771 -42.551  11.257  0.00  0.00    -0.379 OA
ATOM     30  N   UNL     1      39.549 -38.390  10.469  0.00  0.00    -0.314 NA
ATOM     31  C   UNL     1      40.873 -38.125  10.190  0.00  0.00    +0.009 A 
ATOM     32  C   UNL     1      41.390 -36.903   9.794  0.00  0.00    -0.001 A 
ATOM     35  C   UNL     1      42.748 -36.799   9.557  0.00  0.00    +0.024 A 
BRANCH  25  27
ATOM     27  C   UNL     1      36.729 -41.920  12.132  0.00  0.00    +0.112 C 
ATOM     28  C   UNL     1      35.809 -42.912  11.481  0.00  0.00    +0.029 C 
ATOM     29  C   UNL     1      35.446 -41.457  11.505  0.00  0.00    +0.029 C 
ENDBRANCH  25  27
BRANCH  19  33
ATOM     33  C   UNL     1      43.939 -40.269  10.242  0.00  0.00    +0.084 C 
ATOM     34  N   UNL     1      44.588 -41.234  10.322  0.00  0.00    -0.345 NA
ENDBRANCH  19  33
ENDBRANCH  17  18
ENDBRANCH  16  17
TORSDOF 8
