REMARK  Name = 5ICP
REMARK  3 active torsions:
REMARK  status: ('A' for Active; 'I' for Inactive)
REMARK    1  A    between atoms: C_4  and  C_7
REMARK    2  A    between atoms: C_11  and  C_16
REMARK    3  A    between atoms: C_13  and  C_22
REMARK                            x       y       z     vdW  Elec       q    Type
REMARK                         _______ _______ _______ _____ _____    ______ ____
ROOT
ATOM      6  C   UNL     1       4.000  12.302  10.772  0.00  0.00    +0.107 C 
ATOM      7  C   UNL     1       2.556  12.767  11.048  0.00  0.00    +0.029 C 
ATOM      8  C   UNL     1       2.762  14.297  11.199  0.00  0.00    +0.021 C 
ATOM      9  C   UNL     1       4.103  14.364  11.977  0.00  0.00    +0.109 C 
ATOM     10  N   UNL     1       4.872  13.151  11.621  0.00  0.00    -0.289 N 
ATOM     11  C   UNL     1       6.143  12.910  12.038  0.00  0.00    +0.274 C 
ATOM     12  O   UNL     1       6.709  13.714  12.750  0.00  0.00    -0.268 OA
ENDROOT
BRANCH  11  13
ATOM     13  C   UNL     1       6.844  11.677  11.635  0.00  0.00    +0.186 A 
ATOM     14  S   UNL     1       7.759  10.614  12.697  0.00  0.00    -0.042 S 
ATOM     15  C   UNL     1       8.106   9.562  11.322  0.00  0.00    +0.125 A 
ATOM     16  C   UNL     1       8.733   8.418  10.959  0.00  0.00    +0.148 A 
ATOM     17  N   UNL     1       8.547   8.224   9.641  0.00  0.00    -0.238 NA
ATOM     18  C   UNL     1       7.847   9.211   9.158  0.00  0.00    +0.129 A 
ATOM     19  C   UNL     1       7.421   9.378   7.718  0.00  0.00    +0.088 C 
ATOM     20  N   UNL     1       7.543  10.069  10.188  0.00  0.00    -0.209 N 
ATOM     21  N   UNL     1       6.869  11.244  10.426  0.00  0.00    -0.152 NA
ENDBRANCH  11  13
BRANCH   6   5
ATOM      1  C   UNL     1       4.759  12.454   6.531  0.00  0.00    +0.041 A 
ATOM      2 CL   UNL     1       5.046  12.481   4.816  0.00  0.00    -0.084 Cl
ATOM      3  C   UNL     1       4.024  11.417   7.091  0.00  0.00    +0.020 A 
ATOM      4  C   UNL     1       3.793  11.394   8.458  0.00  0.00    +0.007 A 
ATOM      5  C   UNL     1       4.286  12.398   9.285  0.00  0.00    -0.027 A 
ATOM     22  C   UNL     1       5.020  13.441   8.720  0.00  0.00    +0.007 A 
ATOM     23  C   UNL     1       5.254  13.462   7.352  0.00  0.00    +0.020 A 
ENDBRANCH   6   5
TORSDOF 2
