REMARK  Name = 5VEE
REMARK  6 active torsions:
REMARK  status: ('A' for Active; 'I' for Inactive)
REMARK    1  A    between atoms: C_8  and  C_9
REMARK    2  A    between atoms: C_15  and  N_29
REMARK    3  A    between atoms: C_18  and  O_33
REMARK    4  A    between atoms: C_21  and  N_32
REMARK    5  A    between atoms: C_24  and  C_25
REMARK    6  A    between atoms: C_24  and  N_30
REMARK                            x       y       z     vdW  Elec       q    Type
REMARK                         _______ _______ _______ _____ _____    ______ ____
ROOT
ATOM      6  C   UNL     1     -29.481  12.857 -15.839  0.00  0.00    +0.023 C 
ATOM      7  C   UNL     1     -30.207  13.807 -14.889  0.00  0.00    +0.190 C 
ATOM     10  N   UNL     1     -31.516  13.486 -14.442  0.00  0.00    -0.256 N 
ATOM     13  C   UNL     1     -32.076  12.260 -14.927  0.00  0.00    +0.136 A 
ATOM     14  N   UNL     1     -33.281  11.898 -14.528  0.00  0.00    -0.199 NA
ATOM     15  C   UNL     1     -33.905  10.770 -14.933  0.00  0.00    +0.221 A 
ATOM     16  N   UNL     1     -35.236  10.425 -14.482  0.00  0.00    -0.283 N 
ATOM     17  H   UNL     1     -35.121   9.505 -13.948  0.00  0.00    +0.155 HD
ATOM     32  N   UNL     1     -33.265   9.934 -15.794  0.00  0.00    -0.222 NA
ATOM     33  C   UNL     1     -32.015  10.246 -16.217  0.00  0.00    +0.122 A 
ATOM     34  C   UNL     1     -31.413  11.399 -15.791  0.00  0.00    +0.016 A 
ATOM     35  C   UNL     1     -30.066  11.646 -16.289  0.00  0.00    +0.081 C 
ENDROOT
BRANCH   6   5
ATOM      1  C   UNL     1     -25.643  13.927 -17.217  0.00  0.00    +0.042 A 
ATOM      2 CL   UNL     1     -24.088  14.381 -17.964  0.00  0.00    -0.084 Cl
ATOM      3  C   UNL     1     -25.847  13.690 -15.868  0.00  0.00    +0.021 A 
ATOM      4  C   UNL     1     -27.103  13.344 -15.411  0.00  0.00    +0.011 A 
ATOM      5  C   UNL     1     -28.112  13.232 -16.328  0.00  0.00    +0.002 A 
ATOM     36  C   UNL     1     -27.927  13.486 -17.689  0.00  0.00    +0.050 A 
ATOM     37 CL   UNL     1     -29.120  13.389 -19.009  0.00  0.00    -0.083 Cl
ATOM     38  C   UNL     1     -26.672  13.819 -18.109  0.00  0.00    +0.040 A 
ENDBRANCH   6   5
BRANCH  16  18
ATOM     18  C   UNL     1     -36.099  11.252 -13.640  0.00  0.00    +0.036 A 
ATOM     19  C   UNL     1     -37.476  11.009 -13.674  0.00  0.00    +0.025 A 
ATOM     20  C   UNL     1     -38.380  11.732 -12.873  0.00  0.00    +0.028 A 
ATOM     21  C   UNL     1     -37.890  12.699 -12.032  0.00  0.00    +0.066 A 
ATOM     29  C   UNL     1     -36.513  12.923 -11.988  0.00  0.00    +0.146 A 
ATOM     30  F   UNL     1     -35.948  13.836 -11.175  0.00  0.00    -0.203 F 
ATOM     31  C   UNL     1     -35.619  12.207 -12.771  0.00  0.00    +0.063 A 
BRANCH  21  22
ATOM     22  N   UNL     1     -38.818  13.472 -11.200  0.00  0.00    -0.325 N 
ATOM     23  C   UNL     1     -38.869  14.932 -11.336  0.00  0.00    +0.120 C 
ATOM     24  C   UNL     1     -38.973  15.445  -9.903  0.00  0.00    +0.100 C 
ATOM     25  N   UNL     1     -40.221  14.997  -9.289  0.00  0.00    -0.313 NA
ATOM     26  H   UNL     1     -40.124  15.160  -8.236  0.00  0.00    +0.122 HD
ATOM     27  C   UNL     1     -40.662  13.617  -9.463  0.00  0.00    +0.100 C 
ATOM     28  C   UNL     1     -39.984  12.833 -10.602  0.00  0.00    +0.120 C 
ENDBRANCH  21  22
ENDBRANCH  16  18
BRANCH   7   8
ATOM      8  O   UNL     1     -29.545  14.959 -14.487  0.00  0.00    -0.495 OA
ATOM      9  H   UNL     1     -28.659  14.698 -13.987  0.00  0.00    +0.293 HD
ENDBRANCH   7   8
BRANCH  10  11
ATOM     11  C   UNL     1     -32.323  14.300 -13.464  0.00  0.00    +0.112 C 
ATOM     12  C   UNL     1     -32.128  15.825 -13.512  0.00  0.00    +0.025 C 
ENDBRANCH  10  11
TORSDOF 5
