REMARK  Name = TIZ
REMARK  3 active torsions:
REMARK  status: ('A' for Active; 'I' for Inactive)
REMARK    1  A    between atoms: C4'_5  and  C5'_6
REMARK    2  A    between atoms: C1'_9  and  C1M_10
REMARK    3  A    between atoms: C1L_14  and  C1K_15
REMARK                            x       y       z     vdW  Elec       q    Type
REMARK                         _______ _______ _______ _____ _____    ______ ____
ROOT
ATOM      1  O   UNL     1      10.388 -12.855   1.106  0.00  0.00    -0.217 OA
ATOM      2  C   UNL     1       9.904 -14.218   1.302  0.00  0.00    +0.218 C 
ATOM      3  C   UNL     1      10.902 -15.345   0.837  0.00  0.00    +0.215 C 
ATOM      4  O   UNL     1      12.015 -14.857   0.046  0.00  0.00    -0.218 OA
ATOM      5  C   UNL     1      10.017 -16.206  -0.085  0.00  0.00    +0.181 C 
ATOM      6  O   UNL     1       8.671 -15.859   0.250  0.00  0.00    -0.344 OA
ATOM      9  C   UNL     1       8.706 -14.456   0.390  0.00  0.00    +0.194 C 
ENDROOT
BRANCH   9  10
ATOM     10  C   UNL     1       7.474 -13.904   1.081  0.00  0.00    +0.118 A 
ATOM     11  N   UNL     1       6.479 -14.619   1.612  0.00  0.00    -0.235 NA
ATOM     12  C   UNL     1       5.513 -13.836   2.161  0.00  0.00    +0.144 A 
ATOM     16  C   UNL     1       5.687 -12.507   2.079  0.00  0.00    +0.060 A 
ATOM     17  S   UNL     1       7.150 -12.253   1.274  0.00  0.00    -0.068 S 
BRANCH  12  13
ATOM     13  C   UNL     1       4.291 -14.473   2.825  0.00  0.00    +0.302 C 
ATOM     14  N   UNL     1       3.493 -13.652   3.515  0.00  0.00    -0.082 NA
ATOM     15  O   UNL     1       4.085 -15.681   2.704  0.00  0.00    -0.265 OA
ENDBRANCH  12  13
ENDBRANCH   9  10
BRANCH   5   7
ATOM      7  C   UNL     1      10.244 -17.686   0.180  0.00  0.00    +0.214 C 
ATOM      8  O   UNL     1       9.408 -18.441  -0.711  0.00  0.00    -0.218 OA
ENDBRANCH   5   7
TORSDOF 3
