REMARK  Name = 5NK6
REMARK  14 active torsions:
REMARK  status: ('A' for Active; 'I' for Inactive)
REMARK    1  A    between atoms: C_3  and  O_4
REMARK    2  A    between atoms: C_7  and  N_8
REMARK    3  A    between atoms: C_9  and  C_11
REMARK    4  A    between atoms: C_16  and  N_17
REMARK    5  A    between atoms: C_22  and  C_23
REMARK    6  A    between atoms: N_25  and  C_26
REMARK    7  A    between atoms: C_32  and  C_33
REMARK    8  A    between atoms: C_36  and  O_37
REMARK    9  A    between atoms: C_40  and  N_41
REMARK   10  A    between atoms: C_42  and  C_44
REMARK   11  A    between atoms: C_49  and  N_50
REMARK   12  A    between atoms: C_55  and  C_56
REMARK   13  A    between atoms: N_58  and  C_59
REMARK   14  A    between atoms: C_65  and  C_66
REMARK                            x       y       z     vdW  Elec       q    Type
REMARK                         _______ _______ _______ _____ _____    ______ ____
ROOT
ATOM     11  N   UNL     1     -86.729 -13.602   5.182  0.00  0.00    -0.294 N 
ATOM     12  H   UNL     1     -86.947 -13.165   4.230  0.00  0.00    +0.154 HD
ATOM     13  C   UNL     1     -87.742 -14.134   5.889  0.00  0.00    +0.163 A 
ATOM     14  N   UNL     1     -89.010 -14.093   5.453  0.00  0.00    -0.232 NA
ATOM     15  C   UNL     1     -89.901 -14.683   6.297  0.00  0.00    +0.133 A 
ATOM     16  C   UNL     1     -89.374 -15.226   7.416  0.00  0.00    +0.095 A 
ATOM     29  S   UNL     1     -87.701 -14.945   7.383  0.00  0.00    -0.048 S 
ENDROOT
BRANCH  11  10
ATOM      6  C   UNL     1     -83.820 -13.456   7.407  0.00  0.00    +0.039 A 
ATOM      7  C   UNL     1     -82.784 -13.548   6.489  0.00  0.00    +0.013 A 
ATOM      8  C   UNL     1     -83.093 -13.653   5.133  0.00  0.00    +0.003 A 
ATOM      9  C   UNL     1     -84.417 -13.669   4.693  0.00  0.00    +0.023 A 
ATOM     10  C   UNL     1     -85.453 -13.592   5.614  0.00  0.00    +0.034 A 
ATOM     30  C   UNL     1     -85.123 -13.468   6.956  0.00  0.00    +0.036 A 
BRANCH   6   5
ATOM      3  N   UNL     1     -82.412 -13.615   9.251  0.00  0.00    -0.309 N 
ATOM      4  H   UNL     1     -81.615 -13.859   8.580  0.00  0.00    +0.149 HD
ATOM      5  C   UNL     1     -83.635 -13.355   8.780  0.00  0.00    +0.244 C 
ATOM     31  O   UNL     1     -84.585 -13.081   9.511  0.00  0.00    -0.270 OA
BRANCH   3   2
ATOM      1  C   UNL     1     -81.829 -14.967  11.210  0.00  0.00    +0.025 C 
ATOM      2  C   UNL     1     -82.173 -13.562  10.702  0.00  0.00    +0.073 C 
ATOM     32  C   UNL     1     -81.066 -12.561  11.056  0.00  0.00    +0.025 C 
ATOM     33  C   UNL     1     -79.796 -13.318  11.411  0.00  0.00    +0.033 C 
ATOM     34  C   UNL     1     -80.030 -14.124  12.698  0.00  0.00    +0.115 C 
ATOM     37  C   UNL     1     -81.378 -14.845  12.651  0.00  0.00    +0.033 C 
BRANCH  34  35
ATOM     35  O   UNL     1     -80.018 -13.257  13.842  0.00  0.00    -0.392 OA
ATOM     36  H   UNL     1     -80.796 -12.557  13.759  0.00  0.00    +0.210 HD
ENDBRANCH  34  35
ENDBRANCH   3   2
ENDBRANCH   6   5
ENDBRANCH  11  10
BRANCH  16  17
ATOM     17  C   UNL     1     -90.002 -15.864   8.444  0.00  0.00    +0.257 C 
ATOM     18  N   UNL     1     -91.330 -16.139   8.332  0.00  0.00    -0.280 N 
ATOM     19  H   UNL     1     -91.833 -15.896   7.420  0.00  0.00    +0.155 HD
ATOM     28  O   UNL     1     -89.354 -16.133   9.452  0.00  0.00    -0.269 OA
BRANCH  18  20
ATOM     20  C   UNL     1     -92.043 -16.716   9.346  0.00  0.00    +0.055 A 
ATOM     21  C   UNL     1     -92.537 -15.906  10.376  0.00  0.00    -0.028 A 
ATOM     22  C   UNL     1     -92.286 -14.532  10.426  0.00  0.00    +0.045 C 
ATOM     23  C   UNL     1     -93.290 -16.487  11.394  0.00  0.00    +0.005 A 
ATOM     24  C   UNL     1     -93.566 -17.850  11.396  0.00  0.00    +0.002 A 
ATOM     25  C   UNL     1     -93.090 -18.649  10.365  0.00  0.00    +0.022 A 
ATOM     26  C   UNL     1     -92.334 -18.089   9.337  0.00  0.00    +0.062 A 
ATOM     27 CL   UNL     1     -91.779 -19.148   8.102  0.00  0.00    -0.082 Cl
ENDBRANCH  18  20
ENDBRANCH  16  17
TORSDOF 6
