REMARK  Name = 2yir_ligand
REMARK  7 active torsions:
REMARK  status: ('A' for Active; 'I' for Inactive)
REMARK    1  A    between atoms: NAA_1  and  CAM_13
REMARK    2  A    between atoms: NAC_3  and  CAQ_17
REMARK    3  A    between atoms: NAD_4  and  CAZ_26
REMARK    4  A    between atoms: NAE_5  and  CBA_27
REMARK    5  A    between atoms: NAF_6  and  CBA_27
REMARK    6  A    between atoms: NAG_7  and  CBA_27
REMARK    7  A    between atoms: CAO_15  and  CAP_16
REMARK                            x       y       z     vdW  Elec       q    Type
REMARK                         _______ _______ _______ _____ _____    ______ ____
ROOT
ATOM     13  C   UNL     1      47.266  13.898  -4.796  0.00  0.00    +0.254 A 
ATOM     14  C   UNL     1      46.388  14.155  -3.740  0.00  0.00    +0.142 A 
ATOM     15  C   UNL     1      46.495  13.432  -2.554  0.00  0.00    +0.119 A 
ATOM     16  C   UNL     1      47.481  12.441  -2.410  0.00  0.00    +0.105 A 
ATOM     17  C   UNL     1      47.642  11.691  -1.240  0.00  0.00    +0.174 A 
ATOM     18  C   UNL     1      48.402  10.353  -1.154  0.00  0.00    +0.176 A 
ATOM     19  C   UNL     1      49.025   9.933  -2.480  0.00  0.00    +0.123 A 
ATOM     20  C   UNL     1      49.475  11.128  -3.330  0.00  0.00    +0.179 A 
ATOM     31  C   UNL     1      48.372  12.195  -3.453  0.00  0.00    +0.128 A 
ATOM     32  C   UNL     1      48.269  12.926  -4.645  0.00  0.00    +0.320 A 
ENDROOT
BRANCH  13  11
ATOM      9  C   UNL     1      47.927  14.650  -6.971  0.00  0.00    +0.401 C 
ATOM     10  O   UNL     1      48.892  13.748  -7.229  0.00  0.00    -0.287 OA
ATOM     11  N   UNL     1      47.139  14.660  -5.888  0.00  0.00    -0.123 N 
ATOM     12  H   UNL     1      46.360  15.318  -5.897  0.00  0.00    +0.335 HD
BRANCH   9   8
ATOM      4  C   UNL     1      48.176  17.342 -11.127  0.00  0.00    +0.157 A 
ATOM      5  C   UNL     1      47.821  16.840  -9.873  0.00  0.00    +0.168 A 
ATOM      6  C   UNL     1      46.818  17.508  -9.168  0.00  0.00    +0.084 A 
ATOM      7  C   UNL     1      46.591  16.774  -7.870  0.00  0.00    +0.188 A 
ATOM      8  C   UNL     1      47.624  15.699  -8.028  0.00  0.00    +0.268 A 
ATOM     33  C   UNL     1      46.212  18.647  -9.695  0.00  0.00    +0.097 A 
ATOM     34  C   UNL     1      46.551  19.143 -10.947  0.00  0.00    +0.053 A 
ATOM     35  N   UNL     1      48.268  15.775  -9.198  0.00  0.00    -0.198 N 
ATOM     36  H   UNL     1      48.984  15.126  -9.523  0.00  0.00    +0.259 HD
ATOM     37  C   UNL     1      47.519  18.561 -11.764  0.00  0.00    +0.112 A 
BRANCH   4   1
ATOM      1  N   UNL     1      49.117  16.744 -11.851  0.00  0.00    -0.198 N 
ATOM      2  O   UNL     1      49.444  17.253 -13.121  0.00  0.00    -0.484 OA
ATOM      3  O   UNL     1      49.796  15.580 -11.423  0.00  0.00    -0.484 OA
ENDBRANCH   4   1
ENDBRANCH   9   8
ENDBRANCH  13  11
BRANCH  17  21
ATOM     21  N   UNL     1      47.191  12.211  -0.103  0.00  0.00    -0.133 NA
ATOM     22  N   UNL     1      47.288  11.659   1.007  0.00  0.00    -0.232 N 
ATOM     23  H   UNL     1      47.712  10.735   1.095  0.00  0.00    +0.193 HD
BRANCH  22  24
ATOM     24  C   UNL     1      46.826  12.301   2.079  0.00  0.00    +0.332 C 
BRANCH  24  25
ATOM     25  N   UNL     1      46.907  11.776   3.298  0.00  0.00    -0.255 NA
ATOM     26  H   UNL     1      47.343  10.864   3.433  0.00  0.00    +0.320 HD
ATOM     27  H   UNL     1      46.533  12.285   4.099  0.00  0.00    +0.320 HD
ENDBRANCH  24  25
BRANCH  24  28
ATOM     28  N   UNL     1      46.254  13.485   1.942  0.00  0.00    -0.255 NA
ATOM     29  H   UNL     1      46.179  13.911   1.018  0.00  0.00    +0.320 HD
ATOM     30  H   UNL     1      45.888  13.972   2.760  0.00  0.00    +0.320 HD
ENDBRANCH  24  28
ENDBRANCH  22  24
ENDBRANCH  17  21
TORSDOF 7
