REMARK  Name = 2r3j_ligand
REMARK  4 active torsions:
REMARK  status: ('A' for Active; 'I' for Inactive)
REMARK    1  A    between atoms: C07_7  and  C11_11
REMARK    2  A    between atoms: C09_9  and  N10_10
REMARK    3  A    between atoms: N10_10  and  C12_12
REMARK    4  A    between atoms: C12_12  and  C13_13
REMARK                            x       y       z     vdW  Elec       q    Type
REMARK                         _______ _______ _______ _____ _____    ______ ____
ROOT
ATOM      1  C   UNL     1      -0.265  32.071   8.540  0.00  0.00    +0.027 A 
ATOM      2 BR   UNL     1      -1.840  32.767   9.215  0.00  0.00    -0.094 Br
ATOM      3  C   UNL     1       0.619  32.702   7.657  0.00  0.00    +0.052 A 
ATOM      4  N   UNL     1       1.655  31.917   7.386  0.00  0.00    -0.212 NA
ATOM      5  N   UNL     1       1.449  30.773   8.142  0.00  0.00    -0.111 N 
ATOM      6  C   UNL     1       2.242  29.658   8.247  0.00  0.00    +0.224 A 
ATOM     16  C   UNL     1       1.758  28.650   9.078  0.00  0.00    +0.066 A 
ATOM     17  C   UNL     1       0.533  28.787   9.801  0.00  0.00    +0.030 A 
ATOM     24  N   UNL     1      -0.196  29.879   9.696  0.00  0.00    -0.291 NA
ATOM     25  C   UNL     1       0.289  30.853   8.853  0.00  0.00    +0.156 A 
ENDROOT
BRANCH  17  18
ATOM     18  C   UNL     1       0.048  27.729  10.698  0.00  0.00    +0.002 A 
ATOM     19  C   UNL     1       0.148  26.368  10.358  0.00  0.00    +0.019 A 
ATOM     20  C   UNL     1      -0.300  25.373  11.232  0.00  0.00    +0.006 A 
ATOM     21  C   UNL     1      -0.864  25.721  12.464  0.00  0.00    +0.007 A 
ATOM     22  C   UNL     1      -0.957  27.061  12.822  0.00  0.00    +0.006 A 
ATOM     23  C   UNL     1      -0.494  28.058  11.946  0.00  0.00    +0.019 A 
ENDBRANCH  17  18
BRANCH   6   7
ATOM      7  N   UNL     1       3.408  29.634   7.507  0.00  0.00    -0.258 N 
ATOM      8  H   UNL     1       3.536  30.287   6.720  0.00  0.00    +0.197 HD
BRANCH   7   9
ATOM      9  C   UNL     1       4.470  28.668   7.850  0.00  0.00    +0.219 C 
BRANCH   9  10
ATOM     10  C   UNL     1       4.613  27.679   6.720  0.00  0.00    +0.008 A 
ATOM     11  C   UNL     1       4.786  28.119   5.411  0.00  0.00    +0.030 A 
ATOM     12  C   UNL     1       4.928  27.182   4.392  0.00  0.00    +0.029 A 
ATOM     13  C   UNL     1       4.867  25.829   4.714  0.00  0.00    +0.081 A 
ATOM     14  N   UNL     1       4.705  25.375   5.961  0.00  0.00    -0.304 NA
ATOM     15  C   UNL     1       4.585  26.291   6.930  0.00  0.00    +0.091 A 
ENDBRANCH   9  10
ENDBRANCH   7   9
ENDBRANCH   6   7
TORSDOF 4
