REMARK  Name = 5JFV
REMARK  9 active torsions:
REMARK  status: ('A' for Active; 'I' for Inactive)
REMARK    1  A    between atoms: C_2  and  C_3
REMARK    2  A    between atoms: C_3  and  C_17
REMARK    3  A    between atoms: C_5  and  N_20
REMARK    4  A    between atoms: C_6  and  C_7
REMARK    5  A    between atoms: C_7  and  C_22
REMARK    6  A    between atoms: C_12  and  C_13
REMARK    7  A    between atoms: C_13  and  C_14
REMARK    8  A    between atoms: C_13  and  N_15
REMARK    9  A    between atoms: C_27  and  N_28
REMARK                            x       y       z     vdW  Elec       q    Type
REMARK                         _______ _______ _______ _____ _____    ______ ____
ROOT
ATOM     17  C   UNL     1     -47.589   3.335   3.147  0.00  0.00    +0.042 A 
ATOM     18  C   UNL     1     -46.426   2.621   3.465  0.00  0.00    +0.038 A 
ATOM     19  C   UNL     1     -46.156   1.391   2.905  0.00  0.00    +0.052 A 
ATOM     32  C   UNL     1     -47.168   0.719   2.188  0.00  0.00    +0.134 A 
ATOM     33  N   UNL     1     -48.352   1.363   1.972  0.00  0.00    -0.261 NA
ATOM     34  C   UNL     1     -48.528   2.648   2.340  0.00  0.00    +0.122 A 
ENDROOT
BRANCH  19  20
ATOM     20  N   UNL     1     -44.930   0.702   3.046  0.00  0.00    -0.284 N 
ATOM     21  H   UNL     1     -44.943  -0.337   3.304  0.00  0.00    +0.155 HD
ATOM     22  C   UNL     1     -43.719   1.331   2.861  0.00  0.00    +0.222 C 
ATOM     23  O   UNL     1     -43.597   2.533   2.606  0.00  0.00    -0.275 OA
BRANCH  22  24
ATOM     24  C   UNL     1     -42.537   0.374   3.012  0.00  0.00    +0.131 C 
BRANCH  24  25
ATOM     25  C   UNL     1     -41.188   1.064   2.965  0.00  0.00    -0.039 A 
ATOM     26  C   UNL     1     -40.319   0.584   1.998  0.00  0.00    +0.005 A 
ATOM     27  C   UNL     1     -39.045   1.220   1.872  0.00  0.00    +0.020 A 
ATOM     28  C   UNL     1     -38.720   2.248   2.735  0.00  0.00    +0.041 A 
ATOM     29  C   UNL     1     -39.594   2.739   3.726  0.00  0.00    +0.020 A 
ATOM     30 CL   UNL     1     -37.174   3.040   2.564  0.00  0.00    -0.084 Cl
ATOM     31  C   UNL     1     -40.866   2.110   3.835  0.00  0.00    +0.005 A 
ENDBRANCH  24  25
ENDBRANCH  22  24
ENDBRANCH  19  20
BRANCH  17  16
ATOM     16  C   UNL     1     -47.761   4.701   3.644  0.00  0.00    +0.197 C 
ATOM     35  O   UNL     1     -47.017   5.144   4.496  0.00  0.00    -0.286 OA
BRANCH  16  15
ATOM      1  C   UNL     1     -49.259   5.520   1.721  0.00  0.00    +0.100 A 
ATOM      2  N   UNL     1     -50.051   6.592   1.443  0.00  0.00    -0.329 N 
ATOM      3  C   UNL     1     -50.045   7.470   2.471  0.00  0.00    +0.147 A 
ATOM      4  N   UNL     1     -50.654   8.646   2.628  0.00  0.00    -0.218 NA
ATOM      5  C   UNL     1     -50.486   9.329   3.779  0.00  0.00    +0.225 A 
ATOM      6  N   UNL     1     -49.674   8.901   4.772  0.00  0.00    -0.220 NA
ATOM      7  C   UNL     1     -49.011   7.696   4.670  0.00  0.00    +0.129 A 
ATOM     11  C   UNL     1     -49.201   6.938   3.507  0.00  0.00    +0.069 A 
ATOM     15  C   UNL     1     -48.748   5.619   3.049  0.00  0.00    +0.052 A 
BRANCH   7   8
ATOM      8  N   UNL     1     -48.191   7.282   5.666  0.00  0.00    -0.343 N 
ATOM      9  H   UNL     1     -48.067   7.884   6.542  0.00  0.00    +0.144 HD
ATOM     10  H   UNL     1     -47.667   6.353   5.577  0.00  0.00    +0.144 HD
ENDBRANCH   7   8
BRANCH   2  12
ATOM     12  C   UNL     1     -50.839   6.933   0.208  0.00  0.00    +0.083 C 
ATOM     13  C   UNL     1     -51.762   5.805  -0.220  0.00  0.00    +0.030 C 
ATOM     14  C   UNL     1     -49.879   7.408  -0.858  0.00  0.00    +0.030 C 
ENDBRANCH   2  12
ENDBRANCH  16  15
ENDBRANCH  17  16
TORSDOF 7
