REMARK  Name = 4dhf_ligand
REMARK  6 active torsions:
REMARK  status: ('A' for Active; 'I' for Inactive)
REMARK    1  A    between atoms: C19_2  and  C18_4
REMARK    2  A    between atoms: N6_5  and  C13_6
REMARK    3  A    between atoms: N4_18  and  C10_19
REMARK    4  A    between atoms: N3_21  and  C8_22
REMARK    5  A    between atoms: C7_24  and  C1_25
REMARK    6  A    between atoms: N2_30  and  C4_31
REMARK                            x       y       z     vdW  Elec       q    Type
REMARK                         _______ _______ _______ _____ _____    ______ ____
ROOT
ATOM      3  C   UNL     1     -21.317  19.799  -0.068  0.00  0.00    +0.137 A 
ATOM      4  C   UNL     1     -22.028  19.627   1.125  0.00  0.00    +0.009 A 
ATOM      5  C   UNL     1     -23.333  19.370   0.658  0.00  0.00    +0.023 A 
ATOM      6  C   UNL     1     -24.470  19.135   1.412  0.00  0.00    +0.099 A 
ATOM      7  N   UNL     1     -25.601  18.905   0.725  0.00  0.00    -0.264 NA
ATOM      8  C   UNL     1     -25.653  18.912  -0.640  0.00  0.00    +0.188 A 
ATOM      9  N   UNL     1     -26.844  18.696  -1.263  0.00  0.00    -0.267 N 
ATOM     10  H   UNL     1     -27.671  18.630  -0.670  0.00  0.00    +0.207 HD
ATOM     26  N   UNL     1     -24.537  19.145  -1.366  0.00  0.00    -0.243 NA
ATOM     27  C   UNL     1     -23.370  19.379  -0.727  0.00  0.00    +0.140 A 
ATOM     28  N   UNL     1     -22.119  19.652  -1.135  0.00  0.00    -0.235 N 
ENDROOT
BRANCH   9  11
ATOM     11  C   UNL     1     -27.032  18.561  -2.595  0.00  0.00    +0.049 A 
ATOM     12  C   UNL     1     -28.195  18.107  -3.195  0.00  0.00    +0.001 A 
ATOM     13  C   UNL     1     -27.989  18.107  -4.570  0.00  0.00    +0.121 A 
ATOM     23  N   UNL     1     -26.714  18.513  -4.786  0.00  0.00    -0.278 N 
ATOM     24  C   UNL     1     -26.032  18.666  -6.104  0.00  0.00    +0.213 C 
ATOM     25  C   UNL     1     -26.133  18.812  -3.610  0.00  0.00    +0.114 A 
BRANCH  13  14
ATOM     14  C   UNL     1     -28.952  17.634  -5.619  0.00  0.00    +0.217 C 
ATOM     15  N   UNL     1     -30.222  18.040  -5.843  0.00  0.00    -0.278 N 
ATOM     16  C   UNL     1     -30.918  17.597  -7.085  0.00  0.00    +0.114 C 
ATOM     17  C   UNL     1     -31.955  18.590  -7.635  0.00  0.00    -0.085 C 
ATOM     18  N   UNL     1     -32.696  18.995  -6.451  0.00  0.00    +0.403 NA
ATOM     19  C   UNL     1     -34.087  18.614  -6.147  0.00  0.00    -0.131 C 
ATOM     20  C   UNL     1     -31.933  19.806  -5.517  0.00  0.00    -0.085 C 
ATOM     21  C   UNL     1     -30.952  18.837  -4.840  0.00  0.00    +0.114 C 
ATOM     22  O   UNL     1     -28.483  16.732  -6.283  0.00  0.00    -0.392 OA
ENDBRANCH  13  14
ENDBRANCH   9  11
BRANCH   3   2
ATOM      1  O   UNL     1     -19.440  21.007   0.595  0.00  0.00    -0.385 OA
ATOM      2  C   UNL     1     -19.861  20.116  -0.145  0.00  0.00    +0.224 C 
ATOM     34  N   UNL     1     -19.077  19.450  -1.009  0.00  0.00    -0.299 N 
ATOM     35  H   UNL     1     -19.475  18.720  -1.600  0.00  0.00    +0.180 HD
ATOM     36  H   UNL     1     -18.084  19.674  -1.074  0.00  0.00    +0.180 HD
ENDBRANCH   3   2
BRANCH  28  29
ATOM     29  C   UNL     1     -21.595  19.784  -2.516  0.00  0.00    +0.130 C 
ATOM     30  C   UNL     1     -22.162  21.004  -3.233  0.00  0.00    +0.035 C 
ATOM     31  C   UNL     1     -22.119  20.678  -4.711  0.00  0.00    +0.003 C 
ATOM     32  C   UNL     1     -21.721  19.221  -4.812  0.00  0.00    +0.003 C 
ATOM     33  C   UNL     1     -21.866  18.609  -3.427  0.00  0.00    +0.035 C 
ENDBRANCH  28  29
TORSDOF 4
