REMARK  Name = 5P9G
REMARK  6 active torsions:
REMARK  status: ('A' for Active; 'I' for Inactive)
REMARK    1  A    between atoms: C_2  and  C_8
REMARK    2  A    between atoms: C_7  and  N_25
REMARK    3  A    between atoms: C_14  and  C_28
REMARK    4  A    between atoms: C_15  and  C_29
REMARK    5  A    between atoms: C_20  and  N_37
REMARK    6  A    between atoms: C_32  and  N_34
REMARK                            x       y       z     vdW  Elec       q    Type
REMARK                         _______ _______ _______ _____ _____    ______ ____
ROOT
ATOM      9  C   UNL     1      23.115   8.275   5.167  0.00  0.00    +0.065 A 
ATOM     10  C   UNL     1      21.963   7.898   4.468  0.00  0.00    +0.027 A 
ATOM     11  C   UNL     1      22.027   6.910   3.428  0.00  0.00    +0.001 A 
ATOM     34  C   UNL     1      23.284   6.420   3.090  0.00  0.00    -0.000 A 
ATOM     35  C   UNL     1      24.421   6.830   3.766  0.00  0.00    +0.002 A 
ATOM     38  C   UNL     1      24.357   7.745   4.805  0.00  0.00    +0.017 A 
ENDROOT
BRANCH   9   8
ATOM      1  C   UNL     1      21.818  10.677  10.726  0.00  0.00    +0.025 A 
ATOM      2  C   UNL     1      22.041   9.635   9.811  0.00  0.00    +0.144 A 
ATOM      3  F   UNL     1      21.821   8.355  10.151  0.00  0.00    -0.204 F 
ATOM      4  C   UNL     1      22.500   9.888   8.506  0.00  0.00    +0.084 A 
ATOM      5  C   UNL     1      22.691  11.249   8.143  0.00  0.00    +0.008 A 
ATOM      6  C   UNL     1      23.128  11.568   6.783  0.00  0.00    +0.019 C 
ATOM      7  C   UNL     1      23.209  10.561   5.882  0.00  0.00    +0.083 C 
ATOM      8  N   UNL     1      22.993   9.253   6.208  0.00  0.00    -0.273 N 
ATOM     39  C   UNL     1      22.479  12.270   9.085  0.00  0.00    -0.004 A 
ATOM     40  C   UNL     1      22.701   8.841   7.484  0.00  0.00    +0.267 C 
ATOM     41  O   UNL     1      22.523   7.639   7.757  0.00  0.00    -0.267 OA
ATOM     42  C   UNL     1      22.053  12.007  10.369  0.00  0.00    -0.020 A 
BRANCH  42  43
ATOM     43  C   UNL     1      21.857  13.233  11.283  0.00  0.00    +0.022 C 
ATOM     44  C   UNL     1      21.780  13.065  12.799  0.00  0.00    +0.005 C 
ATOM     45  C   UNL     1      20.494  13.327  11.984  0.00  0.00    +0.005 C 
ENDBRANCH  42  43
ENDBRANCH   9   8
BRANCH  11  12
ATOM     12  C   UNL     1      20.893   6.394   2.578  0.00  0.00    +0.019 C 
ATOM     13  C   UNL     1      21.059   6.262   1.152  0.00  0.00    +0.023 C 
ATOM     14  C   UNL     1      20.013   5.730   0.440  0.00  0.00    +0.128 C 
ATOM     29  C   UNL     1      18.844   5.350   1.118  0.00  0.00    +0.276 C 
ATOM     30  O   UNL     1      17.904   4.866   0.495  0.00  0.00    -0.266 OA
ATOM     31  N   UNL     1      18.707   5.517   2.457  0.00  0.00    -0.291 N 
ATOM     32  C   UNL     1      17.452   5.075   3.054  0.00  0.00    +0.134 C 
ATOM     33  C   UNL     1      19.710   5.994   3.195  0.00  0.00    +0.078 C 
BRANCH  14  15
ATOM     15  N   UNL     1      19.995   5.511  -0.966  0.00  0.00    -0.189 NA
ATOM     16  C   UNL     1      21.015   5.665  -1.904  0.00  0.00    +0.152 A 
ATOM     17  C   UNL     1      22.200   6.219  -1.524  0.00  0.00    +0.037 A 
ATOM     18  C   UNL     1      23.212   6.382  -2.475  0.00  0.00    +0.019 A 
ATOM     19  C   UNL     1      22.953   5.959  -3.789  0.00  0.00    +0.068 A 
ATOM     27  C   UNL     1      21.724   5.375  -4.119  0.00  0.00    +0.115 A 
ATOM     28  N   UNL     1      20.762   5.228  -3.190  0.00  0.00    -0.226 NA
BRANCH  19  20
ATOM     20  N   UNL     1      23.949   6.140  -4.769  0.00  0.00    -0.303 N 
ATOM     21  C   UNL     1      23.510   7.144  -5.781  0.00  0.00    +0.108 C 
ATOM     22  C   UNL     1      24.427   7.065  -7.027  0.00  0.00    +0.094 C 
ATOM     23  N   UNL     1      25.790   7.413  -6.567  0.00  0.00    -0.269 NA
ATOM     24  C   UNL     1      26.783   7.498  -7.667  0.00  0.00    +0.090 C 
ATOM     25  C   UNL     1      26.280   6.642  -5.378  0.00  0.00    +0.094 C 
ATOM     26  C   UNL     1      25.245   6.597  -4.221  0.00  0.00    +0.108 C 
ENDBRANCH  19  20
ENDBRANCH  14  15
ENDBRANCH  11  12
BRANCH  10  36
ATOM     36  C   UNL     1      20.620   8.527   4.766  0.00  0.00    +0.210 C 
ATOM     37  O   UNL     1      19.924   7.890   5.839  0.00  0.00    -0.215 OA
ENDBRANCH  10  36
TORSDOF 6
