REMARK  Name = 5HO6
REMARK  6 active torsions:
REMARK  status: ('A' for Active; 'I' for Inactive)
REMARK    1  A    between atoms: C_10  and  C_15
REMARK    2  A    between atoms: C_14  and  S_38
REMARK    3  A    between atoms: C_17  and  S_38
REMARK    4  A    between atoms: C_24  and  C_25
REMARK    5  A    between atoms: C_24  and  N_32
REMARK    6  A    between atoms: C_25  and  N_33
REMARK                            x       y       z     vdW  Elec       q    Type
REMARK                         _______ _______ _______ _____ _____    ______ ____
ROOT
ATOM      8  C   UNL     1      20.123 -11.392  57.633  0.00  0.00    +0.017 A 
ATOM      9  C   UNL     1      19.412 -12.325  58.372  0.00  0.00    +0.032 A 
ATOM     10  C   UNL     1      19.986 -12.765  59.547  0.00  0.00    +0.042 A 
ATOM     11  S   UNL     1      19.374 -13.894  60.704  0.00  0.00    -0.052 S 
ATOM     12  C   UNL     1      20.776 -13.671  61.651  0.00  0.00    +0.167 A 
ATOM     13  N   UNL     1      20.883 -14.374  62.825  0.00  0.00    -0.249 N 
ATOM     14  H   UNL     1      21.812 -14.342  63.355  0.00  0.00    +0.158 HD
ATOM     15  C   UNL     1      19.860 -15.113  63.350  0.00  0.00    +0.305 C 
ATOM     16  O   UNL     1      18.791 -15.382  62.830  0.00  0.00    -0.253 OA
ATOM     17  N   UNL     1      20.226 -15.560  64.572  0.00  0.00    -0.298 N 
ATOM     18  H   UNL     1      21.086 -15.155  65.063  0.00  0.00    +0.150 HD
ATOM     27  N   UNL     1      21.656 -12.830  61.170  0.00  0.00    -0.225 NA
ATOM     28  C   UNL     1      21.221 -12.305  59.979  0.00  0.00    +0.080 A 
ATOM     29  C   UNL     1      21.919 -11.373  59.231  0.00  0.00    +0.030 A 
ATOM     30  C   UNL     1      21.350 -10.932  58.062  0.00  0.00    +0.017 A 
ENDROOT
BRANCH   8   7
ATOM      7  S   UNL     1      19.461 -10.733  56.119  0.00  0.00    -0.048 S 
BRANCH   7   6
ATOM      3  C   UNL     1      16.480  -9.177  59.400  0.00  0.00    +0.092 A 
ATOM      4  N   UNL     1      17.261  -9.733  58.518  0.00  0.00    -0.163 NA
ATOM      5  N   UNL     1      18.038  -8.881  57.817  0.00  0.00    -0.187 N 
ATOM      6  C   UNL     1      18.979  -9.156  56.831  0.00  0.00    +0.217 A 
ATOM     31  N   UNL     1      19.491  -7.985  56.501  0.00  0.00    -0.120 NA
ATOM     32  N   UNL     1      18.916  -6.973  57.237  0.00  0.00    -0.127 NA
ATOM     33  C   UNL     1      18.040  -7.524  58.037  0.00  0.00    +0.179 A 
ATOM     34  C   UNL     1      17.173  -6.967  59.002  0.00  0.00    +0.052 A 
ATOM     35  C   UNL     1      16.356  -7.736  59.726  0.00  0.00    +0.034 A 
BRANCH   3   2
ATOM      1  C   UNL     1      14.469  -9.660  60.788  0.00  0.00    +0.013 A 
ATOM      2  C   UNL     1      15.668 -10.065  60.232  0.00  0.00    +0.002 A 
ATOM     36  C   UNL     1      16.202 -11.317  60.457  0.00  0.00    +0.013 A 
ATOM     37  C   UNL     1      15.533 -12.207  61.262  0.00  0.00    +0.039 A 
ATOM     38  C   UNL     1      14.332 -11.819  61.823  0.00  0.00    +0.123 A 
ATOM     39  F   UNL     1      13.682 -12.706  62.616  0.00  0.00    -0.205 F 
ATOM     40  C   UNL     1      13.797 -10.562  61.587  0.00  0.00    +0.039 A 
ENDBRANCH   3   2
ENDBRANCH   7   6
ENDBRANCH   8   7
BRANCH  17  19
ATOM     19  C   UNL     1      19.447 -16.583  65.200  0.00  0.00    +0.121 C 
BRANCH  19  20
ATOM     20  C   UNL     1      18.872 -15.989  66.455  0.00  0.00    +0.103 C 
BRANCH  20  21
ATOM     21  N   UNL     1      18.078 -17.039  67.116  0.00  0.00    -0.296 NA
ATOM     22  C   UNL     1      18.734 -17.673  68.307  0.00  0.00    +0.112 C 
ATOM     23  C   UNL     1      17.790 -18.797  68.709  0.00  0.00    +0.175 C 
ATOM     24  O   UNL     1      16.502 -18.229  68.982  0.00  0.00    -0.377 OA
ATOM     25  C   UNL     1      15.905 -17.817  67.764  0.00  0.00    +0.175 C 
ATOM     26  C   UNL     1      16.678 -16.591  67.338  0.00  0.00    +0.112 C 
ENDBRANCH  20  21
ENDBRANCH  19  20
ENDBRANCH  17  19
TORSDOF 6
