REMARK  Name = 2xiy_ligand
REMARK  2 active torsions:
REMARK  status: ('A' for Active; 'I' for Inactive)
REMARK    1  A    between atoms: CD1_2  and  C_10
REMARK    2  A    between atoms: C_10  and  O_11
REMARK                            x       y       z     vdW  Elec       q    Type
REMARK                         _______ _______ _______ _____ _____    ______ ____
ROOT
ATOM      1  N   UNL     1     -21.966 -35.290  -1.591  0.00  0.00    -0.316 NA
ATOM      2  C   UNL     1     -22.406 -36.221  -0.748  0.00  0.00    +0.021 A 
ATOM      3  C   UNL     1     -22.781 -37.549  -0.924  0.00  0.00    -0.012 A 
ATOM      4  C   UNL     1     -23.227 -38.301   0.174  0.00  0.00    -0.027 A 
ATOM      5  C   UNL     1     -23.299 -37.718   1.443  0.00  0.00    -0.024 A 
ATOM      6  C   UNL     1     -22.925 -36.378   1.613  0.00  0.00    +0.012 A 
ATOM      7  C   UNL     1     -22.483 -35.638   0.519  0.00  0.00    +0.078 A 
ATOM      8  N   UNL     1     -22.072 -34.372   0.394  0.00  0.00    -0.245 N 
ATOM      9  H   UNL     1     -22.009 -33.678   1.152  0.00  0.00    +0.232 HD
ATOM     10  C   UNL     1     -21.756 -34.165  -0.895  0.00  0.00    +0.147 A 
ENDROOT
BRANCH  10  11
ATOM     11  C   UNL     1     -21.243 -32.841  -1.461  0.00  0.00    +0.292 C 
BRANCH  11  12
ATOM     12  O   UNL     1     -20.996 -31.920  -0.398  0.00  0.00    -0.373 OA
ATOM     13  H   UNL     1     -20.678 -31.101  -0.758  0.00  0.00    +0.214 HD
ENDBRANCH  11  12
ENDBRANCH  10  11
TORSDOF 2
