REMARK  Name = 5os8
REMARK  2 active torsions:
REMARK  status: ('A' for Active; 'I' for Inactive)
REMARK    1  A    between atoms: C10_4  and  C11_5
REMARK    2  A    between atoms: C7_9  and  C6_10
REMARK                            x       y       z     vdW  Elec       q    Type
REMARK                         _______ _______ _______ _____ _____    ______ ____
ROOT
ATOM      1 CL   UNL     1    -113.030-178.347 310.901  0.00  0.00    -0.200 Cl
ATOM      2  C   UNL     1    -113.459-176.844 310.158  0.00  0.00    +0.200 A 
ATOM      3  C   UNL     1    -112.455-175.956 309.783  0.00  0.00    +0.000 A 
ATOM     12  C   UNL     1    -112.845-174.741 309.219  0.00  0.00    -0.130 A 
ATOM     13  C   UNL     1    -114.185-174.435 309.060  0.00  0.00    -0.130 A 
ATOM     14  C   UNL     1    -115.180-175.328 309.442  0.00  0.00    +0.000 A 
ATOM     17  C   UNL     1    -114.797-176.549 309.981  0.00  0.00    -0.130 A 
ENDROOT
BRANCH   3   4
ATOM      4  C   UNL     1    -111.005-176.251 309.976  0.00  0.00    +0.000 A 
ATOM      5  C   UNL     1    -110.253-176.629 308.858  0.00  0.00    -0.130 A 
ATOM      6  C   UNL     1    -108.929-177.007 308.991  0.00  0.00    -0.130 A 
ATOM      7  C   UNL     1    -108.375-176.992 310.239  0.00  0.00    +0.300 A 
ATOM      8  C   UNL     1    -109.071-176.635 311.369  0.00  0.00    -0.130 A 
ATOM      9  F   UNL     1    -107.075-177.343 310.374  0.00  0.00    -0.300 F 
ATOM     10  C   UNL     1    -110.401-176.251 311.255  0.00  0.00    +0.000 A 
ATOM     11  C   UNL     1    -111.140-175.826 312.503  0.00  0.00    -0.150 C 
ENDBRANCH   3   4
BRANCH  14  15
ATOM     15  C   UNL     1    -116.638-174.987 309.303  0.00  0.00    +0.100 C 
ATOM     16  N   UNL     1    -117.393-175.944 308.494  0.00  0.00    -0.900 NA
ENDBRANCH  14  15
TORSDOF 2
