REMARK  Name = 5D1J
REMARK  8 active torsions:
REMARK  status: ('A' for Active; 'I' for Inactive)
REMARK    1  A    between atoms: C_1  and  C_3
REMARK    2  A    between atoms: C_8  and  C_17
REMARK    3  A    between atoms: C_9  and  C_17
REMARK    4  A    between atoms: C_10  and  C_13
REMARK    5  A    between atoms: C_13  and  S_16
REMARK    6  A    between atoms: C_14  and  C_17
REMARK    7  A    between atoms: S_16  and  C_18
REMARK    8  A    between atoms: C_17  and  C_19
REMARK                            x       y       z     vdW  Elec       q    Type
REMARK                         _______ _______ _______ _____ _____    ______ ____
ROOT
ATOM      1  C   UNL     1      23.939  29.180  28.842  0.00  0.00    +0.222 C 
ATOM      2  O   UNL     1      24.793  28.509  28.270  0.00  0.00    -0.275 OA
ATOM      3  N   UNL     1      24.106  30.506  29.110  0.00  0.00    -0.264 N 
ATOM      4  H   UNL     1      23.323  31.008  29.639  0.00  0.00    +0.157 HD
ATOM      5  C   UNL     1      25.209  31.247  28.749  0.00  0.00    +0.165 A 
ATOM      6  N   UNL     1      25.234  32.538  28.946  0.00  0.00    -0.232 NA
ATOM      7  C   UNL     1      26.413  33.058  28.467  0.00  0.00    +0.135 A 
ATOM      8  C   UNL     1      27.299  32.184  27.942  0.00  0.00    +0.067 A 
ATOM     20  S   UNL     1      26.615  30.581  27.973  0.00  0.00    -0.046 S 
ENDROOT
BRANCH   1  21
ATOM     21  C   UNL     1      22.623  28.602  29.263  0.00  0.00    +0.078 C 
ATOM     22  C   UNL     1      22.096  27.627  28.194  0.00  0.00    +0.028 C 
ATOM     23  C   UNL     1      20.816  26.957  28.657  0.00  0.00    +0.081 C 
ATOM     24  N   UNL     1      21.116  26.230  29.911  0.00  0.00    -0.316 NA
ATOM     25  H   UNL     1      20.252  25.673  30.209  0.00  0.00    +0.122 HD
ATOM     26  C   UNL     1      21.478  27.170  30.983  0.00  0.00    +0.081 C 
ATOM     27  C   UNL     1      22.764  27.886  30.618  0.00  0.00    +0.028 C 
ENDBRANCH   1  21
BRANCH   8   9
ATOM      9  S   UNL     1      28.980  32.408  27.492  0.00  0.00    -0.107 S 
BRANCH   9  10
ATOM     10  C   UNL     1      29.079  32.523  25.699  0.00  0.00    +0.171 C 
BRANCH  10  11
ATOM     11  C   UNL     1      29.464  31.186  25.220  0.00  0.00    +0.206 A 
ATOM     12  N   UNL     1      30.631  30.667  24.799  0.00  0.00    -0.221 NA
ATOM     13  C   UNL     1      30.355  29.346  24.531  0.00  0.00    +0.156 A 
ATOM     14  C   UNL     1      29.015  29.080  24.786  0.00  0.00    +0.131 A 
ATOM     19  O   UNL     1      28.464  30.259  25.236  0.00  0.00    -0.443 OA
BRANCH  14  15
ATOM     15  C   UNL     1      28.039  27.916  24.642  0.00  0.00    +0.022 C 
ATOM     16  C   UNL     1      26.682  28.433  24.155  0.00  0.00    +0.019 C 
ATOM     17  C   UNL     1      28.553  26.903  23.618  0.00  0.00    +0.019 C 
ATOM     18  C   UNL     1      27.858  27.207  25.985  0.00  0.00    +0.019 C 
ENDBRANCH  14  15
ENDBRANCH  10  11
ENDBRANCH   9  10
ENDBRANCH   8   9
TORSDOF 5
