REMARK  Name = 4FTR
REMARK  8 active torsions:
REMARK  status: ('A' for Active; 'I' for Inactive)
REMARK    1  A    between atoms: C_2  and  C_6
REMARK    2  A    between atoms: N_3  and  C_4
REMARK    3  A    between atoms: N_3  and  C_5
REMARK    4  A    between atoms: C_6  and  C_7
REMARK    5  A    between atoms: C_22  and  C_23
REMARK    6  A    between atoms: C_25  and  O_26
REMARK    7  A    between atoms: O_26  and  C_27
REMARK    8  A    between atoms: C_30  and  N_31
REMARK                            x       y       z     vdW  Elec       q    Type
REMARK                         _______ _______ _______ _____ _____    ______ ____
ROOT
ATOM      4  C   UNL     1      21.836  -4.373   8.394  0.00  0.00    -0.037 A 
ATOM      5  C   UNL     1      21.763  -5.438   9.285  0.00  0.00    +0.006 A 
ATOM      6  C   UNL     1      20.629  -5.655  10.050  0.00  0.00    +0.028 A 
ATOM      7  C   UNL     1      19.535  -4.802   9.936  0.00  0.00    +0.063 A 
ATOM      8  N   UNL     1      18.512  -4.910  10.897  0.00  0.00    -0.353 N 
ATOM      9  H   UNL     1      18.799  -5.287  11.795  0.00  0.00    +0.166 HD
ATOM     10  C   UNL     1      17.128  -4.900  10.644  0.00  0.00    +0.053 A 
ATOM     11  C   UNL     1      16.363  -5.859  11.297  0.00  0.00    +0.035 A 
ATOM     12  C   UNL     1      14.978  -5.923  11.164  0.00  0.00    -0.016 A 
ATOM     24  C   UNL     1      14.373  -5.010  10.302  0.00  0.00    +0.009 A 
ATOM     25  C   UNL     1      15.116  -4.059   9.628  0.00  0.00    +0.016 A 
ATOM     26  C   UNL     1      16.495  -3.966   9.802  0.00  0.00    +0.063 A 
ATOM     27  C   UNL     1      17.171  -2.806   9.137  0.00  0.00    +0.258 A 
ATOM     28  O   UNL     1      16.518  -1.797   8.871  0.00  0.00    -0.267 OA
ATOM     29  N   UNL     1      18.474  -2.890   8.796  0.00  0.00    -0.320 N 
ATOM     30  H   UNL     1      18.749  -2.093   8.230  0.00  0.00    +0.169 HD
ATOM     31  C   UNL     1      19.564  -3.760   9.001  0.00  0.00    +0.066 A 
ATOM     32  C   UNL     1      20.729  -3.544   8.261  0.00  0.00    +0.032 A 
ENDROOT
BRANCH  12  13
ATOM     13  C   UNL     1      14.175  -6.777  12.093  0.00  0.00    -0.014 A 
ATOM     14  C   UNL     1      14.663  -8.012  12.533  0.00  0.00    +0.011 A 
ATOM     15  C   UNL     1      13.872  -8.880  13.259  0.00  0.00    +0.037 A 
ATOM     16  C   UNL     1      12.577  -8.516  13.585  0.00  0.00    +0.168 A 
ATOM     20  C   UNL     1      12.043  -7.277  13.168  0.00  0.00    +0.151 A 
ATOM     23  C   UNL     1      12.858  -6.440  12.416  0.00  0.00    +0.056 A 
BRANCH  16  17
ATOM     17  N   UNL     1      11.816  -9.468  14.402  0.00  0.00    +0.060 N 
ATOM     18  O   UNL     1      10.607  -9.528  14.252  0.00  0.00    -0.126 OA
ATOM     19  O   UNL     1      12.427 -10.189  15.176  0.00  0.00    -0.126 OA
ENDBRANCH  16  17
BRANCH  20  21
ATOM     21  O   UNL     1      10.765  -6.959  13.558  0.00  0.00    -0.493 OA
ATOM     22  C   UNL     1      10.241  -5.685  13.189  0.00  0.00    +0.277 C 
ENDBRANCH  20  21
ENDBRANCH  12  13
BRANCH   4   3
ATOM      3  C   UNL     1      23.110  -4.084   7.627  0.00  0.00    +0.131 C 
BRANCH   3   2
ATOM      1  O   UNL     1      24.818  -5.737   7.767  0.00  0.00    -0.275 OA
ATOM      2  C   UNL     1      23.820  -5.348   7.175  0.00  0.00    +0.219 C 
ATOM     33  N   UNL     1      23.333  -6.005   6.105  0.00  0.00    -0.307 N 
ATOM     34  C   UNL     1      22.229  -5.507   5.281  0.00  0.00    +0.131 C 
ATOM     35  C   UNL     1      23.841  -7.321   5.709  0.00  0.00    +0.131 C 
ENDBRANCH   3   2
ENDBRANCH   4   3
TORSDOF 5
