REMARK  Name = 4L6Q
REMARK  5 active torsions:
REMARK  status: ('A' for Active; 'I' for Inactive)
REMARK    1  A    between atoms: C_4  and  C_5
REMARK    2  A    between atoms: C_5  and  N_6
REMARK    3  A    between atoms: C_9  and  O_10
REMARK    4  A    between atoms: O_10  and  C_11
REMARK    5  A    between atoms: B_18  and  O_20
REMARK                            x       y       z     vdW  Elec       q    Type
REMARK                         _______ _______ _______ _____ _____    ______ ____
ROOT
ATOM      4  O   UNL     1      -3.984  -0.198 -32.636  0.00  0.00    +0.000 OA
ENDROOT
BRANCH   4   5
ATOM      5  C   UNL     1      -4.678  -1.204 -33.318  0.00  0.00    +0.000 A 
ATOM      6  C   UNL     1      -5.925  -0.968 -33.948  0.00  0.00    +0.000 A 
ATOM      7  C   UNL     1      -6.576  -2.013 -34.646  0.00  0.00    +0.000 A 
ATOM      8  C   UNL     1      -5.981  -3.264 -34.715  0.00  0.00    +0.000 A 
ATOM      9  C   UNL     1      -4.792  -3.489 -34.114  0.00  0.00    +0.000 A 
ATOM     10  B   UNL     1      -4.425  -5.003 -34.368  0.00  0.00    +0.000 B 
ATOM     13  O   UNL     1      -5.607  -5.576 -35.102  0.00  0.00    +0.000 OA
ATOM     14  C   UNL     1      -6.512  -4.511 -35.396  0.00  0.00    +0.000 C 
ATOM     15  C   UNL     1      -4.116  -2.498 -33.412  0.00  0.00    +0.000 A 
BRANCH  10  11
ATOM     11  O   UNL     1      -3.189  -5.750 -33.971  0.00  0.00    +0.000 OA
ATOM     12  H   UNL     1      -3.448  -6.543 -33.333  0.00  0.00    +0.000 HD
ENDBRANCH  10  11
ENDBRANCH   4   5
BRANCH   4   3
ATOM      1  F   UNL     1      -3.021   2.333 -32.721  0.00  0.00    +0.000 F 
ATOM      2  C   UNL     1      -4.044   2.056 -31.897  0.00  0.00    +0.000 A 
ATOM      3  C   UNL     1      -4.557   0.769 -31.842  0.00  0.00    +0.000 A 
ATOM     16  C   UNL     1      -5.616   0.492 -30.980  0.00  0.00    +0.000 A 
ATOM     17  C   UNL     1      -6.157   1.520 -30.187  0.00  0.00    +0.000 A 
ATOM     18  C   UNL     1      -5.641   2.826 -30.252  0.00  0.00    +0.000 A 
ATOM     23  C   UNL     1      -4.573   3.073 -31.120  0.00  0.00    +0.000 A 
BRANCH  18  19
ATOM     19  C   UNL     1      -6.237   3.995 -29.346  0.00  0.00    +0.000 C 
BRANCH  19  20
ATOM     20  N   UNL     1      -5.221   4.418 -28.300  0.00  0.00    +0.000 NA
ATOM     21  H   UNL     1      -4.980   3.582 -27.678  0.00  0.00    +0.000 HD
ATOM     22  H   UNL     1      -4.334   4.769 -28.785  0.00  0.00    +0.000 HD
ENDBRANCH  19  20
ENDBRANCH  18  19
ENDBRANCH   4   3
TORSDOF 5
