REMARK  Name = 4mk0_ligand
REMARK  4 active torsions:
REMARK  status: ('A' for Active; 'I' for Inactive)
REMARK    1  A    between atoms: C1_7  and  C7_8
REMARK    2  A    between atoms: C12_13  and  C13_14
REMARK    3  A    between atoms: C13_14  and  O14_15
REMARK    4  A    between atoms: O14_15  and  C15_16
REMARK                            x       y       z     vdW  Elec       q    Type
REMARK                         _______ _______ _______ _____ _____    ______ ____
ROOT
ATOM      6  C   UNL     1     -17.530  29.428  17.781  0.00  0.00    +0.052 C 
ATOM      7  C   UNL     1     -18.276  29.181  19.092  0.00  0.00    +0.079 C 
ATOM     21  C   UNL     1     -18.829  30.485  19.658  0.00  0.00    +0.138 C 
ATOM     22  N   UNL     1     -17.792  31.500  19.745  0.00  0.00    +0.228 N 
ATOM     23  H   UNL     1     -17.167  31.217  20.484  0.00  0.00    +0.201 HD
ATOM     24  H   UNL     1     -18.247  32.362  20.002  0.00  0.00    +0.201 HD
ATOM     25  C   UNL     1     -16.972  31.787  18.590  0.00  0.00    +0.131 C 
ATOM     26  C   UNL     1     -16.448  30.500  17.958  0.00  0.00    +0.068 C 
ENDROOT
BRANCH   6   5
ATOM      1  F   UNL     1     -15.210  24.668  15.839  0.00  0.00    -0.189 F 
ATOM      2  C   UNL     1     -15.771  25.803  16.289  0.00  0.00    +0.125 A 
ATOM      3  C   UNL     1     -16.676  26.515  15.506  0.00  0.00    +0.024 A 
ATOM      4  C   UNL     1     -17.251  27.695  15.984  0.00  0.00    -0.007 A 
ATOM      5  C   UNL     1     -16.924  28.167  17.259  0.00  0.00    -0.043 A 
ATOM     27  C   UNL     1     -16.018  27.439  18.035  0.00  0.00    -0.007 A 
ATOM     28  C   UNL     1     -15.443  26.264  17.556  0.00  0.00    +0.024 A 
ENDBRANCH   6   5
BRANCH   7   8
ATOM      8  C   UNL     1     -19.410  28.179  18.919  0.00  0.00    +0.206 C 
BRANCH   8   9
ATOM      9  O   UNL     1     -20.071  28.300  17.649  0.00  0.00    -0.316 OA
BRANCH   9  10
ATOM     10  C   UNL     1     -21.276  27.671  17.437  0.00  0.00    +0.090 A 
ATOM     11  C   UNL     1     -22.137  28.151  16.445  0.00  0.00    +0.017 A 
ATOM     12  C   UNL     1     -23.371  27.534  16.212  0.00  0.00    +0.006 A 
ATOM     13  C   UNL     1     -23.717  26.445  16.994  0.00  0.00    +0.042 A 
ATOM     14  C   UNL     1     -22.876  25.966  17.970  0.00  0.00    -0.009 A 
ATOM     15  C   UNL     1     -23.410  24.818  18.691  0.00  0.00    +0.204 C 
ATOM     16  N   UNL     1     -24.717  24.600  18.057  0.00  0.00    -0.277 N 
ATOM     17  H   UNL     1     -25.372  23.884  18.299  0.00  0.00    +0.187 HD
ATOM     18  C   UNL     1     -24.884  25.520  17.101  0.00  0.00    +0.194 C 
ATOM     19  O   UNL     1     -25.942  25.568  16.378  0.00  0.00    -0.393 OA
ATOM     20  C   UNL     1     -21.649  26.563  18.207  0.00  0.00    +0.025 A 
ENDBRANCH   9  10
ENDBRANCH   8   9
ENDBRANCH   7   8
TORSDOF 4
