REMARK  Name = 3v5l_ligand
REMARK  10 active torsions:
REMARK  status: ('A' for Active; 'I' for Inactive)
REMARK    1  A    between atoms: CBE_1  and  OBD_2
REMARK    2  A    between atoms: OBD_2  and  CBA_3
REMARK    3  A    between atoms: CAX_8  and  CAG_9
REMARK    4  A    between atoms: CAC_13  and  CAJ_14
REMARK    5  A    between atoms: CAJ_14  and  CAK_15
REMARK    6  A    between atoms: CAJ_14  and  CAM_17
REMARK    7  A    between atoms: CAJ_14  and  OAL_19
REMARK    8  A    between atoms: CAK_15  and  CAO_16
REMARK    9  A    between atoms: CAM_17  and  CAN_18
REMARK   10  A    between atoms: CAF_23  and  CAP_24
REMARK                            x       y       z     vdW  Elec       q    Type
REMARK                         _______ _______ _______ _____ _____    ______ ____
ROOT
ATOM      7  C   UNL     1       8.389   6.300   0.315  0.00  0.00    +0.018 A 
ATOM      8  C   UNL     1       8.177   5.141  -0.444  0.00  0.00    +0.108 A 
ATOM     18  N   UNL     1       6.907   4.778  -0.240  0.00  0.00    -0.252 N 
ATOM     19  H   UNL     1       6.455   3.985  -0.695  0.00  0.00    +0.233 HD
ATOM     20  C   UNL     1       6.309   5.584   0.633  0.00  0.00    +0.099 A 
ATOM     21  C   UNL     1       5.023   5.573   1.176  0.00  0.00    +0.063 A 
ATOM     22  C   UNL     1       4.641   6.546   2.105  0.00  0.00    -0.056 A 
ATOM     30  C   UNL     1       5.567   7.521   2.497  0.00  0.00    +0.001 A 
ATOM     31  C   UNL     1       6.862   7.522   1.971  0.00  0.00    +0.010 A 
ATOM     32  C   UNL     1       7.228   6.552   1.033  0.00  0.00    +0.015 A 
ENDROOT
BRANCH   8   9
ATOM      9  C   UNL     1       9.017   4.483  -1.360  0.00  0.00    +0.104 A 
ATOM     10  N   UNL     1       8.683   3.364  -2.007  0.00  0.00    -0.198 NA
ATOM     11  N   UNL     1       9.578   2.998  -2.776  0.00  0.00    -0.220 N 
ATOM     12  H   UNL     1       9.536   2.152  -3.344  0.00  0.00    +0.250 HD
ATOM     13  C   UNL     1      10.608   3.848  -2.771  0.00  0.00    +0.082 A 
ATOM     14  C   UNL     1      11.811   4.029  -3.362  0.00  0.00    +0.004 A 
ATOM     15  C   UNL     1      12.514   5.107  -2.987  0.00  0.00    +0.066 A 
ATOM     16  S   UNL     1      11.577   5.916  -1.842  0.00  0.00    -0.054 S 
ATOM     17  C   UNL     1      10.263   4.854  -1.862  0.00  0.00    +0.070 A 
ENDBRANCH   8   9
BRANCH   7   6
ATOM      3  C   UNL     1      11.911   8.433   1.072  0.00  0.00    +0.089 A 
ATOM      4  C   UNL     1      10.908   9.004   0.290  0.00  0.00    +0.019 A 
ATOM      5  C   UNL     1       9.729   8.300   0.035  0.00  0.00    -0.011 A 
ATOM      6  C   UNL     1       9.566   7.009   0.536  0.00  0.00    -0.037 A 
ATOM     33  C   UNL     1      10.555   6.454   1.351  0.00  0.00    -0.011 A 
ATOM     34  C   UNL     1      11.737   7.152   1.598  0.00  0.00    +0.019 A 
BRANCH   3   2
ATOM      1  C   UNL     1      14.083   8.733   0.415  0.00  0.00    +0.232 C 
ATOM      2  O   UNL     1      13.054   9.127   1.327  0.00  0.00    -0.322 OA
ENDBRANCH   3   2
ENDBRANCH   7   6
BRANCH  22  23
ATOM     23  C   UNL     1       3.212   6.546   2.695  0.00  0.00    +0.028 C 
BRANCH  23  24
ATOM     24  O   UNL     1       2.532   5.319   2.401  0.00  0.00    -0.445 OA
ATOM     25  H   UNL     1       2.483   5.202   1.449  0.00  0.00    +0.189 HD
ENDBRANCH  23  24
BRANCH  23  26
ATOM     26  C   UNL     1       2.414   7.714   2.108  0.00  0.00    -0.037 C 
ATOM     27  C   UNL     1       2.064   7.479   0.636  0.00  0.00    -0.008 C 
ENDBRANCH  23  26
BRANCH  23  28
ATOM     28  C   UNL     1       3.276   6.707   4.218  0.00  0.00    -0.037 C 
ATOM     29  C   UNL     1       4.025   5.543   4.876  0.00  0.00    -0.008 C 
ENDBRANCH  23  28
ENDBRANCH  22  23
TORSDOF 7
