REMARK  Name = 3rhx_ligand
REMARK  1 active torsions:
REMARK  status: ('A' for Active; 'I' for Inactive)
REMARK    1  A    between atoms: C9_9  and  C10_10
REMARK                            x       y       z     vdW  Elec       q    Type
REMARK                         _______ _______ _______ _____ _____    ______ ____
ROOT
ATOM      1  C   UNL     1      65.883   2.249   9.010  0.00  0.00    +0.053 A 
ATOM      2  C   UNL     1      65.372   3.635   9.140  0.00  0.00    +0.005 A 
ATOM      3  C   UNL     1      64.624   4.189   8.106  0.00  0.00    +0.007 A 
ATOM      4  C   UNL     1      64.130   5.497   8.211  0.00  0.00    -0.008 A 
ATOM      5  C   UNL     1      64.381   6.225   9.373  0.00  0.00    -0.003 A 
ATOM      6  C   UNL     1      65.120   5.637  10.410  0.00  0.00    +0.003 A 
ATOM      7  C   UNL     1      65.627   4.347  10.313  0.00  0.00    -0.013 A 
ATOM      8  C   UNL     1      66.400   3.713  11.420  0.00  0.00    +0.103 C 
ATOM     15  C   UNL     1      67.436   2.662  10.927  0.00  0.00    +0.104 C 
ATOM     16  N   UNL     1      65.368   1.454   8.062  0.00  0.00    -0.261 NA
ATOM     17  C   UNL     1      65.788   0.188   7.959  0.00  0.00    +0.178 A 
ATOM     18  N   UNL     1      66.737  -0.308   8.791  0.00  0.00    -0.265 NA
ATOM     19  C   UNL     1      67.289   0.447   9.738  0.00  0.00    +0.096 A 
ATOM     20  N   UNL     1      65.192  -0.555   6.996  0.00  0.00    -0.307 N 
ATOM     21  H   UNL     1      65.455  -1.543   6.871  0.00  0.00    +0.180 HD
ATOM     22  H   UNL     1      64.476  -0.132   6.388  0.00  0.00    +0.180 HD
ATOM     23  C   UNL     1      66.861   1.757   9.875  0.00  0.00    +0.005 A 
ENDROOT
BRANCH   8   9
ATOM      9  C   UNL     1      67.112   4.627  12.334  0.00  0.00    -0.026 A 
ATOM     10  C   UNL     1      66.865   4.495  13.723  0.00  0.00    -0.002 A 
ATOM     11  C   UNL     1      67.507   5.297  14.681  0.00  0.00    -0.008 A 
ATOM     12  C   UNL     1      68.437   6.230  14.172  0.00  0.00    -0.012 A 
ATOM     13  C   UNL     1      68.698   6.366  12.792  0.00  0.00    -0.008 A 
ATOM     14  C   UNL     1      68.052   5.572  11.855  0.00  0.00    -0.002 A 
ENDBRANCH   8   9
TORSDOF 1
