REMARK  Name = 3LFE
REMARK  12 active torsions:
REMARK  status: ('A' for Active; 'I' for Inactive)
REMARK    1  A    between atoms: C_1  and  C_27
REMARK    2  A    between atoms: C_2  and  C_35
REMARK    3  A    between atoms: C_3  and  C_35
REMARK    4  A    between atoms: C_4  and  C_35
REMARK    5  A    between atoms: C_16  and  C_17
REMARK    6  A    between atoms: C_16  and  O_24
REMARK    7  A    between atoms: C_17  and  C_29
REMARK    8  A    between atoms: C_18  and  O_24
REMARK    9  A    between atoms: C_18  and  C_28
REMARK   10  A    between atoms: N_22  and  C_31
REMARK   11  A    between atoms: C_30  and  N_34
REMARK   12  A    between atoms: C_32  and  C_35
REMARK                            x       y       z     vdW  Elec       q    Type
REMARK                         _______ _______ _______ _____ _____    ______ ____
ROOT
ATOM      8  N   UNL     1      18.673  -6.111 -16.823  0.00  0.00    -0.254 N 
ATOM      9  H   UNL     1      19.436  -6.285 -16.093  0.00  0.00    +0.158 HD
ATOM     10  C   UNL     1      18.903  -5.153 -17.711  0.00  0.00    +0.311 C 
ATOM     11  N   UNL     1      20.057  -4.521 -17.511  0.00  0.00    -0.248 N 
ATOM     12  H   UNL     1      20.677  -4.780 -16.678  0.00  0.00    +0.158 HD
ATOM     13  C   UNL     1      20.429  -3.573 -18.348  0.00  0.00    +0.166 A 
ATOM     14  S   UNL     1      19.393  -2.410 -18.997  0.00  0.00    -0.060 S 
ATOM     15  C   UNL     1      20.631  -1.711 -19.922  0.00  0.00    +0.071 A 
ATOM     16  C   UNL     1      21.784  -2.382 -19.718  0.00  0.00    +0.053 A 
ATOM     27  N   UNL     1      21.666  -3.416 -18.850  0.00  0.00    -0.230 NA
ATOM     28  O   UNL     1      18.105  -4.850 -18.609  0.00  0.00    -0.252 OA
ENDROOT
BRANCH   8   7
ATOM      6  N   UNL     1      17.201  -7.456 -15.621  0.00  0.00    -0.218 N 
ATOM      7  C   UNL     1      17.589  -6.876 -16.751  0.00  0.00    +0.130 A 
ATOM     29  C   UNL     1      16.734  -7.195 -17.716  0.00  0.00    +0.069 A 
ATOM     30  C   UNL     1      15.834  -7.956 -17.096  0.00  0.00    +0.071 A 
ATOM     35  N   UNL     1      16.179  -8.103 -15.825  0.00  0.00    -0.169 NA
BRANCH   6   5
ATOM      1  C   UNL     1      20.101  -7.173 -10.718  0.00  0.00    +0.044 C 
ATOM      2  C   UNL     1      19.318  -7.258 -12.044  0.00  0.00    -0.050 A 
ATOM      3  C   UNL     1      18.851  -6.094 -12.664  0.00  0.00    +0.005 A 
ATOM      4  C   UNL     1      18.145  -6.143 -13.875  0.00  0.00    +0.028 A 
ATOM      5  C   UNL     1      17.865  -7.367 -14.456  0.00  0.00    +0.067 A 
ATOM     36  C   UNL     1      18.338  -8.539 -13.848  0.00  0.00    +0.028 A 
ATOM     37  C   UNL     1      19.054  -8.487 -12.644  0.00  0.00    +0.005 A 
ENDBRANCH   6   5
BRANCH  30  31
ATOM     31  C   UNL     1      14.625  -8.642 -17.777  0.00  0.00    +0.006 C 
ATOM     32  C   UNL     1      13.570  -9.146 -16.812  0.00  0.00    +0.017 C 
ATOM     33  C   UNL     1      15.236  -9.858 -18.467  0.00  0.00    +0.017 C 
ATOM     34  C   UNL     1      13.999  -7.706 -18.820  0.00  0.00    +0.017 C 
ENDBRANCH  30  31
ENDBRANCH   8   7
BRANCH  16  17
ATOM     17  C   UNL     1      23.099  -1.990 -20.403  0.00  0.00    +0.084 C 
BRANCH  17  18
ATOM     18  C   UNL     1      22.909  -0.907 -21.493  0.00  0.00    +0.166 C 
BRANCH  18  19
ATOM     19  O   UNL     1      22.240   0.331 -21.095  0.00  0.00    -0.375 OA
BRANCH  19  20
ATOM     20  C   UNL     1      21.996   1.298 -22.184  0.00  0.00    +0.195 C 
BRANCH  20  21
ATOM     21  C   UNL     1      21.213   1.043 -23.341  0.00  0.00    -0.019 A 
ATOM     22  C   UNL     1      20.572  -0.182 -23.567  0.00  0.00    +0.025 A 
ATOM     23  C   UNL     1      19.816  -0.366 -24.734  0.00  0.00    +0.111 A 
ATOM     24  N   UNL     1      19.694   0.607 -25.633  0.00  0.00    -0.263 NA
ATOM     25  C   UNL     1      20.285   1.790 -25.460  0.00  0.00    +0.111 A 
ATOM     26  C   UNL     1      21.058   2.040 -24.315  0.00  0.00    +0.025 A 
ENDBRANCH  20  21
ENDBRANCH  19  20
ENDBRANCH  18  19
ENDBRANCH  17  18
ENDBRANCH  16  17
TORSDOF 8
