REMARK  Name = 4FTC
REMARK  4 active torsions:
REMARK  status: ('A' for Active; 'I' for Inactive)
REMARK    1  A    between atoms: C_2  and  C_3
REMARK    2  A    between atoms: C_8  and  N_9
REMARK    3  A    between atoms: N_12  and  C_13
REMARK    4  A    between atoms: C_16  and  C_18
REMARK                            x       y       z     vdW  Elec       q    Type
REMARK                         _______ _______ _______ _____ _____    ______ ____
ROOT
ATOM      7  N   UNL     1      14.876  -2.540   9.593  0.00  0.00    -0.232 N 
ATOM      8  H   UNL     1      14.421  -1.730   9.184  0.00  0.00    +0.160 HD
ATOM      9  C   UNL     1      16.178  -2.771   9.223  0.00  0.00    +0.397 C 
ATOM     10  N   UNL     1      16.817  -3.851   9.857  0.00  0.00    -0.157 N 
ATOM     11  H   UNL     1      16.323  -4.455  10.507  0.00  0.00    +0.303 HD
ATOM     25  O   UNL     1      16.768  -2.068   8.406  0.00  0.00    -0.223 OA
ENDROOT
BRANCH  10  12
ATOM     12  C   UNL     1      18.154  -4.203   9.664  0.00  0.00    +0.280 C 
ATOM     13  C   UNL     1      19.148  -3.635   8.865  0.00  0.00    +0.100 C 
ATOM     14  C   UNL     1      20.286  -4.352   9.141  0.00  0.00    +0.135 C 
ATOM     21  N   UNL     1      19.936  -5.270  10.068  0.00  0.00    -0.152 NA
ATOM     22  H   UNL     1      20.488  -5.969  10.551  0.00  0.00    +0.171 HD
ATOM     23  N   UNL     1      18.613  -5.209  10.403  0.00  0.00    -0.160 N 
ATOM     24  H   UNL     1      18.075  -5.823  11.094  0.00  0.00    +0.318 HD
BRANCH  14  15
ATOM     15  C   UNL     1      21.646  -4.262   8.572  0.00  0.00    -0.018 A 
ATOM     16  C   UNL     1      22.016  -3.157   7.809  0.00  0.00    +0.006 A 
ATOM     17  C   UNL     1      23.304  -3.052   7.303  0.00  0.00    +0.000 A 
ATOM     18  C   UNL     1      24.236  -4.034   7.562  0.00  0.00    +0.000 A 
ATOM     19  C   UNL     1      23.877  -5.141   8.302  0.00  0.00    +0.000 A 
ATOM     20  C   UNL     1      22.586  -5.266   8.794  0.00  0.00    +0.006 A 
ENDBRANCH  14  15
ENDBRANCH  10  12
BRANCH   7   6
ATOM      3  C   UNL     1      12.355  -4.518  12.148  0.00  0.00    +0.158 A 
ATOM      4  C   UNL     1      13.633  -5.064  11.805  0.00  0.00    +0.151 A 
ATOM      5  N   UNL     1      14.453  -4.405  10.977  0.00  0.00    -0.236 NA
ATOM      6  C   UNL     1      14.023  -3.237  10.464  0.00  0.00    +0.146 A 
ATOM     26  C   UNL     1      12.754  -2.723  10.783  0.00  0.00    +0.156 A 
ATOM     27  N   UNL     1      11.941  -3.341  11.648  0.00  0.00    -0.240 NA
BRANCH   3   2
ATOM      1  N   UNL     1      10.770  -5.833  13.679  0.00  0.00    -0.189 NA
ATOM      2  C   UNL     1      11.468  -5.237  13.003  0.00  0.00    +0.121 C 
ENDBRANCH   3   2
ENDBRANCH   7   6
TORSDOF 4
