REMARK  Name = 4dfl_ligand
REMARK  7 active torsions:
REMARK  status: ('A' for Active; 'I' for Inactive)
REMARK    1  A    between atoms: C1_1  and  C7_7
REMARK    2  A    between atoms: C4_4  and  N24_23
REMARK    3  A    between atoms: C11_10  and  C13_26
REMARK    4  A    between atoms: C16_13  and  C17_14
REMARK    5  A    between atoms: C16_13  and  N15_27
REMARK    6  A    between atoms: C27_20  and  S25_22
REMARK    7  A    between atoms: S25_22  and  N24_23
REMARK                            x       y       z     vdW  Elec       q    Type
REMARK                         _______ _______ _______ _____ _____    ______ ____
ROOT
ATOM      2  C   UNL     1       2.080  -0.849  14.863  0.00  0.00    +0.070 A 
ATOM      3  N   UNL     1       2.742   0.153  14.204  0.00  0.00    -0.261 NA
ATOM      4  C   UNL     1       4.073   0.412  14.436  0.00  0.00    +0.169 A 
ATOM     18  C   UNL     1       4.741  -0.355  15.371  0.00  0.00    +0.161 A 
ATOM     19  N   UNL     1       6.084  -0.151  15.683  0.00  0.00    -0.311 N 
ATOM     20  H   UNL     1       6.608   0.591  15.220  0.00  0.00    +0.182 HD
ATOM     21  H   UNL     1       6.543  -0.744  16.375  0.00  0.00    +0.182 HD
ATOM     22  N   UNL     1       4.077  -1.383  16.035  0.00  0.00    -0.253 NA
ATOM     23  C   UNL     1       2.755  -1.636  15.781  0.00  0.00    +0.130 A 
ENDROOT
BRANCH   2   1
ATOM      1  C   UNL     1       0.680  -1.019  14.519  0.00  0.00    -0.017 A 
ATOM     24  C   UNL     1      -0.141  -1.936  15.164  0.00  0.00    -0.021 A 
ATOM     25  C   UNL     1      -1.463  -2.035  14.788  0.00  0.00    -0.019 A 
ATOM     26  C   UNL     1      -1.967  -1.229  13.786  0.00  0.00    +0.004 A 
ATOM     27  C   UNL     1      -1.150  -0.316  13.128  0.00  0.00    +0.063 A 
ATOM     34  C   UNL     1       0.178  -0.204  13.515  0.00  0.00    +0.012 A 
BRANCH  27  28
ATOM     28  N   UNL     1      -1.725   0.508  12.127  0.00  0.00    -0.192 N 
ATOM     29  H   UNL     1      -2.665   0.272  11.810  0.00  0.00    +0.216 HD
BRANCH  28  30
ATOM     30  S   UNL     1      -1.003   1.810  11.437  0.00  0.00    +0.057 S 
ATOM     31  O   UNL     1      -1.607   2.094  10.151  0.00  0.00    -0.150 OA
ATOM     32  C   UNL     1      -1.329   3.187  12.551  0.00  0.00    +0.225 C 
ATOM     33  O   UNL     1       0.413   1.600  11.263  0.00  0.00    -0.150 OA
ENDBRANCH  28  30
ENDBRANCH  27  28
ENDBRANCH   2   1
BRANCH   4   5
ATOM      5  C   UNL     1       4.645   1.549  13.692  0.00  0.00    +0.225 C 
ATOM      6  N   UNL     1       3.822   2.136  12.766  0.00  0.00    -0.285 N 
ATOM      7  H   UNL     1       2.897   1.732  12.621  0.00  0.00    +0.185 HD
ATOM     17  O   UNL     1       5.762   1.960  13.934  0.00  0.00    -0.383 OA
BRANCH   6   8
ATOM      8  C   UNL     1       4.195   3.313  11.970  0.00  0.00    +0.138 C 
BRANCH   8   9
ATOM      9  C   UNL     1       2.989   4.253  12.031  0.00  0.00    +0.021 C 
ATOM     10  C   UNL     1       3.133   5.405  11.029  0.00  0.00    +0.056 C 
ATOM     11  C   UNL     1       1.800   6.163  11.019  0.00  0.00    +0.129 C 
ATOM     12  N   UNL     1       1.466   6.654  12.371  0.00  0.00    +0.227 N 
ATOM     13  H   UNL     1       2.160   7.372  12.578  0.00  0.00    +0.201 HD
ATOM     14  H   UNL     1       0.487   6.936  12.323  0.00  0.00    +0.201 HD
ATOM     15  C   UNL     1       1.545   5.693  13.498  0.00  0.00    +0.129 C 
ATOM     16  C   UNL     1       2.827   4.846  13.445  0.00  0.00    +0.056 C 
ENDBRANCH   8   9
ENDBRANCH   6   8
ENDBRANCH   4   5
TORSDOF 6
