REMARK  Name = 3py0_ligand
REMARK  3 active torsions:
REMARK  status: ('A' for Active; 'I' for Inactive)
REMARK    1  A    between atoms: C1'_5  and  C6'_6
REMARK    2  A    between atoms: C2_14  and  O11_15
REMARK    3  A    between atoms: O11_15  and  C12_16
REMARK                            x       y       z     vdW  Elec       q    Type
REMARK                         _______ _______ _______ _____ _____    ______ ____
ROOT
ATOM      3  C   UNL     1     -91.736  80.627  84.272  0.00  0.00    +0.029 C 
ATOM      4  C   UNL     1     -92.510  80.702  85.412  0.00  0.00    +0.038 C 
ATOM      5  C   UNL     1     -93.684  79.895  85.704  0.00  0.00    -0.010 A 
ATOM      6  C   UNL     1     -94.344  78.880  84.968  0.00  0.00    +0.002 A 
ATOM      7  C   UNL     1     -95.500  78.225  85.513  0.00  0.00    +0.072 A 
ATOM     10  C   UNL     1     -95.944  78.640  86.820  0.00  0.00    -0.000 A 
ATOM     11  C   UNL     1     -95.297  79.655  87.576  0.00  0.00    -0.004 A 
ATOM     12  C   UNL     1     -94.161  80.277  86.996  0.00  0.00    +0.058 A 
ATOM     13  N   UNL     1     -93.350  81.288  87.519  0.00  0.00    -0.244 N 
ATOM     14  H   UNL     1     -93.473  81.729  88.408  0.00  0.00    +0.221 HD
ATOM     15  C   UNL     1     -92.352  81.581  86.612  0.00  0.00    +0.213 C 
ATOM     16  O   UNL     1     -91.504  82.449  86.848  0.00  0.00    -0.384 OA
ENDROOT
BRANCH   3   2
ATOM      1  N   UNL     1     -89.866  82.295  84.631  0.00  0.00    -0.312 NA
ATOM      2  C   UNL     1     -90.530  81.354  83.913  0.00  0.00    +0.035 A 
ATOM     17  C   UNL     1     -89.857  81.150  82.720  0.00  0.00    +0.166 A 
ATOM     18  N   UNL     1     -88.766  81.993  82.740  0.00  0.00    -0.252 N 
ATOM     19  H   UNL     1     -88.051  82.094  82.005  0.00  0.00    +0.247 HD
ATOM     20  C   UNL     1     -88.819  82.662  83.915  0.00  0.00    +0.230 A 
ENDBRANCH   3   2
BRANCH   7   8
ATOM      8  O   UNL     1     -96.220  77.228  84.884  0.00  0.00    -0.332 OA
ATOM      9  C   UNL     1     -95.589  76.412  83.899  0.00  0.00    +0.227 C 
ENDBRANCH   7   8
TORSDOF 2
