REMARK  Name = 73B
REMARK  4 active torsions:
REMARK  status: ('A' for Active; 'I' for Inactive)
REMARK    1  A    between atoms: C4_4  and  N1_5
REMARK    2  A    between atoms: N1_5  and  C5_6
REMARK    3  A    between atoms: C13_15  and  C19_23
REMARK    4  A    between atoms: C22_26  and  C25_29
REMARK                            x       y       z     vdW  Elec       q    Type
REMARK                         _______ _______ _______ _____ _____    ______ ____
ROOT
ATOM      1  C   UNL     1       3.101 -27.550  14.538  0.00  0.00    +0.022 C 
ATOM      2  C   UNL     1       4.096 -26.442  14.815  0.00  0.00    +0.082 C 
ATOM      3  C   UNL     1       5.141 -26.840  15.890  0.00  0.00    +0.046 C 
ATOM      4  C   UNL     1       6.606 -26.657  15.467  0.00  0.00    +0.117 C 
ATOM     13  C   UNL     1       6.770 -27.128  14.066  0.00  0.00    +0.011 A 
ATOM     14  C   UNL     1       7.837 -27.961  13.715  0.00  0.00    -0.001 A 
ATOM     15  C   UNL     1       7.970 -28.440  12.406  0.00  0.00    -0.000 A 
ATOM     25  C   UNL     1       7.020 -28.056  11.465  0.00  0.00    +0.001 A 
ATOM     26  C   UNL     1       5.934 -27.273  11.811  0.00  0.00    +0.015 A 
ATOM     27  C   UNL     1       5.826 -26.809  13.103  0.00  0.00    +0.051 A 
ATOM     28  N   UNL     1       4.749 -25.993  13.561  0.00  0.00    -0.261 N 
ATOM     29  C   UNL     1       4.279 -24.884  12.945  0.00  0.00    +0.230 C 
ATOM     30  O   UNL     1       3.547 -24.108  13.532  0.00  0.00    -0.275 OA
ATOM     31  C   UNL     1       4.695 -24.616  11.530  0.00  0.00    +0.095 C 
ENDROOT
BRANCH  15  16
ATOM     16  C   UNL     1       9.101 -29.335  12.017  0.00  0.00    -0.000 A 
ATOM     17  C   UNL     1       9.732 -30.163  12.952  0.00  0.00    +0.000 A 
ATOM     18  C   UNL     1      10.894 -30.868  12.634  0.00  0.00    +0.007 A 
ATOM     19  C   UNL     1      11.442 -30.797  11.358  0.00  0.00    +0.080 A 
ATOM     23  C   UNL     1      10.804 -29.995  10.403  0.00  0.00    +0.007 A 
ATOM     24  C   UNL     1       9.643 -29.295  10.723  0.00  0.00    +0.000 A 
BRANCH  19  20
ATOM     20  C   UNL     1      12.683 -31.561  11.019  0.00  0.00    +0.388 C 
ATOM     21  O   UNL     1      13.335 -32.129  11.979  0.00  0.00    -0.241 OA
ATOM     22  O   UNL     1      13.050 -31.670   9.857  0.00  0.00    -0.241 OA
ENDBRANCH  19  20
ENDBRANCH  15  16
BRANCH   4   5
ATOM      5  N   UNL     1       7.568 -27.322  16.343  0.00  0.00    -0.235 NA
BRANCH   5   6
ATOM      6  C   UNL     1       8.803 -26.739  16.676  0.00  0.00    +0.066 A 
ATOM      7  C   UNL     1       9.581 -27.256  17.739  0.00  0.00    +0.017 A 
ATOM      8  C   UNL     1      10.789 -26.655  18.090  0.00  0.00    +0.013 A 
ATOM      9  C   UNL     1      11.217 -25.536  17.394  0.00  0.00    +0.058 A 
ATOM     10 CL   UNL     1      12.726 -24.752  17.802  0.00  0.00    -0.082 Cl
ATOM     11  C   UNL     1      10.474 -25.015  16.365  0.00  0.00    +0.013 A 
ATOM     12  C   UNL     1       9.265 -25.604  16.005  0.00  0.00    +0.017 A 
ENDBRANCH   5   6
ENDBRANCH   4   5
TORSDOF 4
