REMARK  Name = 4YMJ
REMARK  5 active torsions:
REMARK  status: ('A' for Active; 'I' for Inactive)
REMARK    1  A    between atoms: C_1  and  C_14
REMARK    2  A    between atoms: C_5  and  N_25
REMARK    3  A    between atoms: C_6  and  C_7
REMARK    4  A    between atoms: C_6  and  N_25
REMARK    5  A    between atoms: C_17  and  C_18
REMARK                            x       y       z     vdW  Elec       q    Type
REMARK                         _______ _______ _______ _____ _____    ______ ____
ROOT
ATOM      5  C   UNL     1     -29.970  -6.111  -8.612  0.00  0.00    +0.089 C 
ATOM      6  C   UNL     1     -31.158  -5.528  -8.973  0.00  0.00    +0.112 C 
ATOM      7  N   UNL     1     -31.004  -4.656 -10.020  0.00  0.00    -0.344 NA
ATOM      8  H   UNL     1     -31.762  -4.071 -10.499  0.00  0.00    +0.167 HD
ATOM      9  C   UNL     1     -29.707  -4.696 -10.310  0.00  0.00    +0.131 C 
ATOM     10  C   UNL     1     -28.945  -4.037 -11.305  0.00  0.00    +0.049 C 
ATOM     11  C   UNL     1     -27.618  -4.263 -11.356  0.00  0.00    +0.046 C 
ATOM     12  C   UNL     1     -27.021  -5.124 -10.414  0.00  0.00    +0.112 C 
ATOM     22  N   UNL     1     -27.685  -5.828  -9.464  0.00  0.00    -0.278 NA
ATOM     23  H   UNL     1     -27.213  -6.511  -8.790  0.00  0.00    +0.189 HD
ATOM     24  N   UNL     1     -29.034  -5.564  -9.466  0.00  0.00    -0.236 NA
ENDROOT
BRANCH   5   4
ATOM      1  C   UNL     1     -29.255  -9.172  -5.726  0.00  0.00    +0.052 A 
ATOM      2  C   UNL     1     -28.336  -8.940  -6.739  0.00  0.00    +0.019 A 
ATOM      3  C   UNL     1     -28.564  -7.941  -7.667  0.00  0.00    +0.011 A 
ATOM      4  C   UNL     1     -29.704  -7.152  -7.599  0.00  0.00    +0.002 A 
ATOM     25  C   UNL     1     -30.612  -7.380  -6.572  0.00  0.00    +0.011 A 
ATOM     28  C   UNL     1     -30.394  -8.380  -5.643  0.00  0.00    +0.019 A 
BRANCH   1  26
ATOM     26  C   UNL     1     -29.044 -10.244  -4.785  0.00  0.00    +0.099 C 
ATOM     27  N   UNL     1     -28.881 -11.110  -4.061  0.00  0.00    -0.191 NA
ENDBRANCH   1  26
ENDBRANCH   5   4
BRANCH  12  13
ATOM     13  N   UNL     1     -25.642  -5.182 -10.343  0.00  0.00    -0.325 NA
ATOM     14  H   UNL     1     -25.121  -4.619 -11.006  0.00  0.00    +0.148 HD
BRANCH  13  15
ATOM     15  C   UNL     1     -24.965  -5.616  -9.129  0.00  0.00    +0.138 C 
BRANCH  15  16
ATOM     16  C   UNL     1     -24.647  -7.092  -9.144  0.00  0.00    -0.030 A 
ATOM     17  C   UNL     1     -24.592  -7.792 -10.339  0.00  0.00    +0.005 A 
ATOM     18  C   UNL     1     -24.301  -9.145 -10.354  0.00  0.00    +0.000 A 
ATOM     19  C   UNL     1     -24.066  -9.818  -9.174  0.00  0.00    +0.000 A 
ATOM     20  C   UNL     1     -24.120  -9.133  -7.979  0.00  0.00    +0.000 A 
ATOM     21  C   UNL     1     -24.408  -7.779  -7.965  0.00  0.00    +0.005 A 
ENDBRANCH  15  16
ENDBRANCH  13  15
ENDBRANCH  12  13
TORSDOF 5
