REMARK  Name = 2V7O
REMARK  9 active torsions:
REMARK  status: ('A' for Active; 'I' for Inactive)
REMARK    1  A    between atoms: C_1  and  N_2
REMARK    2  A    between atoms: C_1  and  N_33
REMARK    3  A    between atoms: C_3  and  C_4
REMARK    4  A    between atoms: C_3  and  C_31
REMARK    5  A    between atoms: C_4  and  S_32
REMARK    6  A    between atoms: C_5  and  N_6
REMARK    7  A    between atoms: C_14  and  C_15
REMARK    8  A    between atoms: C_21  and  C_22
REMARK    9  A    between atoms: N_29  and  C_31
REMARK                            x       y       z     vdW  Elec       q    Type
REMARK                         _______ _______ _______ _____ _____    ______ ____
ROOT
ATOM      9  N   UNL     1     -17.781 -28.123  -9.279  0.00  0.00    -0.346 N 
ATOM     10  C   UNL     1     -16.559 -27.963  -9.768  0.00  0.00    +0.095 A 
ATOM     11  C   UNL     1     -15.972 -26.988  -9.084  0.00  0.00    +0.013 A 
ATOM     12  C   UNL     1     -16.869 -26.524  -8.115  0.00  0.00    +0.008 A 
ATOM     13  C   UNL     1     -16.811 -25.539  -7.124  0.00  0.00    +0.010 A 
ATOM     14  C   UNL     1     -17.902 -25.314  -6.289  0.00  0.00    +0.001 A 
ATOM     15  C   UNL     1     -19.054 -26.071  -6.447  0.00  0.00    +0.002 A 
ATOM     16  C   UNL     1     -19.107 -27.051  -7.435  0.00  0.00    +0.026 A 
ATOM     35  C   UNL     1     -18.020 -27.287  -8.267  0.00  0.00    +0.050 A 
ENDROOT
BRANCH  11  17
ATOM     17  C   UNL     1     -14.688 -26.465  -9.274  0.00  0.00    +0.059 C 
ATOM     18  C   UNL     1     -13.743 -26.222  -8.274  0.00  0.00    +0.252 C 
ATOM     19  O   UNL     1     -13.879 -26.435  -7.061  0.00  0.00    -0.270 OA
ATOM     20  N   UNL     1     -12.640 -25.709  -8.824  0.00  0.00    -0.248 N 
ATOM     21  H   UNL     1     -11.756 -25.415  -8.297  0.00  0.00    +0.158 HD
ATOM     22  C   UNL     1     -12.828 -25.626 -10.144  0.00  0.00    +0.252 C 
ATOM     23  O   UNL     1     -11.994 -25.179 -10.930  0.00  0.00    -0.270 OA
ATOM     24  C   UNL     1     -14.105 -26.074 -10.487  0.00  0.00    +0.059 C 
BRANCH  24  25
ATOM     25  C   UNL     1     -14.614 -26.108 -11.808  0.00  0.00    +0.013 A 
ATOM     26  C   UNL     1     -15.946 -25.890 -12.200  0.00  0.00    +0.008 A 
ATOM     27  C   UNL     1     -17.130 -25.586 -11.516  0.00  0.00    +0.010 A 
ATOM     28  C   UNL     1     -18.327 -25.431 -12.213  0.00  0.00    +0.001 A 
ATOM     29  C   UNL     1     -18.340 -25.567 -13.606  0.00  0.00    +0.002 A 
ATOM     30  C   UNL     1     -17.168 -25.859 -14.297  0.00  0.00    +0.026 A 
ATOM     31  C   UNL     1     -15.974 -26.022 -13.588  0.00  0.00    +0.049 A 
ATOM     32  N   UNL     1     -14.729 -26.296 -13.976  0.00  0.00    -0.349 N 
ATOM     33  C   UNL     1     -14.311 -26.507 -15.406  0.00  0.00    +0.149 C 
ATOM     34  C   UNL     1     -13.907 -26.342 -12.926  0.00  0.00    +0.095 A 
ENDBRANCH  24  25
ENDBRANCH  11  17
BRANCH   9   8
ATOM      8  C   UNL     1     -18.698 -29.146  -9.794  0.00  0.00    +0.123 C 
BRANCH   8   7
ATOM      7  C   UNL     1     -19.458 -28.643 -10.997  0.00  0.00    +0.033 C 
BRANCH   7   6
ATOM      6  C   UNL     1     -19.706 -29.795 -11.955  0.00  0.00    +0.078 C 
BRANCH   6   5
ATOM      1  C   UNL     1     -22.134 -29.967 -13.225  0.00  0.00    +0.114 C 
ATOM      5  S   UNL     1     -20.536 -29.245 -13.492  0.00  0.00    -0.096 S 
BRANCH   1   2
ATOM      2  N   UNL     1     -22.704 -29.943 -12.011  0.00  0.00    -0.341 N 
ATOM      3  H   UNL     1     -22.194 -29.485 -11.189  0.00  0.00    +0.144 HD
ATOM      4  H   UNL     1     -23.669 -30.382 -11.864  0.00  0.00    +0.144 HD
ENDBRANCH   1   2
BRANCH   1  36
ATOM     36  N   UNL     1     -22.773 -30.540 -14.251  0.00  0.00    -0.341 N 
ATOM     37  H   UNL     1     -23.738 -30.979 -14.103  0.00  0.00    +0.144 HD
ATOM     38  H   UNL     1     -22.320 -30.559 -15.220  0.00  0.00    +0.144 HD
ENDBRANCH   1  36
ENDBRANCH   6   5
ENDBRANCH   7   6
ENDBRANCH   8   7
ENDBRANCH   9   8
TORSDOF 8
