REMARK  Name = 3QZG
REMARK  1 active torsions:
REMARK  status: ('A' for Active; 'I' for Inactive)
REMARK    1  A    between atoms: C_1  and  N_2
REMARK                            x       y       z     vdW  Elec       q    Type
REMARK                         _______ _______ _______ _____ _____    ______ ____
ROOT
ATOM      1  C   UNL     1      63.175 117.645 -84.073  0.00  0.00    +0.195 C 
ATOM      2  N   UNL     1      63.292 116.978 -82.889  0.00  0.00    -0.299 N 
ATOM      3  H   UNL     1      62.589 117.161 -82.104  0.00  0.00    +0.171 HD
ATOM      4  C   UNL     1      64.305 116.076 -82.700  0.00  0.00    +0.202 C 
ATOM      5  N   UNL     1      64.413 115.450 -81.575  0.00  0.00    -0.268 NA
ATOM      6  H   UNL     1      63.709 115.635 -80.790  0.00  0.00    +0.190 HD
ATOM      7  N   UNL     1      65.206 115.844 -83.714  0.00  0.00    -0.310 N 
ATOM      8  H   UNL     1      65.999 115.141 -83.568  0.00  0.00    +0.170 HD
ATOM      9  C   UNL     1      65.095 116.512 -84.919  0.00  0.00    +0.148 C 
ATOM     10  C   UNL     1      65.975 116.284 -85.958  0.00  0.00    +0.067 C 
ATOM     11  C   UNL     1      65.859 116.976 -87.254  0.00  0.00    +0.190 C 
ATOM     12  O   UNL     1      64.934 117.830 -87.448  0.00  0.00    -0.287 OA
ATOM     13  C   UNL     1      66.805 116.665 -88.297  0.00  0.00    +0.054 C 
ATOM     14  C   UNL     1      67.837 115.716 -88.093  0.00  0.00    +0.042 C 
ATOM     15  C   UNL     1      67.960 115.052 -86.850  0.00  0.00    +0.124 C 
ATOM     16  F   UNL     1      68.951 114.143 -86.670  0.00  0.00    -0.205 F 
ATOM     17  C   UNL     1      67.049 115.325 -85.799  0.00  0.00    +0.053 C 
ATOM     18  N   UNL     1      64.064 117.410 -85.065  0.00  0.00    -0.198 NA
ENDROOT
BRANCH   1  19
ATOM     19  N   UNL     1      62.179 118.533 -84.267  0.00  0.00    -0.329 NA
ATOM     20  H   UNL     1      61.472 118.724 -83.486  0.00  0.00    +0.145 HD
ATOM     21  H   UNL     1      62.095 119.047 -85.202  0.00  0.00    +0.145 HD
ENDBRANCH   1  19
TORSDOF 1
