REMARK  Name = 8QK
REMARK  3 active torsions:
REMARK  status: ('A' for Active; 'I' for Inactive)
REMARK    1  A    between atoms: CAF_2  and  CAW_16
REMARK    2  A    between atoms: CAS_12  and  NAN_21
REMARK    3  A    between atoms: CAU_14  and  OAO_24
REMARK                            x       y       z     vdW  Elec       q    Type
REMARK                         _______ _______ _______ _____ _____    ______ ____
ROOT
ATOM      9  C   UNL     1     -16.978  17.144  47.317  0.00  0.00    +0.092 A 
ATOM     10  C   UNL     1     -17.091  17.003  48.701  0.00  0.00    +0.200 A 
ATOM     11  O   UNL     1     -17.227  18.118  49.469  0.00  0.00    -0.286 OA
ATOM     12  C   UNL     1     -17.093  15.735  49.270  0.00  0.00    +0.042 A 
ATOM     13  C   UNL     1     -16.954  14.654  48.410  0.00  0.00    +0.006 A 
ATOM     14  C   UNL     1     -16.835  14.824  47.091  0.00  0.00    +0.039 A 
ATOM     15  C   UNL     1     -16.699  13.955  46.077  0.00  0.00    +0.051 A 
ATOM     16  C   UNL     1     -16.629  12.614  46.016  0.00  0.00    +0.100 A 
ATOM     17 CL   UNL     1     -16.691  11.559  47.429  0.00  0.00    -0.079 Cl
ATOM     18  C   UNL     1     -16.472  12.016  44.791  0.00  0.00    +0.217 A 
ATOM     19  O   UNL     1     -16.393  10.659  44.734  0.00  0.00    -0.285 OA
ATOM     20  C   UNL     1     -16.393  12.756  43.627  0.00  0.00    +0.100 A 
ATOM     21  C   UNL     1     -16.465  14.132  43.746  0.00  0.00    +0.052 A 
ATOM     22 CL   UNL     1     -16.195  12.025  42.110  0.00  0.00    -0.079 Cl
ATOM     23  C   UNL     1     -16.620  14.687  44.946  0.00  0.00    +0.147 A 
ATOM     24  O   UNL     1     -16.712  15.951  45.268  0.00  0.00    -0.453 OA
ATOM     25  C   UNL     1     -16.842  16.055  46.576  0.00  0.00    +0.150 A 
ENDROOT
BRANCH   9   8
ATOM      7  N   UNL     1     -16.985  19.474  47.367  0.00  0.00    -0.244 NA
ATOM      8  C   UNL     1     -16.920  18.364  46.632  0.00  0.00    +0.105 C 
BRANCH   7   6
ATOM      3  C   UNL     1     -16.852  23.199  45.658  0.00  0.00    +0.139 A 
ATOM      4  C   UNL     1     -16.991  23.053  47.035  0.00  0.00    +0.038 A 
ATOM      5  C   UNL     1     -17.030  21.786  47.596  0.00  0.00    +0.022 A 
ATOM      6  C   UNL     1     -16.935  20.663  46.784  0.00  0.00    +0.082 A 
ATOM     26  C   UNL     1     -16.817  20.799  45.406  0.00  0.00    +0.022 A 
ATOM     27  C   UNL     1     -16.765  22.072  44.843  0.00  0.00    +0.038 A 
BRANCH   3   2
ATOM      1  C   UNL     1     -16.948  25.484  46.087  0.00  0.00    +0.253 C 
ATOM      2  O   UNL     1     -16.821  24.445  45.104  0.00  0.00    -0.471 OA
ENDBRANCH   3   2
ENDBRANCH   7   6
ENDBRANCH   9   8
TORSDOF 3
