REMARK  Name = 3ppk_ligand
REMARK  4 active torsions:
REMARK  status: ('A' for Active; 'I' for Inactive)
REMARK    1  A    between atoms: C8_8  and  C10_10
REMARK    2  A    between atoms: C9_9  and  N11_11
REMARK    3  A    between atoms: N11_11  and  C12_12
REMARK    4  A    between atoms: C18_18  and  O23_23
REMARK                            x       y       z     vdW  Elec       q    Type
REMARK                         _______ _______ _______ _____ _____    ______ ____
ROOT
ATOM      1  C   UNL     1      80.722  10.963  -8.445  0.00  0.00    +0.066 A 
ATOM      2  C   UNL     1      81.216   9.737  -7.940  0.00  0.00    +0.028 A 
ATOM      3  C   UNL     1      82.582   9.465  -8.150  0.00  0.00    +0.049 A 
ATOM      4  C   UNL     1      83.341   8.344  -7.768  0.00  0.00    +0.110 A 
ATOM     19  C   UNL     1      84.619   8.733  -8.290  0.00  0.00    +0.215 A 
ATOM     30  O   UNL     1      84.664   9.979  -8.948  0.00  0.00    -0.247 OA
ATOM     31  C   UNL     1      83.365  10.396  -8.832  0.00  0.00    +0.151 A 
ATOM     32  C   UNL     1      82.807  11.599  -9.310  0.00  0.00    +0.120 A 
ATOM     33  N   UNL     1      81.495  11.856  -9.106  0.00  0.00    -0.311 NA
ENDROOT
BRANCH  19  20
ATOM     20  C   UNL     1      85.833   7.995  -8.216  0.00  0.00    +0.258 C 
ATOM     21  N   UNL     1      86.959   8.719  -8.167  0.00  0.00    -0.211 N 
ATOM     22  H   UNL     1      86.821   9.729  -8.191  0.00  0.00    +0.235 HD
ATOM     23  C   UNL     1      88.311   8.304  -8.087  0.00  0.00    +0.156 A 
ATOM     24  C   UNL     1      88.593   6.937  -7.834  0.00  0.00    +0.077 A 
ATOM     25  C   UNL     1      89.943   6.536  -7.760  0.00  0.00    +0.098 A 
ATOM     26  N   UNL     1      90.926   7.453  -7.929  0.00  0.00    -0.287 NA
ATOM     27  C   UNL     1      90.570   8.738  -8.167  0.00  0.00    +0.176 A 
ATOM     28  N   UNL     1      89.310   9.203  -8.253  0.00  0.00    -0.251 NA
ATOM     29  O   UNL     1      85.766   6.768  -8.167  0.00  0.00    -0.380 OA
ENDBRANCH  19  20
BRANCH   4   5
ATOM      5  N   UNL     1      83.067   7.204  -7.107  0.00  0.00    -0.281 N 
ATOM      6  H   UNL     1      83.875   6.880  -6.575  0.00  0.00    +0.205 HD
BRANCH   5   7
ATOM      7  C   UNL     1      82.024   6.379  -6.957  0.00  0.00    +0.053 A 
ATOM      8  C   UNL     1      80.919   6.412  -7.834  0.00  0.00    +0.003 A 
ATOM      9  C   UNL     1      79.843   5.525  -7.631  0.00  0.00    -0.039 A 
ATOM     10  C   UNL     1      78.739   5.557  -8.506  0.00  0.00    -0.030 A 
ATOM     11  C   UNL     1      77.662   4.669  -8.303  0.00  0.00    -0.022 A 
ATOM     12  C   UNL     1      77.689   3.753  -7.229  0.00  0.00    +0.008 A 
ATOM     13  C   UNL     1      78.795   3.723  -6.354  0.00  0.00    +0.096 A 
ATOM     16  C   UNL     1      79.873   4.609  -6.556  0.00  0.00    +0.009 A 
ATOM     17  C   UNL     1      80.978   4.578  -5.682  0.00  0.00    +0.005 A 
ATOM     18  C   UNL     1      82.054   5.465  -5.883  0.00  0.00    +0.018 A 
BRANCH  13  14
ATOM     14  O   UNL     1      78.818   2.830  -5.311  0.00  0.00    -0.329 OA
ATOM     15  H   UNL     1      79.633   2.939  -4.816  0.00  0.00    +0.252 HD
ENDBRANCH  13  14
ENDBRANCH   5   7
ENDBRANCH   4   5
TORSDOF 4
