REMARK  Name = L26
REMARK  7 active torsions:
REMARK  status: ('A' for Active; 'I' for Inactive)
REMARK    1  A    between atoms: C15_1  and  O1_20
REMARK    2  A    between atoms: C4_4  and  C27_11
REMARK    3  A    between atoms: C3_5  and  C2_15
REMARK    4  A    between atoms: C11_6  and  N10_17
REMARK    5  A    between atoms: C7_9  and  C8_12
REMARK    6  A    between atoms: O1_20  and  C9_22
REMARK    7  A    between atoms: C9_22  and  C10_23
REMARK                            x       y       z     vdW  Elec       q    Type
REMARK                         _______ _______ _______ _____ _____    ______ ____
ROOT
ATOM      6  N   UNL     1       8.531   6.266  -1.566  0.00  0.00    -0.174 NA
ATOM      7  C   UNL     1       9.205   6.324  -0.358  0.00  0.00    +0.286 C 
ATOM      8  O   UNL     1       8.780   6.927   0.619  0.00  0.00    -0.266 OA
ENDROOT
BRANCH   6   5
ATOM      1  C   UNL     1       5.334   7.024  -3.125  0.00  0.00    +0.141 A 
ATOM      2  C   UNL     1       4.988   8.289  -2.639  0.00  0.00    +0.037 A 
ATOM      3  C   UNL     1       5.858   8.922  -1.756  0.00  0.00    +0.004 A 
ATOM      4  C   UNL     1       7.047   8.281  -1.346  0.00  0.00    +0.017 A 
ATOM      5  C   UNL     1       7.357   7.006  -1.833  0.00  0.00    +0.077 A 
ATOM     20  C   UNL     1       6.511   6.401  -2.728  0.00  0.00    +0.053 A 
BRANCH   1  21
ATOM     21  O   UNL     1       4.532   6.332  -3.987  0.00  0.00    -0.466 OA
BRANCH  21  22
ATOM     22  C   UNL     1       3.164   6.697  -4.131  0.00  0.00    +0.293 C 
BRANCH  22  23
ATOM     23  C   UNL     1       2.491   5.609  -4.920  0.00  0.00    +0.305 C 
ATOM     24  N   UNL     1       2.821   4.250  -4.650  0.00  0.00    -0.085 NA
ATOM     25  O   UNL     1       1.681   5.929  -5.767  0.00  0.00    -0.268 OA
ENDBRANCH  22  23
ENDBRANCH  21  22
ENDBRANCH   1  21
ENDBRANCH   6   5
BRANCH   7   9
ATOM      9  C   UNL     1      10.514   5.621  -0.447  0.00  0.00    +0.132 A 
ATOM     10  C   UNL     1      11.747   5.996   0.275  0.00  0.00    +0.004 A 
ATOM     13  C   UNL     1      12.695   5.067  -0.198  0.00  0.00    +0.046 A 
ATOM     17  C   UNL     1      12.029   4.198  -1.214  0.00  0.00    +0.062 A 
ATOM     18  C   UNL     1      12.609   3.042  -2.003  0.00  0.00    +0.052 C 
ATOM     19  N   UNL     1      10.741   4.589  -1.306  0.00  0.00    -0.245 NA
BRANCH  13  14
ATOM     14  C   UNL     1      14.145   4.966   0.134  0.00  0.00    +0.174 C 
ATOM     15  C   UNL     1      14.813   6.233   0.597  0.00  0.00    +0.077 C 
ATOM     16  O   UNL     1      14.790   3.950  -0.075  0.00  0.00    -0.291 OA
ENDBRANCH  13  14
BRANCH  10  11
ATOM     11  C   UNL     1      11.844   7.108   1.317  0.00  0.00    +0.028 C 
ATOM     12  C   UNL     1      11.888   6.384   2.653  0.00  0.00    +0.005 C 
ENDBRANCH  10  11
ENDBRANCH   7   9
TORSDOF 7
