REMARK  Name = 6NG0
REMARK  7 active torsions:
REMARK  status: ('A' for Active; 'I' for Inactive)
REMARK    1  A    between atoms: C22_10  and  C19_16
REMARK    2  A    between atoms: C12_12  and  C18_15
REMARK    3  A    between atoms: N25_19  and  C37_23
REMARK    4  A    between atoms: C37_23  and  C38_24
REMARK    5  A    between atoms: C38_24  and  N4_25
REMARK    6  A    between atoms: N4_25  and  C39_26
REMARK    7  A    between atoms: N4_25  and  C40_27
REMARK                            x       y       z     vdW  Elec       q    Type
REMARK                         _______ _______ _______ _____ _____    ______ ____
ROOT
ATOM      1  C   UNL     1     -31.899 -85.702 -19.114  0.00  0.00    -0.150 C 
ATOM      2  C   UNL     1     -32.434 -84.753 -20.138  0.00  0.00    +0.050 C 
ATOM      3  N   UNL     1     -31.936 -84.752 -21.414  0.00  0.00    -0.150 NA
ATOM      4  C   UNL     1     -32.570 -83.799 -22.177  0.00  0.00    +0.100 C 
ATOM     17  C   UNL     1     -33.517 -83.156 -21.356  0.00  0.00    +0.000 C 
ATOM     18  C   UNL     1     -34.463 -82.066 -21.772  0.00  0.00    -0.150 C 
ATOM     19  C   UNL     1     -33.420 -83.772 -20.067  0.00  0.00    +0.000 C 
ENDROOT
BRANCH   4   5
ATOM      5  C   UNL     1     -32.286 -83.583 -23.545  0.00  0.00    -0.100 C 
ATOM      6  C   UNL     1     -31.434 -84.116 -24.463  0.00  0.00    +0.000 C 
ATOM      7  C   UNL     1     -30.424 -85.218 -24.304  0.00  0.00    +0.600 C 
ATOM      8  O   UNL     1     -30.200 -85.892 -23.292  0.00  0.00    -0.550 OA
ATOM      9  N   UNL     1     -29.818 -85.370 -25.505  0.00  0.00    -0.350 NA
ATOM     10  C   UNL     1     -30.325 -84.485 -26.447  0.00  0.00    +0.050 A 
ATOM     11  C   UNL     1     -29.937 -84.298 -27.773  0.00  0.00    -0.130 A 
ATOM     12  C   UNL     1     -30.573 -83.322 -28.527  0.00  0.00    -0.130 A 
ATOM     13  C   UNL     1     -31.565 -82.569 -27.933  0.00  0.00    +0.300 A 
ATOM     14  F   UNL     1     -32.157 -81.590 -28.664  0.00  0.00    -0.300 F 
ATOM     15  C   UNL     1     -31.975 -82.727 -26.626  0.00  0.00    -0.130 A 
ATOM     16  C   UNL     1     -31.334 -83.699 -25.853  0.00  0.00    +0.000 A 
ENDBRANCH   4   5
BRANCH  19  20
ATOM     20  C   UNL     1     -34.174 -83.491 -18.805  0.00  0.00    +0.600 C 
ATOM     21  O   UNL     1     -34.355 -84.385 -17.975  0.00  0.00    -0.550 OA
ATOM     22  N   UNL     1     -34.581 -82.242 -18.569  0.00  0.00    -0.400 NA
BRANCH  22  23
ATOM     23  C   UNL     1     -35.049 -81.821 -17.252  0.00  0.00    +0.000 C 
BRANCH  23  24
ATOM     24  C   UNL     1     -36.454 -81.221 -17.281  0.00  0.00    +0.100 C 
BRANCH  24  25
ATOM     25  N   UNL     1     -37.552 -82.202 -17.406  0.00  0.00    -0.600 NA
BRANCH  25  26
ATOM     26  C   UNL     1     -37.536 -83.319 -16.426  0.00  0.00    +0.100 C 
ATOM     27  C   UNL     1     -37.655 -84.697 -17.039  0.00  0.00    -0.150 C 
ENDBRANCH  25  26
BRANCH  25  28
ATOM     28  C   UNL     1     -38.857 -81.505 -17.282  0.00  0.00    +0.100 C 
ATOM     29  C   UNL     1     -39.462 -81.017 -18.584  0.00  0.00    -0.150 C 
ENDBRANCH  25  28
ENDBRANCH  24  25
ENDBRANCH  23  24
ENDBRANCH  22  23
ENDBRANCH  19  20
TORSDOF 7
