REMARK  Name = 4pmm_ligand
REMARK  10 active torsions:
REMARK  status: ('A' for Active; 'I' for Inactive)
REMARK    1  A    between atoms: N4_3  and  C16_21
REMARK    2  A    between atoms: N6_5  and  C1_33
REMARK    3  A    between atoms: C9_7  and  C8_24
REMARK    4  A    between atoms: C10_8  and  N3_18
REMARK    5  A    between atoms: C11_9  and  C13_11
REMARK    6  A    between atoms: C8_24  and  N_25
REMARK    7  A    between atoms: C6_28  and  C4_29
REMARK    8  A    between atoms: C_30  and  O1_31
REMARK    9  A    between atoms: O1_31  and  C26_32
REMARK   10  A    between atoms: C23_35  and  C25_36
REMARK                            x       y       z     vdW  Elec       q    Type
REMARK                         _______ _______ _______ _____ _____    ______ ____
ROOT
ATOM      8  C   UNL     1      32.376 -34.119  -8.489  0.00  0.00    +0.063 A 
ATOM      9  N   UNL     1      31.747 -33.803  -9.657  0.00  0.00    -0.218 NA
ATOM     10  N   UNL     1      32.644 -33.689 -10.611  0.00  0.00    -0.089 NA
ATOM     11  N   UNL     1      33.842 -33.930 -10.051  0.00  0.00    -0.149 N 
ATOM     31  C   UNL     1      33.714 -34.210  -8.746  0.00  0.00    +0.194 A 
ENDROOT
BRANCH   8   7
ATOM      1  C   UNL     1      31.548 -35.182  -4.984  0.00  0.00    +0.017 A 
ATOM      2  C   UNL     1      30.374 -34.471  -4.761  0.00  0.00    +0.123 A 
ATOM      3  C   UNL     1      29.849 -33.632  -5.759  0.00  0.00    +0.123 A 
ATOM      6  C   UNL     1      30.494 -33.534  -6.980  0.00  0.00    +0.014 A 
ATOM      7  C   UNL     1      31.664 -34.256  -7.210  0.00  0.00    -0.035 A 
ATOM     38  C   UNL     1      32.182 -35.071  -6.206  0.00  0.00    -0.026 A 
BRANCH   2  32
ATOM     32  N   UNL     1      29.717 -34.609  -3.487  0.00  0.00    -0.224 N 
ATOM     33  C   UNL     1      28.357 -34.525  -3.244  0.00  0.00    +0.116 A 
ATOM     34  C   UNL     1      28.198 -34.797  -1.920  0.00  0.00    -0.008 A 
ATOM     35  N   UNL     1      29.437 -35.044  -1.331  0.00  0.00    -0.324 NA
ATOM     36  C   UNL     1      26.940 -34.856  -1.113  0.00  0.00    +0.064 C 
ATOM     37  C   UNL     1      30.305 -34.918  -2.301  0.00  0.00    +0.226 A 
ENDBRANCH   2  32
BRANCH   3   4
ATOM      4  O   UNL     1      28.729 -32.919  -5.424  0.00  0.00    -0.322 OA
ATOM      5  C   UNL     1      28.285 -31.894  -6.319  0.00  0.00    +0.231 C 
ENDBRANCH   3   4
ENDBRANCH   8   7
BRANCH  11  12
ATOM     12  C   UNL     1      35.057 -33.806 -10.836  0.00  0.00    +0.355 C 
BRANCH  12  13
ATOM     13  C   UNL     1      35.982 -32.756 -10.242  0.00  0.00    +0.244 C 
ATOM     14  N   UNL     1      37.036 -32.423 -11.038  0.00  0.00    -0.201 N 
ATOM     15  H   UNL     1      37.078 -32.864 -11.935  0.00  0.00    +0.234 HD
ATOM     30  O   UNL     1      35.734 -32.157  -9.194  0.00  0.00    -0.380 OA
BRANCH  14  16
ATOM     16  C   UNL     1      38.048 -31.542 -10.734  0.00  0.00    +0.193 A 
ATOM     17  C   UNL     1      38.438 -31.021  -9.540  0.00  0.00    -0.016 A 
ATOM     18  C   UNL     1      39.435 -30.093  -9.839  0.00  0.00    -0.008 A 
ATOM     19  N   UNL     1      39.659 -30.008 -11.147  0.00  0.00    -0.248 NA
ATOM     23  N   UNL     1      38.778 -30.921 -11.703  0.00  0.00    -0.156 N 
BRANCH  23  24
ATOM     24  C   UNL     1      38.718 -31.052 -13.125  0.00  0.00    +0.103 A 
ATOM     25  C   UNL     1      37.496 -31.298 -13.755  0.00  0.00    +0.028 A 
ATOM     26  C   UNL     1      37.454 -31.466 -15.131  0.00  0.00    -0.008 A 
ATOM     27  C   UNL     1      38.617 -31.379 -15.882  0.00  0.00    -0.016 A 
ATOM     28  C   UNL     1      39.826 -31.120 -15.259  0.00  0.00    -0.008 A 
ATOM     29  C   UNL     1      39.886 -30.957 -13.884  0.00  0.00    +0.028 A 
ENDBRANCH  23  24
BRANCH  18  20
ATOM     20  C   UNL     1      40.149 -29.331  -8.779  0.00  0.00    +0.085 C 
ATOM     21  C   UNL     1      41.282 -28.411  -9.129  0.00  0.00    -0.002 C 
ATOM     22  C   UNL     1      39.988 -27.841  -8.699  0.00  0.00    -0.002 C 
ENDBRANCH  18  20
ENDBRANCH  14  16
ENDBRANCH  12  13
ENDBRANCH  11  12
TORSDOF 8
