REMARK  Name = 5VDK
REMARK  9 active torsions:
REMARK  status: ('A' for Active; 'I' for Inactive)
REMARK    1  A    between atoms: C_1  and  N_2
REMARK    2  A    between atoms: N_5  and  C_8
REMARK    3  A    between atoms: C_11  and  N_12
REMARK    4  A    between atoms: N_19  and  C_20
REMARK    5  A    between atoms: C_20  and  C_21
REMARK    6  A    between atoms: C_28  and  C_32
REMARK    7  A    between atoms: C_32  and  C_33
REMARK    8  A    between atoms: C_32  and  C_34
REMARK    9  A    between atoms: C_32  and  O_35
REMARK                            x       y       z     vdW  Elec       q    Type
REMARK                         _______ _______ _______ _____ _____    ______ ____
ROOT
ATOM     10  N   UNL     1     -13.217 -25.770 -13.850  0.00  0.00    -0.213 NA
ATOM     11  C   UNL     1     -12.409 -25.743 -12.746  0.00  0.00    +0.230 C 
ATOM     12  N   UNL     1     -11.219 -25.088 -12.711  0.00  0.00    -0.192 NA
ATOM     13  C   UNL     1     -10.419 -25.061 -11.618  0.00  0.00    +0.172 C 
ATOM     14  N   UNL     1      -9.220 -24.479 -11.400  0.00  0.00    -0.213 N 
ATOM     15  C   UNL     1      -8.602 -23.739 -12.385  0.00  0.00    +0.155 A 
ATOM     16  C   UNL     1      -8.756 -23.956 -13.777  0.00  0.00    +0.048 A 
ATOM     17  C   UNL     1      -8.087 -23.126 -14.694  0.00  0.00    +0.005 A 
ATOM     18  C   UNL     1      -7.263 -22.084 -14.236  0.00  0.00    +0.026 A 
ATOM     19  C   UNL     1      -7.129 -21.886 -12.843  0.00  0.00    +0.074 A 
ATOM     25  N   UNL     1      -7.806 -22.714 -12.015  0.00  0.00    -0.230 NA
ATOM     26  N   UNL     1      -8.834 -24.751 -10.148  0.00  0.00    -0.238 N 
ATOM     30  C   UNL     1      -9.790 -25.511  -9.522  0.00  0.00    +0.279 C 
ATOM     31  O   UNL     1      -9.691 -25.921  -8.314  0.00  0.00    -0.265 OA
ATOM     32  C   UNL     1     -10.815 -25.720 -10.482  0.00  0.00    +0.101 C 
ATOM     33  C   UNL     1     -12.042 -26.407 -10.482  0.00  0.00    +0.102 C 
ATOM     34  N   UNL     1     -12.802 -26.397 -11.617  0.00  0.00    -0.330 N 
ATOM     35  H   UNL     1     -13.736 -26.919 -11.620  0.00  0.00    +0.168 HD
ENDROOT
BRANCH  10   9
ATOM      6  C   UNL     1     -12.751 -24.434 -17.868  0.00  0.00    +0.030 A 
ATOM      7  C   UNL     1     -13.396 -25.645 -17.510  0.00  0.00    +0.025 A 
ATOM      8  C   UNL     1     -13.525 -26.044 -16.170  0.00  0.00    +0.029 A 
ATOM      9  C   UNL     1     -13.020 -25.263 -15.113  0.00  0.00    +0.068 A 
ATOM     36  C   UNL     1     -12.377 -24.047 -15.452  0.00  0.00    +0.029 A 
ATOM     37  C   UNL     1     -12.248 -23.650 -16.795  0.00  0.00    +0.025 A 
BRANCH   6   5
ATOM      1  C   UNL     1     -11.988 -23.000 -23.373  0.00  0.00    +0.105 C 
ATOM      2  N   UNL     1     -12.449 -23.227 -21.974  0.00  0.00    -0.302 NA
ATOM      3  C   UNL     1     -12.671 -24.658 -21.608  0.00  0.00    +0.103 C 
ATOM      4  C   UNL     1     -13.415 -24.694 -20.247  0.00  0.00    +0.120 C 
ATOM      5  N   UNL     1     -12.629 -24.045 -19.205  0.00  0.00    -0.327 N 
ATOM     38  C   UNL     1     -12.243 -22.676 -19.534  0.00  0.00    +0.120 C 
ATOM     39  C   UNL     1     -11.613 -22.540 -20.947  0.00  0.00    +0.103 C 
ENDBRANCH   6   5
ENDBRANCH  10   9
BRANCH  19  20
ATOM     20  C   UNL     1      -6.292 -20.830 -12.209  0.00  0.00    +0.102 C 
ATOM     23  C   UNL     1      -5.084 -21.517 -11.513  0.00  0.00    +0.048 C 
ATOM     24  C   UNL     1      -5.843 -19.711 -13.190  0.00  0.00    +0.048 C 
BRANCH  20  21
ATOM     21  O   UNL     1      -7.046 -20.190 -11.174  0.00  0.00    -0.383 OA
ATOM     22  H   UNL     1      -7.909 -19.756 -11.586  0.00  0.00    +0.211 HD
ENDBRANCH  20  21
ENDBRANCH  19  20
BRANCH  26  27
ATOM     27  C   UNL     1      -7.607 -24.282  -9.502  0.00  0.00    +0.172 C 
BRANCH  27  28
ATOM     28  C   UNL     1      -6.871 -25.228  -8.667  0.00  0.00    -0.012 C 
ATOM     29  C   UNL     1      -6.675 -26.494  -9.042  0.00  0.00    +0.005 C 
ENDBRANCH  27  28
ENDBRANCH  26  27
TORSDOF 6
