REMARK  Name = 4PTG
REMARK  6 active torsions:
REMARK  status: ('A' for Active; 'I' for Inactive)
REMARK    1  A    between atoms: C_1  and  O_2
REMARK    2  A    between atoms: O_2  and  C_3
REMARK    3  A    between atoms: C_4  and  C_21
REMARK    4  A    between atoms: C_7  and  C_9
REMARK    5  A    between atoms: N_15  and  C_16
REMARK    6  A    between atoms: C_16  and  C_18
REMARK                            x       y       z     vdW  Elec       q    Type
REMARK                         _______ _______ _______ _____ _____    ______ ____
ROOT
ATOM      3  C   UNL     1       5.406  -1.704  34.044  0.00  0.00    +0.230 A 
ATOM      4  N   UNL     1       4.560  -1.067  34.881  0.00  0.00    -0.193 NA
ATOM      5  C   UNL     1       4.275  -1.581  36.095  0.00  0.00    +0.164 A 
ATOM     19  N   UNL     1       4.841  -2.725  36.505  0.00  0.00    -0.235 NA
ATOM     20  C   UNL     1       5.687  -3.402  35.716  0.00  0.00    +0.131 A 
ATOM     21  C   UNL     1       5.985  -2.906  34.467  0.00  0.00    +0.116 A 
ENDROOT
BRANCH   5   6
ATOM      6  C   UNL     1       3.375  -0.861  37.032  0.00  0.00    +0.024 C 
ATOM      7  C   UNL     1       2.983   0.439  36.750  0.00  0.00    +0.055 C 
ATOM      8  C   UNL     1       2.169   1.131  37.639  0.00  0.00    +0.124 C 
ATOM      9  N   UNL     1       1.759   2.389  37.384  0.00  0.00    -0.163 NA
ATOM     15  N   UNL     1       1.779   0.527  38.788  0.00  0.00    -0.348 N 
ATOM     16  H   UNL     1       1.145   1.057  39.467  0.00  0.00    +0.167 HD
ATOM     17  C   UNL     1       2.173  -0.732  39.097  0.00  0.00    +0.085 C 
ATOM     18  C   UNL     1       2.993  -1.453  38.232  0.00  0.00    +0.029 C 
BRANCH   9  10
ATOM     10  C   UNL     1       1.937   3.227  36.343  0.00  0.00    +0.241 C 
ATOM     14  O   UNL     1       2.497   2.887  35.302  0.00  0.00    -0.273 OA
BRANCH  10  11
ATOM     11  C   UNL     1       1.420   4.647  36.456  0.00  0.00    +0.077 C 
ATOM     12  C   UNL     1       2.285   5.744  35.823  0.00  0.00    +0.013 C 
ATOM     13  C   UNL     1       0.971   5.326  35.155  0.00  0.00    +0.013 C 
ENDBRANCH  10  11
ENDBRANCH   9  10
ENDBRANCH   5   6
BRANCH  21  22
ATOM     22  C   UNL     1       6.951  -3.689  33.650  0.00  0.00    +0.248 C 
ATOM     23  N   UNL     1       7.319  -3.266  32.436  0.00  0.00    -0.325 N 
ATOM     24  H   UNL     1       8.015  -3.838  31.858  0.00  0.00    +0.145 HD
ATOM     25  H   UNL     1       6.918  -2.355  32.042  0.00  0.00    +0.145 HD
ATOM     26  O   UNL     1       7.453  -4.694  34.127  0.00  0.00    -0.270 OA
ENDBRANCH  21  22
BRANCH   3   2
ATOM      1  C   UNL     1       5.016   0.062  32.441  0.00  0.00    +0.278 C 
ATOM      2  O   UNL     1       5.650  -1.186  32.840  0.00  0.00    -0.479 OA
ENDBRANCH   3   2
TORSDOF 5
