REMARK  Name = 3wf9_ligand
REMARK  9 active torsions:
REMARK  status: ('A' for Active; 'I' for Inactive)
REMARK    1  A    between atoms: C08_8  and  C09_9
REMARK    2  A    between atoms: C09_9  and  O11_11
REMARK    3  A    between atoms: O11_11  and  C12_12
REMARK    4  A    between atoms: C12_12  and  C13_13
REMARK    5  A    between atoms: C12_12  and  C14_14
REMARK    6  A    between atoms: N16_16  and  C17_17
REMARK    7  A    between atoms: C20_20  and  S21_21
REMARK    8  A    between atoms: S21_21  and  N24_24
REMARK    9  A    between atoms: C29_29  and  C30_30
REMARK                            x       y       z     vdW  Elec       q    Type
REMARK                         _______ _______ _______ _____ _____    ______ ____
ROOT
ATOM     11  O   UNL     1     -23.529 -15.910   0.826  0.00  0.00    -0.253 OA
ENDROOT
BRANCH  11  10
ATOM     10  C   UNL     1     -24.673 -15.518   0.142  0.00  0.00    +0.268 C 
ATOM     30  O   UNL     1     -24.556 -14.884  -0.895  0.00  0.00    -0.357 OA
BRANCH  10   9
ATOM      1  N   UNL     1     -28.342 -17.533   0.921  0.00  0.00    -0.296 NA
ATOM      2  C   UNL     1     -27.344 -18.191   0.194  0.00  0.00    +0.040 A 
ATOM      3  C   UNL     1     -27.641 -19.620  -0.287  0.00  0.00    +0.092 C 
ATOM      4  C   UNL     1     -26.444 -20.327  -0.926  0.00  0.00    +0.023 C 
ATOM      5  C   UNL     1     -25.421 -19.441  -1.556  0.00  0.00    +0.002 C 
ATOM      6  C   UNL     1     -24.178 -20.236  -1.837  0.00  0.00    +0.010 C 
ATOM      7  C   UNL     1     -25.064 -18.207  -0.823  0.00  0.00    +0.083 C 
ATOM      8  C   UNL     1     -26.156 -17.557  -0.066  0.00  0.00    +0.014 A 
ATOM      9  C   UNL     1     -25.963 -16.233   0.418  0.00  0.00    +0.084 A 
ATOM     31  C   UNL     1     -26.960 -15.569   1.153  0.00  0.00    +0.012 A 
ATOM     32  C   UNL     1     -26.744 -14.238   1.627  0.00  0.00    +0.012 A 
ATOM     33  C   UNL     1     -27.767 -13.608   2.349  0.00  0.00    +0.002 A 
ATOM     34  C   UNL     1     -28.983 -14.271   2.599  0.00  0.00    +0.003 A 
ATOM     35  C   UNL     1     -29.193 -15.574   2.135  0.00  0.00    +0.018 A 
ATOM     36  C   UNL     1     -28.150 -16.217   1.397  0.00  0.00    +0.037 A 
ENDBRANCH  10   9
ENDBRANCH  11  10
BRANCH  11  12
ATOM     12  C   UNL     1     -22.423 -15.093   0.641  0.00  0.00    +0.267 C 
ATOM     29  C   UNL     1     -21.513 -14.993   1.832  0.00  0.00    +0.069 C 
BRANCH  12  13
ATOM     13  C   UNL     1     -21.731 -15.435  -0.668  0.00  0.00    +0.237 C 
ATOM     14  N   UNL     1     -20.686 -14.559  -1.173  0.00  0.00    -0.232 N 
ATOM     15  H   UNL     1     -20.460 -13.731  -0.661  0.00  0.00    +0.226 HD
ATOM     28  O   UNL     1     -22.084 -16.447  -1.254  0.00  0.00    -0.382 OA
BRANCH  14  16
ATOM     16  C   UNL     1     -19.958 -14.849  -2.401  0.00  0.00    +0.066 A 
ATOM     17  C   UNL     1     -18.796 -14.143  -2.623  0.00  0.00    +0.011 A 
ATOM     18  C   UNL     1     -18.058 -14.411  -3.776  0.00  0.00    +0.011 A 
ATOM     19  C   UNL     1     -18.485 -15.368  -4.677  0.00  0.00    +0.092 A 
ATOM     26  C   UNL     1     -19.645 -16.091  -4.459  0.00  0.00    +0.011 A 
ATOM     27  C   UNL     1     -20.380 -15.825  -3.307  0.00  0.00    +0.011 A 
BRANCH  19  20
ATOM     20  S   UNL     1     -17.518 -15.677  -6.111  0.00  0.00    +0.059 S 
ATOM     24  O   UNL     1     -18.372 -15.872  -7.254  0.00  0.00    -0.152 OA
ATOM     25  O   UNL     1     -16.727 -14.535  -6.428  0.00  0.00    -0.152 OA
BRANCH  20  21
ATOM     21  N   UNL     1     -16.575 -16.984  -5.845  0.00  0.00    -0.263 NA
ATOM     22  H   UNL     1     -16.618 -17.462  -4.968  0.00  0.00    +0.163 HD
ATOM     23  H   UNL     1     -15.954 -17.307  -6.560  0.00  0.00    +0.163 HD
ENDBRANCH  20  21
ENDBRANCH  19  20
ENDBRANCH  14  16
ENDBRANCH  12  13
ENDBRANCH  11  12
TORSDOF 7
