REMARK  Name = CV4
REMARK  5 active torsions:
REMARK  status: ('A' for Active; 'I' for Inactive)
REMARK    1  A    between atoms: C10_1  and  N11_16
REMARK    2  A    between atoms: C22_6  and  C19_22
REMARK    3  A    between atoms: N02_8  and  S03_9
REMARK    4  A    between atoms: S03_9  and  C06_12
REMARK    5  A    between atoms: N15_19  and  C16_20
REMARK                            x       y       z     vdW  Elec       q    Type
REMARK                         _______ _______ _______ _____ _____    ______ ____
ROOT
ATOM      2  N   UNL     1      53.876  47.172  -7.332  0.00  0.00    -0.009 NA
ATOM      3  C   UNL     1      54.709  46.800  -6.274  0.00  0.00    +0.354 C 
ATOM      4  N   UNL     1      55.548  47.674  -5.701  0.00  0.00    -0.007 NA
ATOM      5  C   UNL     1      56.296  47.207  -4.694  0.00  0.00    +0.525 C 
ATOM      6  N   UNL     1      56.285  45.962  -4.204  0.00  0.00    -0.007 NA
ATOM      7  C   UNL     1      55.440  45.109  -4.804  0.00  0.00    +0.354 C 
ATOM      8  N   UNL     1      55.428  43.799  -4.295  0.00  0.00    -0.009 NA
ATOM     19  C   UNL     1      54.625  45.496  -5.851  0.00  0.00    +0.242 C 
ENDROOT
BRANCH   2   1
ATOM      1  C   UNL     1      53.759  48.471  -7.894  0.00  0.00    +0.184 A 
ATOM     20  C   UNL     1      54.505  49.568  -7.483  0.00  0.00    +0.064 A 
ATOM     21  C   UNL     1      54.315  50.782  -8.106  0.00  0.00    +0.127 A 
ATOM     27  C   UNL     1      53.403  50.949  -9.124  0.00  0.00    +0.020 A 
ATOM     28  C   UNL     1      52.657  49.865  -9.534  0.00  0.00    +0.005 A 
ATOM     29  C   UNL     1      52.843  48.642  -8.922  0.00  0.00    +0.044 A 
BRANCH  21  22
ATOM     22  S   UNL     1      55.254  52.184  -7.590  0.00  0.00    +0.077 S 
ATOM     23  O   UNL     1      54.856  52.409  -6.212  0.00  0.00    -0.152 OA
ATOM     26  O   UNL     1      55.167  53.187  -8.641  0.00  0.00    -0.152 OA
BRANCH  22  24
ATOM     24  N   UNL     1      56.832  51.528  -7.531  0.00  0.00    -0.076 NA
ATOM     25  C   UNL     1      57.543  51.417  -8.811  0.00  0.00    +0.136 C 
ENDBRANCH  22  24
ENDBRANCH  21  22
ENDBRANCH   2   1
BRANCH   8   9
ATOM      9  C   UNL     1      54.925  42.610  -4.868  0.00  0.00    +0.183 A 
ATOM     10  C   UNL     1      55.079  41.468  -4.113  0.00  0.00    +0.044 A 
ATOM     11  C   UNL     1      54.628  40.253  -4.573  0.00  0.00    +0.007 A 
ATOM     12  C   UNL     1      54.009  40.152  -5.804  0.00  0.00    +0.072 A 
ATOM     17  C   UNL     1      53.846  41.298  -6.571  0.00  0.00    +0.007 A 
ATOM     18  C   UNL     1      54.303  42.513  -6.103  0.00  0.00    +0.044 A 
BRANCH  12  13
ATOM     13  C   UNL     1      53.549  38.783  -6.250  0.00  0.00    +0.419 C 
ATOM     14  F   UNL     1      52.671  38.197  -5.368  0.00  0.00    -0.166 F 
ATOM     15  F   UNL     1      54.598  37.917  -6.317  0.00  0.00    -0.166 F 
ATOM     16  F   UNL     1      53.018  38.724  -7.517  0.00  0.00    -0.166 F 
ENDBRANCH  12  13
ENDBRANCH   8   9
TORSDOF 5
