REMARK  Name = 4dei_ligand
REMARK  10 active torsions:
REMARK  status: ('A' for Active; 'I' for Inactive)
REMARK    1  A    between atoms: CBF_1  and  CBE_2
REMARK    2  A    between atoms: CBA_6  and  NAZ_7
REMARK    3  A    between atoms: NAR_16  and  CAP_17
REMARK    4  A    between atoms: CAP_17  and  CAQ_18
REMARK    5  A    between atoms: CAP_17  and  CAO_19
REMARK    6  A    between atoms: CAF_28  and  OAE_29
REMARK    7  A    between atoms: OAE_29  and  CAD_30
REMARK    8  A    between atoms: CAD_30  and  CAC_31
REMARK    9  A    between atoms: CAC_31  and  OAB_32
REMARK   10  A    between atoms: OAB_32  and  CAA_33
REMARK                            x       y       z     vdW  Elec       q    Type
REMARK                         _______ _______ _______ _____ _____    ______ ____
ROOT
ATOM     13  C   UNL     1      20.992  30.718  55.448  0.00  0.00    +0.204 C 
ATOM     29  C   UNL     1      20.317  30.401  54.106  0.00  0.00    +0.064 C 
ENDROOT
BRANCH  13  12
ATOM      6  N   UNL     1      24.253  29.784  58.494  0.00  0.00    -0.140 N 
ATOM      7  C   UNL     1      24.148  28.453  58.955  0.00  0.00    +0.182 A 
ATOM      8  C   UNL     1      23.139  27.613  58.482  0.00  0.00    -0.001 A 
ATOM      9  C   UNL     1      22.227  28.096  57.542  0.00  0.00    +0.063 A 
ATOM     10  N   UNL     1      21.179  27.569  56.901  0.00  0.00    -0.214 NA
ATOM     11  N   UNL     1      20.684  28.424  56.149  0.00  0.00    -0.083 NA
ATOM     12  N   UNL     1      21.312  29.491  56.210  0.00  0.00    -0.144 N 
ATOM     30  C   UNL     1      22.318  29.394  57.076  0.00  0.00    +0.192 A 
ATOM     31  C   UNL     1      23.324  30.249  57.535  0.00  0.00    +0.288 A 
ATOM     32  O   UNL     1      23.394  31.402  57.116  0.00  0.00    -0.383 OA
BRANCH   6   5
ATOM      1  C   UNL     1      28.343  31.088  60.954  0.00  0.00    +0.112 C 
ATOM      2  C   UNL     1      27.136  31.278  60.033  0.00  0.00    -0.015 A 
ATOM      3  N   UNL     1      26.879  32.456  59.446  0.00  0.00    -0.313 NA
ATOM      4  S   UNL     1      25.522  32.244  58.551  0.00  0.00    +0.024 S 
ATOM      5  C   UNL     1      25.284  30.625  58.959  0.00  0.00    +0.182 A 
ATOM     33  C   UNL     1      26.279  30.270  59.776  0.00  0.00    +0.023 A 
ENDBRANCH   6   5
ENDBRANCH  13  12
BRANCH  13  14
ATOM     14  C   UNL     1      20.111  31.602  56.339  0.00  0.00    -0.005 A 
ATOM     15  C   UNL     1      18.792  31.251  56.638  0.00  0.00    +0.007 A 
ATOM     16  C   UNL     1      18.019  32.068  57.462  0.00  0.00    +0.017 A 
ATOM     17  C   UNL     1      18.572  33.230  57.995  0.00  0.00    +0.035 A 
ATOM     18  N   UNL     1      17.835  34.022  58.792  0.00  0.00    -0.301 NA
ATOM     19  C   UNL     1      18.336  35.136  59.314  0.00  0.00    +0.124 A 
ATOM     20  C   UNL     1      19.652  35.520  59.057  0.00  0.00    +0.119 A 
ATOM     26  C   UNL     1      20.440  34.729  58.230  0.00  0.00    +0.049 A 
ATOM     27  C   UNL     1      19.892  33.570  57.699  0.00  0.00    -0.012 A 
ATOM     28  C   UNL     1      20.662  32.761  56.876  0.00  0.00    +0.003 A 
BRANCH  20  21
ATOM     21  O   UNL     1      20.175  36.661  59.587  0.00  0.00    -0.309 OA
BRANCH  21  22
ATOM     22  C   UNL     1      20.447  36.499  60.998  0.00  0.00    +0.223 C 
BRANCH  22  23
ATOM     23  C   UNL     1      20.173  37.808  61.711  0.00  0.00    +0.193 C 
BRANCH  23  24
ATOM     24  O   UNL     1      21.392  38.556  61.782  0.00  0.00    -0.380 OA
ATOM     25  C   UNL     1      21.109  39.961  61.662  0.00  0.00    +0.194 C 
ENDBRANCH  23  24
ENDBRANCH  22  23
ENDBRANCH  21  22
ENDBRANCH  20  21
ENDBRANCH  13  14
TORSDOF 7
