REMARK  Name = A1K0
REMARK  5 active torsions:
REMARK  status: ('A' for Active; 'I' for Inactive)
REMARK    1  A    between atoms: O1_1  and  C2_3
REMARK    2  A    between atoms: C2_3  and  C3_4
REMARK    3  A    between atoms: C4_5  and  O2_8
REMARK    4  A    between atoms: C4_5  and  C6_9
REMARK    5  A    between atoms: C6_9  and  C7_12
REMARK                            x       y       z     vdW  Elec       q    Type
REMARK                         _______ _______ _______ _____ _____    ______ ____
ROOT
ATOM      1  O   HOH     1     -17.331  -9.832   6.533  0.00  0.00    +0.000 OA
ENDROOT
TORSDOF 0
