REMARK  Name = IR2
REMARK  3 active torsions:
REMARK  status: ('A' for Active; 'I' for Inactive)
REMARK    1  A    between atoms: C07_5  and  N06_28
REMARK    2  A    between atoms: C10_8  and  N13_29
REMARK    3  A    between atoms: C19_15  and  C24_19
REMARK                            x       y       z     vdW  Elec       q    Type
REMARK                         _______ _______ _______ _____ _____    ______ ____
ROOT
ATOM      7  N   UNL     1     -67.864 199.865 146.782  0.00  0.00    -0.257 N 
ATOM      8  C   UNL     1     -67.936 198.996 147.860  0.00  0.00    +0.267 C 
ATOM      9  C   UNL     1     -67.570 199.545 149.214  0.00  0.00    +0.074 A 
ATOM     10  C   UNL     1     -67.633 198.729 150.360  0.00  0.00    +0.006 A 
ATOM     11  C   UNL     1     -67.308 199.238 151.626  0.00  0.00    +0.000 A 
ATOM     22  C   UNL     1     -66.887 200.574 151.760  0.00  0.00    +0.002 A 
ATOM     23  C   UNL     1     -66.814 201.397 150.647  0.00  0.00    +0.019 A 
ATOM     24  C   UNL     1     -67.163 200.839 149.376  0.00  0.00    +0.088 A 
ATOM     25  N   UNL     1     -67.090 201.707 148.257  0.00  0.00    -0.225 NA
ATOM     26  O   UNL     1     -68.289 197.840 147.672  0.00  0.00    -0.267 OA
ATOM     27  C   UNL     1     -67.430 201.189 146.977  0.00  0.00    +0.185 C 
ENDROOT
BRANCH  11  12
ATOM     12  C   UNL     1     -67.352 198.417 152.764  0.00  0.00    +0.003 A 
ATOM     13  C   UNL     1     -68.029 198.876 153.883  0.00  0.00    +0.021 A 
ATOM     14  C   UNL     1     -68.092 198.097 155.057  0.00  0.00    +0.099 A 
ATOM     15  N   UNL     1     -67.467 196.902 155.067  0.00  0.00    -0.244 NA
ATOM     16  C   UNL     1     -66.752 196.400 153.979  0.00  0.00    +0.081 A 
ATOM     17  C   UNL     1     -66.095 195.124 154.061  0.00  0.00    +0.019 A 
ATOM     18  C   UNL     1     -65.387 194.590 152.981  0.00  0.00    +0.002 A 
ATOM     19  C   UNL     1     -65.268 195.320 151.797  0.00  0.00    +0.000 A 
ATOM     20  C   UNL     1     -65.905 196.576 151.746  0.00  0.00    +0.002 A 
ATOM     21  C   UNL     1     -66.671 197.129 152.828  0.00  0.00    +0.018 A 
ENDBRANCH  11  12
BRANCH   7   6
ATOM      3  C   UNL     1     -68.381 198.930 142.729  0.00  0.00    +0.048 A 
ATOM      4  C   UNL     1     -67.897 197.959 143.603  0.00  0.00    +0.016 A 
ATOM      5  C   UNL     1     -67.736 198.262 144.949  0.00  0.00    +0.019 A 
ATOM      6  C   UNL     1     -68.104 199.516 145.435  0.00  0.00    +0.068 A 
ATOM     28  C   UNL     1     -68.540 200.498 144.560  0.00  0.00    +0.019 A 
ATOM     29  C   UNL     1     -68.685 200.204 143.212  0.00  0.00    +0.016 A 
BRANCH   3   2
ATOM      1  C   UNL     1     -68.032 197.438 140.832  0.00  0.00    +0.123 C 
ATOM      2  N   UNL     1     -68.535 198.666 141.322  0.00  0.00    -0.303 N 
ATOM     30  C   UNL     1     -68.417 199.776 140.458  0.00  0.00    +0.123 C 
ATOM     31  C   UNL     1     -67.258 199.686 139.486  0.00  0.00    +0.164 C 
ATOM     32  O   UNL     1     -66.230 198.787 139.883  0.00  0.00    -0.350 OA
ATOM     33  C   UNL     1     -66.688 197.477 140.118  0.00  0.00    +0.164 C 
ENDBRANCH   3   2
ENDBRANCH   7   6
TORSDOF 3
