REMARK  Name = 6HVI
REMARK  5 active torsions:
REMARK  status: ('A' for Active; 'I' for Inactive)
REMARK    1  A    between atoms: C10_1  and  N4_26
REMARK    2  A    between atoms: C14_5  and  N_18
REMARK    3  A    between atoms: C15_6  and  S_12
REMARK    4  A    between atoms: N_18  and  C_19
REMARK    5  A    between atoms: C2_24  and  C6_25
REMARK                            x       y       z     vdW  Elec       q    Type
REMARK                         _______ _______ _______ _____ _____    ______ ____
ROOT
ATOM      6  C   UNL     1      93.212  49.874 267.699  0.00  0.00    +0.000 A 
ATOM      7  C   UNL     1      94.205  48.811 267.523  0.00  0.00    +0.000 A 
ATOM      8  N   UNL     1      95.461  48.950 267.996  0.00  0.00    -0.380 NA
ATOM      9  C   UNL     1      96.319  47.947 267.838  0.00  0.00    +0.250 A 
ATOM     10  C   UNL     1      95.937  46.761 267.249  0.00  0.00    +0.250 A 
ATOM     11  N   UNL     1      94.683  46.558 266.817  0.00  0.00    -0.380 NA
ATOM     12  C   UNL     1      93.763  47.532 266.973  0.00  0.00    +0.000 A 
ATOM     13  C   UNL     1      92.472  47.394 266.564  0.00  0.00    -0.130 A 
ATOM     14  C   UNL     1      91.547  48.446 266.713  0.00  0.00    +0.050 A 
ATOM     26  C   UNL     1      91.920  49.673 267.281  0.00  0.00    -0.130 A 
ENDROOT
BRANCH   6   5
ATOM      1  C   UNL     1      93.244  52.785 269.996  0.00  0.00    +0.050 A 
ATOM      2  C   UNL     1      94.241  53.569 269.460  0.00  0.00    -0.130 A 
ATOM      3  C   UNL     1      94.908  53.177 268.315  0.00  0.00    -0.130 A 
ATOM      4  C   UNL     1      94.636  51.940 267.766  0.00  0.00    -0.130 A 
ATOM      5  C   UNL     1      93.603  51.164 268.307  0.00  0.00    +0.000 A 
ATOM     30  C   UNL     1      92.927  51.555 269.429  0.00  0.00    -0.130 A 
BRANCH   1  27
ATOM     27  N   UNL     1      92.569  53.182 271.131  0.00  0.00    -0.250 N 
ATOM     28  C   UNL     1      92.876  54.471 271.769  0.00  0.00    -0.050 C 
ATOM     29  C   UNL     1      91.524  52.327 271.699  0.00  0.00    -0.050 C 
ENDBRANCH   1  27
ENDBRANCH   6   5
BRANCH  14  15
ATOM     15  N   UNL     1      90.272  48.372 266.276  0.00  0.00    -0.350 NA
BRANCH  15  16
ATOM     16  C   UNL     1      89.808  47.581 265.264  0.00  0.00    +0.050 A 
ATOM     17  C   UNL     1      90.570  47.316 264.115  0.00  0.00    +0.250 A 
ATOM     18  N   UNL     1      90.139  46.466 263.132  0.00  0.00    -0.760 NA
ATOM     19  C   UNL     1      89.021  45.769 263.298  0.00  0.00    +0.250 A 
ATOM     20  C   UNL     1      88.231  45.915 264.459  0.00  0.00    -0.130 A 
ATOM     21  C   UNL     1      88.559  46.822 265.455  0.00  0.00    +0.060 A 
BRANCH  21  22
ATOM     22  S   UNL     1      87.662  46.988 266.834  0.00  0.00    +1.180 S 
ATOM     23  O   UNL     1      87.314  48.380 266.790  0.00  0.00    -0.650 OA
ATOM     24  O   UNL     1      86.347  46.263 266.737  0.00  0.00    -0.650 OA
ATOM     25  C   UNL     1      88.502  46.472 268.120  0.00  0.00    -0.090 C 
ENDBRANCH  21  22
ENDBRANCH  15  16
ENDBRANCH  14  15
TORSDOF 5
