REMARK  Name = 3rjc_ligand
REMARK  4 active torsions:
REMARK  status: ('A' for Active; 'I' for Inactive)
REMARK    1  A    between atoms: C2_3  and  N3_4
REMARK    2  A    between atoms: C4_5  and  C5_6
REMARK    3  A    between atoms: C5_6  and  C6_7
REMARK    4  A    between atoms: N15_16  and  C16_17
REMARK                            x       y       z     vdW  Elec       q    Type
REMARK                         _______ _______ _______ _____ _____    ______ ____
ROOT
ATOM      7  N   UNL     1     116.892  46.744 -48.083  0.00  0.00    -0.234 N 
ATOM      8  H   UNL     1     116.430  47.320 -48.801  0.00  0.00    +0.224 HD
ATOM      9  C   UNL     1     117.992  46.066 -48.562  0.00  0.00    +0.204 A 
ATOM     10  S   UNL     1     119.015  45.001 -47.604  0.00  0.00    +0.010 S 
ATOM     11  C   UNL     1     119.979  44.658 -49.025  0.00  0.00    +0.092 A 
ATOM     20  C   UNL     1     119.432  45.412 -50.091  0.00  0.00    +0.085 A 
ATOM     24  N   UNL     1     118.327  46.187 -49.813  0.00  0.00    -0.272 NA
ENDROOT
BRANCH   7   6
ATOM      1  F   UNL     1     114.010  49.001 -44.783  0.00  0.00    -0.187 F 
ATOM      2  C   UNL     1     114.790  47.949 -45.112  0.00  0.00    +0.123 A 
ATOM      3  C   UNL     1     114.987  46.885 -44.157  0.00  0.00    +0.011 A 
ATOM      4  C   UNL     1     115.831  45.762 -44.538  0.00  0.00    -0.015 A 
ATOM      5  C   UNL     1     116.458  45.726 -45.850  0.00  0.00    +0.009 A 
ATOM      6  C   UNL     1     116.254  46.822 -46.812  0.00  0.00    +0.068 A 
ATOM     25  C   UNL     1     115.406  47.944 -46.437  0.00  0.00    +0.048 A 
ENDBRANCH   7   6
BRANCH  20  21
ATOM     21  N   UNL     1     119.913  45.389 -51.324  0.00  0.00    -0.332 N 
ATOM     22  H   UNL     1     119.462  45.947 -52.063  0.00  0.00    +0.175 HD
ATOM     23  H   UNL     1     120.738  44.814 -51.544  0.00  0.00    +0.175 HD
ENDBRANCH  20  21
BRANCH  11  12
ATOM     12  C   UNL     1     121.132  43.753 -49.122  0.00  0.00    +0.130 C 
ATOM     13  O   UNL     1     121.737  43.601 -50.212  0.00  0.00    -0.402 OA
BRANCH  12  14
ATOM     14  C   UNL     1     121.605  42.945 -47.931  0.00  0.00    +0.023 A 
ATOM     15  C   UNL     1     123.010  42.918 -47.590  0.00  0.00    +0.022 A 
ATOM     16  C   UNL     1     123.460  42.133 -46.462  0.00  0.00    +0.006 A 
ATOM     17  C   UNL     1     122.513  41.373 -45.673  0.00  0.00    +0.007 A 
ATOM     18  C   UNL     1     121.112  41.391 -46.004  0.00  0.00    +0.006 A 
ATOM     19  C   UNL     1     120.664  42.167 -47.122  0.00  0.00    +0.022 A 
ENDBRANCH  12  14
ENDBRANCH  11  12
TORSDOF 4
