REMARK  Name = 3APF
REMARK  3 active torsions:
REMARK  status: ('A' for Active; 'I' for Inactive)
REMARK    1  A    between atoms: C_9  and  N_10
REMARK    2  A    between atoms: C_24  and  C_25
REMARK    3  A    between atoms: C_30  and  O_31
REMARK                            x       y       z     vdW  Elec       q    Type
REMARK                         _______ _______ _______ _____ _____    ______ ____
ROOT
ATOM      3  N   UNL     1      43.974  16.650  32.650  0.00  0.00    -0.284 N 
ATOM      4  C   UNL     1      44.021  15.456  32.037  0.00  0.00    +0.134 A 
ATOM      5  N   UNL     1      44.968  14.831  31.309  0.00  0.00    -0.199 NA
ATOM      6  C   UNL     1      44.747  13.606  30.792  0.00  0.00    +0.220 A 
ATOM      7  N   UNL     1      43.588  12.977  30.983  0.00  0.00    -0.214 NA
ATOM      8  C   UNL     1      42.600  13.523  31.697  0.00  0.00    +0.081 A 
ATOM     17  N   UNL     1      45.702  12.925  30.050  0.00  0.00    -0.295 N 
ATOM     18  C   UNL     1      47.086  13.396  29.929  0.00  0.00    +0.136 C 
ATOM     19  C   UNL     1      47.612  13.143  28.511  0.00  0.00    +0.178 C 
ATOM     20  O   UNL     1      47.624  11.747  28.410  0.00  0.00    -0.377 OA
ATOM     21  C   UNL     1      46.279  11.358  28.233  0.00  0.00    +0.178 C 
ATOM     22  C   UNL     1      45.346  11.664  29.410  0.00  0.00    +0.136 C 
ATOM     23  C   UNL     1      42.807  14.790  32.234  0.00  0.00    +0.020 A 
ATOM     24  C   UNL     1      41.856  15.641  33.067  0.00  0.00    +0.060 C 
ATOM     25  C   UNL     1      42.739  16.828  33.435  0.00  0.00    +0.117 C 
ENDROOT
BRANCH   3   2
ATOM      1  C   UNL     1      46.184  17.401  32.177  0.00  0.00    +0.053 A 
ATOM      2  C   UNL     1      44.850  17.640  32.502  0.00  0.00    +0.037 A 
ATOM     26  C   UNL     1      44.412  18.961  32.654  0.00  0.00    +0.026 A 
ATOM     27  C   UNL     1      45.294  20.031  32.497  0.00  0.00    +0.029 A 
ATOM     28  C   UNL     1      46.620  19.784  32.168  0.00  0.00    +0.066 A 
ATOM     29  N   UNL     1      47.656  20.586  31.953  0.00  0.00    -0.344 N 
ATOM     30  H   UNL     1      47.642  21.655  31.997  0.00  0.00    +0.167 HD
ATOM     31  C   UNL     1      48.719  19.828  31.672  0.00  0.00    +0.197 A 
ATOM     32  N   UNL     1      48.354  18.545  31.704  0.00  0.00    -0.236 NA
ATOM     33  C   UNL     1      47.059  18.477  32.005  0.00  0.00    +0.090 A 
ENDBRANCH   3   2
BRANCH   8   9
ATOM      9  C   UNL     1      41.394  12.822  31.829  0.00  0.00    +0.004 A 
ATOM     10  C   UNL     1      40.608  12.877  32.980  0.00  0.00    +0.010 A 
ATOM     11  C   UNL     1      39.409  12.166  33.041  0.00  0.00    +0.004 A 
ATOM     12  C   UNL     1      38.985  11.398  31.961  0.00  0.00    +0.045 A 
ATOM     13  C   UNL     1      39.762  11.335  30.801  0.00  0.00    +0.117 A 
ATOM     16  C   UNL     1      40.951  12.058  30.746  0.00  0.00    +0.055 A 
BRANCH  13  14
ATOM     14  O   UNL     1      39.363  10.598  29.711  0.00  0.00    -0.507 OA
ATOM     15  H   UNL     1      39.239  11.234  28.884  0.00  0.00    +0.292 HD
ENDBRANCH  13  14
ENDBRANCH   8   9
TORSDOF 3
