REMARK  Name = 5EM5
REMARK  8 active torsions:
REMARK  status: ('A' for Active; 'I' for Inactive)
REMARK    1  A    between atoms: C_3  and  N_14
REMARK    2  A    between atoms: C_5  and  N_13
REMARK    3  A    between atoms: N_10  and  C_12
REMARK    4  A    between atoms: C_15  and  C_17
REMARK    5  A    between atoms: C_18  and  N_24
REMARK    6  A    between atoms: N_24  and  C_25
REMARK    7  A    between atoms: C_25  and  C_26
REMARK    8  A    between atoms: C_26  and  C_27
REMARK                            x       y       z     vdW  Elec       q    Type
REMARK                         _______ _______ _______ _____ _____    ______ ____
ROOT
ATOM     10  C   UNL     1     -54.572   1.199 -23.926  0.00  0.00    +0.122 C 
ATOM     11  C   UNL     1     -55.606   2.207 -23.972  0.00  0.00    +0.263 C 
ATOM     12  O   UNL     1     -55.930   2.874 -22.996  0.00  0.00    -0.267 OA
ATOM     13  N   UNL     1     -56.265   2.461 -25.130  0.00  0.00    -0.328 N 
ATOM     14  H   UNL     1     -57.024   3.215 -25.136  0.00  0.00    +0.168 HD
ATOM     15  C   UNL     1     -55.998   1.796 -26.280  0.00  0.00    +0.087 C 
ATOM     16  C   UNL     1     -55.054   0.831 -26.305  0.00  0.00    +0.041 C 
ATOM     17  C   UNL     1     -54.312   0.483 -25.143  0.00  0.00    +0.046 C 
ENDROOT
BRANCH  10   9
ATOM      7  N   UNL     1     -53.966   1.693 -21.569  0.00  0.00    -0.281 N 
ATOM      8  H   UNL     1     -54.504   2.605 -21.722  0.00  0.00    +0.155 HD
ATOM      9  C   UNL     1     -53.860   0.878 -22.658  0.00  0.00    +0.255 C 
ATOM     29  O   UNL     1     -53.202  -0.146 -22.584  0.00  0.00    -0.270 OA
BRANCH   7   6
ATOM      3  C   UNL     1     -52.683   1.135 -17.579  0.00  0.00    +0.030 A 
ATOM      4  C   UNL     1     -53.857   1.826 -17.901  0.00  0.00    +0.025 A 
ATOM      5  C   UNL     1     -54.234   1.998 -19.222  0.00  0.00    +0.025 A 
ATOM      6  C   UNL     1     -53.459   1.491 -20.265  0.00  0.00    +0.034 A 
ATOM     30  C   UNL     1     -52.286   0.782 -19.953  0.00  0.00    +0.025 A 
ATOM     31  C   UNL     1     -51.907   0.598 -18.624  0.00  0.00    +0.025 A 
BRANCH   3   2
ATOM      1  C   UNL     1     -53.176  -0.146 -15.608  0.00  0.00    +0.120 C 
ATOM      2  N   UNL     1     -52.377   0.953 -16.209  0.00  0.00    -0.328 N 
ATOM     32  C   UNL     1     -50.940   0.957 -15.828  0.00  0.00    +0.120 C 
ATOM     33  C   UNL     1     -50.772   0.849 -14.295  0.00  0.00    +0.103 C 
ATOM     34  N   UNL     1     -51.602  -0.258 -13.765  0.00  0.00    -0.302 NA
ATOM     35  C   UNL     1     -51.396  -0.483 -12.327  0.00  0.00    +0.105 C 
ATOM     36  C   UNL     1     -53.035  -0.110 -14.081  0.00  0.00    +0.103 C 
ENDBRANCH   3   2
ENDBRANCH   7   6
ENDBRANCH  10   9
BRANCH  17  18
ATOM     18  N   UNL     1     -53.347  -0.521 -25.204  0.00  0.00    -0.343 N 
ATOM     19  H   UNL     1     -52.681  -0.600 -24.371  0.00  0.00    +0.146 HD
BRANCH  18  20
ATOM     20  C   UNL     1     -53.153  -1.486 -26.305  0.00  0.00    +0.106 C 
BRANCH  20  21
ATOM     21  C   UNL     1     -51.870  -1.160 -27.084  0.00  0.00    +0.054 C 
BRANCH  21  22
ATOM     22  C   UNL     1     -52.073   0.142 -27.818  0.00  0.00    -0.046 A 
ATOM     23  C   UNL     1     -52.553   0.149 -29.125  0.00  0.00    +0.005 A 
ATOM     24  C   UNL     1     -52.757   1.369 -29.758  0.00  0.00    +0.020 A 
ATOM     25  C   UNL     1     -52.545   2.562 -29.069  0.00  0.00    +0.041 A 
ATOM     26 CL   UNL     1     -52.831   4.086 -29.830  0.00  0.00    -0.084 Cl
ATOM     27  C   UNL     1     -52.064   2.558 -27.769  0.00  0.00    +0.020 A 
ATOM     28  C   UNL     1     -51.804   1.343 -27.162  0.00  0.00    +0.005 A 
ENDBRANCH  21  22
ENDBRANCH  20  21
ENDBRANCH  18  20
ENDBRANCH  17  18
TORSDOF 7
