REMARK  Name = 4kba_ligand
REMARK  3 active torsions:
REMARK  status: ('A' for Active; 'I' for Inactive)
REMARK    1  A    between atoms: N3_1  and  C13_7
REMARK    2  A    between atoms: C4_2  and  C1_11
REMARK    3  A    between atoms: C6_5  and  C5_15
REMARK                            x       y       z     vdW  Elec       q    Type
REMARK                         _______ _______ _______ _____ _____    ______ ____
ROOT
ATOM      1  N   UNL     1      -6.442   0.527   9.003  0.00  0.00    -0.205 N 
ATOM      2  C   UNL     1      -5.571  -0.041   9.926  0.00  0.00    +0.170 A 
ATOM      3  C   UNL     1      -6.152  -1.249  10.316  0.00  0.00    +0.013 A 
ATOM      4  C   UNL     1      -7.391  -1.331   9.600  0.00  0.00    +0.047 A 
ATOM     25  C   UNL     1      -6.261   1.811   8.318  0.00  0.00    +0.245 C 
ATOM     26  N   UNL     1      -7.549  -0.239   8.792  0.00  0.00    -0.207 NA
ENDROOT
BRANCH   3  12
ATOM     12  C   UNL     1      -5.605  -2.238  11.207  0.00  0.00    +0.009 A 
ATOM     13  C   UNL     1      -4.796  -1.925  12.308  0.00  0.00    +0.126 A 
ATOM     14  O   UNL     1      -4.473  -0.619  12.558  0.00  0.00    -0.310 OA
ATOM     15  C   UNL     1      -3.085  -0.376  12.440  0.00  0.00    +0.243 C 
ATOM     16  C   UNL     1      -2.372  -0.615  13.784  0.00  0.00    +0.164 C 
ATOM     17  N   UNL     1      -2.322  -2.012  14.223  0.00  0.00    +0.241 N 
ATOM     18  H   UNL     1      -1.795  -2.055  15.081  0.00  0.00    +0.203 HD
ATOM     19  H   UNL     1      -1.851  -2.550  13.512  0.00  0.00    +0.203 HD
ATOM     20  C   UNL     1      -3.636  -2.617  14.461  0.00  0.00    +0.209 C 
ATOM     21  C   UNL     1      -4.388  -2.939  13.187  0.00  0.00    +0.095 A 
ATOM     22  N   UNL     1      -4.659  -4.245  12.962  0.00  0.00    -0.312 NA
ATOM     23  C   UNL     1      -5.385  -4.543  11.863  0.00  0.00    +0.053 A 
ATOM     24  C   UNL     1      -5.889  -3.586  10.981  0.00  0.00    +0.007 A 
ENDBRANCH   3  12
BRANCH   4   5
ATOM      5  C   UNL     1      -8.446  -2.325   9.667  0.00  0.00    -0.016 A 
ATOM      6  C   UNL     1      -8.874  -2.803  10.905  0.00  0.00    +0.005 A 
ATOM      7  C   UNL     1      -9.951  -3.672  10.982  0.00  0.00    +0.032 A 
ATOM      8  C   UNL     1     -10.577  -4.075   9.798  0.00  0.00    +0.132 A 
ATOM      9  F   UNL     1     -11.614  -4.901   9.871  0.00  0.00    -0.183 F 
ATOM     10  C   UNL     1     -10.136  -3.632   8.548  0.00  0.00    +0.032 A 
ATOM     11  C   UNL     1      -9.071  -2.743   8.493  0.00  0.00    +0.005 A 
ENDBRANCH   4   5
TORSDOF 2
