REMARK  Name = 5A4Q
REMARK  2 active torsions:
REMARK  status: ('A' for Active; 'I' for Inactive)
REMARK    1  A    between atoms: N_11  and  C_12
REMARK    2  A    between atoms: C_12  and  C_14
REMARK                            x       y       z     vdW  Elec       q    Type
REMARK                         _______ _______ _______ _____ _____    ______ ____
ROOT
ATOM      1  N   UNL     1      -6.989 -30.285   9.411  0.00  0.00    -0.335 N 
ATOM      2  H   UNL     1      -7.760 -30.555   8.720  0.00  0.00    +0.168 HD
ATOM      3  C   UNL     1      -5.773 -30.858   9.410  0.00  0.00    +0.164 A 
ATOM      4  N   UNL     1      -5.423 -31.797   8.547  0.00  0.00    -0.157 NA
ATOM      8  S   UNL     1      -4.851 -30.162  10.617  0.00  0.00    -0.052 S 
ATOM      9  C   UNL     1      -6.056 -29.141  11.126  0.00  0.00    +0.040 A 
ATOM     10  C   UNL     1      -6.023 -28.234  12.099  0.00  0.00    +0.037 A 
ATOM     11  C   UNL     1      -7.142 -27.458  12.389  0.00  0.00    +0.042 A 
ATOM     12 CL   UNL     1      -7.065 -26.298  13.683  0.00  0.00    -0.084 Cl
ATOM     13  C   UNL     1      -8.294 -27.640  11.624  0.00  0.00    +0.022 A 
ATOM     14  C   UNL     1      -8.250 -28.596  10.607  0.00  0.00    +0.028 A 
ATOM     15  C   UNL     1      -7.155 -29.333  10.366  0.00  0.00    +0.055 A 
ENDROOT
BRANCH   4   5
ATOM      5  C   UNL     1      -4.222 -32.459   8.580  0.00  0.00    +0.235 C 
ATOM      6  C   UNL     1      -3.170 -32.184   9.616  0.00  0.00    +0.111 C 
ATOM      7  O   UNL     1      -3.950 -33.305   7.729  0.00  0.00    -0.274 OA
ENDBRANCH   4   5
TORSDOF 1
