REMARK  Name = 4D4J
REMARK  2 active torsions:
REMARK  status: ('A' for Active; 'I' for Inactive)
REMARK    1  A    between atoms: N_2  and  C_9
REMARK    2  A    between atoms: C_13  and  C_18
REMARK                            x       y       z     vdW  Elec       q    Type
REMARK                         _______ _______ _______ _____ _____    ______ ____
ROOT
ATOM      6  N   UNL     1     -39.738 -41.010 -11.197  0.00  0.00    -0.300 N 
ATOM      7  C   UNL     1     -41.052 -41.412 -11.336  0.00  0.00    +0.153 C 
ATOM      8  C   UNL     1     -41.721 -40.425 -12.118  0.00  0.00    +0.091 C 
ATOM      9  C   UNL     1     -43.118 -40.661 -12.401  0.00  0.00    +0.261 C 
ATOM     10  N   UNL     1     -43.610 -41.815 -11.796  0.00  0.00    -0.313 N 
ATOM     11  H   UNL     1     -44.644 -42.050 -11.941  0.00  0.00    +0.170 HD
ATOM     12  C   UNL     1     -42.871 -42.663 -11.035  0.00  0.00    +0.201 C 
ATOM     13  O   UNL     1     -43.840 -39.981 -13.128  0.00  0.00    -0.267 OA
ATOM     14  C   UNL     1     -40.743 -39.415 -12.446  0.00  0.00    +0.015 C 
ATOM     22  N   UNL     1     -41.596 -42.532 -10.785  0.00  0.00    -0.219 NA
ATOM     23  C   UNL     1     -39.569 -39.821 -11.868  0.00  0.00    +0.102 C 
ENDROOT
BRANCH  14  15
ATOM     15  C   UNL     1     -40.878 -38.174 -13.249  0.00  0.00    -0.016 A 
ATOM     16  C   UNL     1     -42.074 -37.463 -13.276  0.00  0.00    +0.009 A 
ATOM     17  C   UNL     1     -42.201 -36.321 -14.046  0.00  0.00    +0.016 A 
ATOM     18  C   UNL     1     -41.124 -35.892 -14.801  0.00  0.00    +0.018 A 
ATOM     19  C   UNL     1     -39.922 -36.566 -14.779  0.00  0.00    +0.016 A 
ATOM     20 BR   UNL     1     -41.293 -34.328 -15.868  0.00  0.00    -0.050 Br
ATOM     21  C   UNL     1     -39.805 -37.703 -14.001  0.00  0.00    +0.009 A 
ENDBRANCH  14  15
BRANCH   6   4
ATOM      1  C   UNL     1     -36.566 -42.899  -9.166  0.00  0.00    +0.000 A 
ATOM      2  C   UNL     1     -37.628 -42.379  -8.450  0.00  0.00    +0.002 A 
ATOM      3  C   UNL     1     -38.687 -41.772  -9.109  0.00  0.00    +0.026 A 
ATOM      4  C   UNL     1     -38.678 -41.692 -10.502  0.00  0.00    +0.048 A 
ATOM      5  C   UNL     1     -37.615 -42.228 -11.222  0.00  0.00    +0.026 A 
ATOM     24  C   UNL     1     -36.560 -42.823 -10.548  0.00  0.00    +0.002 A 
ENDBRANCH   6   4
TORSDOF 2
