REMARK  Name = 5HX6
REMARK  5 active torsions:
REMARK  status: ('A' for Active; 'I' for Inactive)
REMARK    1  A    between atoms: C_1  and  C_11
REMARK    2  A    between atoms: C_10  and  N_21
REMARK    3  A    between atoms: C_11  and  C_12
REMARK    4  A    between atoms: C_14  and  C_22
REMARK    5  A    between atoms: C_15  and  N_16
REMARK                            x       y       z     vdW  Elec       q    Type
REMARK                         _______ _______ _______ _____ _____    ______ ____
ROOT
ATOM     11  C   UNL     1      19.726  -6.875  56.389  0.00  0.00    +0.266 C 
ATOM     12  O   UNL     1      20.648  -6.191  56.846  0.00  0.00    -0.268 OA
ATOM     13  N   UNL     1      19.658  -8.210  56.541  0.00  0.00    -0.296 N 
ATOM     14  H   UNL     1      18.885  -8.745  56.169  0.00  0.00    +0.150 HD
ENDROOT
BRANCH  13  15
ATOM     15  C   UNL     1      20.708  -8.915  57.263  0.00  0.00    +0.197 C 
ATOM     16  C   UNL     1      20.771 -10.396  56.876  0.00  0.00    +0.243 C 
ATOM     17  O   UNL     1      19.863 -10.900  56.239  0.00  0.00    -0.273 OA
ATOM     18  N   UNL     1      21.873 -11.120  57.257  0.00  0.00    -0.270 N 
ATOM     19  C   UNL     1      22.904 -10.597  58.097  0.00  0.00    +0.078 A 
ATOM     20  C   UNL     1      24.239 -10.842  57.771  0.00  0.00    +0.027 A 
ATOM     21  C   UNL     1      25.249 -10.358  58.592  0.00  0.00    +0.002 A 
ATOM     22  C   UNL     1      24.947  -9.615  59.714  0.00  0.00    +0.004 A 
ATOM     23  C   UNL     1      23.627  -9.354  60.047  0.00  0.00    +0.047 A 
ATOM     24  C   UNL     1      22.614  -9.865  59.254  0.00  0.00    +0.142 A 
ATOM     25  O   UNL     1      21.323  -9.592  59.655  0.00  0.00    -0.488 OA
ATOM     26  C   UNL     1      21.887 -12.548  56.939  0.00  0.00    +0.138 C 
ATOM     27  C   UNL     1      20.552  -8.750  58.784  0.00  0.00    +0.261 C 
ENDBRANCH  13  15
BRANCH  11  10
ATOM      7  C   UNL     1      17.239  -4.769  54.812  0.00  0.00    +0.142 A 
ATOM      8  O   UNL     1      16.847  -6.000  54.409  0.00  0.00    -0.359 OA
ATOM      9  N   UNL     1      17.751  -6.957  54.954  0.00  0.00    -0.073 NA
ATOM     10  C   UNL     1      18.602  -6.236  55.660  0.00  0.00    +0.168 A 
ATOM     28  C   UNL     1      18.321  -4.873  55.594  0.00  0.00    +0.081 A 
BRANCH   7   6
ATOM      6  C   UNL     1      16.405  -3.616  54.351  0.00  0.00    +0.112 C 
BRANCH   6   1
ATOM      1  C   UNL     1      16.696  -2.335  55.095  0.00  0.00    -0.040 A 
ATOM      2  C   UNL     1      17.888  -1.650  54.878  0.00  0.00    +0.004 A 
ATOM      3  C   UNL     1      18.207  -0.530  55.630  0.00  0.00    +0.000 A 
ATOM      4  C   UNL     1      17.365  -0.110  56.640  0.00  0.00    +0.000 A 
ATOM      5  C   UNL     1      16.202  -0.810  56.896  0.00  0.00    +0.000 A 
ATOM     29  C   UNL     1      15.885  -1.931  56.148  0.00  0.00    +0.004 A 
ENDBRANCH   6   1
ENDBRANCH   7   6
ENDBRANCH  11  10
TORSDOF 4
