REMARK  Name = B6N
REMARK  3 active torsions:
REMARK  status: ('A' for Active; 'I' for Inactive)
REMARK    1  A    between atoms: CBB_2  and  CAD_5
REMARK    2  A    between atoms: CAE_11  and  NAH_12
REMARK    3  A    between atoms: CAS_26  and  CAW_27
REMARK                            x       y       z     vdW  Elec       q    Type
REMARK                         _______ _______ _______ _____ _____    ______ ____
ROOT
ATOM      5  N   UNL     1       2.000 -28.335 -10.839  0.00  0.00    -0.275 N 
ATOM      6  C   UNL     1       1.002 -28.920 -10.148  0.00  0.00    +0.265 C 
ATOM      7  C   UNL     1       1.231 -29.923  -9.224  0.00  0.00    +0.061 C 
ATOM      8  C   UNL     1       2.531 -30.326  -9.006  0.00  0.00    +0.008 C 
ATOM      9  C   UNL     1       3.557 -29.721  -9.715  0.00  0.00    +0.035 A 
ATOM     10  C   UNL     1       4.839 -30.173  -9.450  0.00  0.00    +0.100 A 
ATOM     11  N   UNL     1       5.922 -29.621 -10.112  0.00  0.00    -0.244 NA
ATOM     12  C   UNL     1       5.733 -28.655 -11.012  0.00  0.00    +0.083 A 
ATOM     13  C   UNL     1       4.454 -28.167 -11.314  0.00  0.00    +0.034 A 
ATOM     14  C   UNL     1       4.406 -27.153 -12.277  0.00  0.00    +0.003 A 
ATOM     15  C   UNL     1       5.535 -26.643 -12.907  0.00  0.00    +0.003 A 
ATOM     16  C   UNL     1       6.785 -27.144 -12.585  0.00  0.00    +0.002 A 
ATOM     22  C   UNL     1       6.870 -28.150 -11.637  0.00  0.00    +0.019 A 
ATOM     23  O   UNL     1      -0.156 -28.555 -10.352  0.00  0.00    -0.267 OA
ATOM     24  C   UNL     1       3.312 -28.706 -10.651  0.00  0.00    +0.070 A 
ENDROOT
BRANCH   5   4
ATOM      3  C   UNL     1       1.174 -27.724 -12.994  0.00  0.00    +0.090 A 
ATOM      4  C   UNL     1       1.563 -27.389 -11.692  0.00  0.00    +0.071 A 
ATOM     25  C   UNL     1       1.486 -26.064 -11.270  0.00  0.00    +0.020 A 
ATOM     26  C   UNL     1       1.039 -25.075 -12.139  0.00  0.00    +0.031 A 
ATOM     27  C   UNL     1       0.658 -25.409 -13.433  0.00  0.00    +0.140 A 
ATOM     28  F   UNL     1       0.219 -24.449 -14.285  0.00  0.00    -0.204 F 
ATOM     29  C   UNL     1       0.725 -26.730 -13.856  0.00  0.00    +0.035 A 
BRANCH   3   2
ATOM      1  F   UNL     1       0.338 -29.792 -12.826  0.00  0.00    -0.166 F 
ATOM      2  C   UNL     1       1.223 -29.040 -13.470  0.00  0.00    +0.420 C 
ATOM     30  F   UNL     1       2.438 -29.547 -13.308  0.00  0.00    -0.166 F 
ATOM     31  F   UNL     1       0.920 -29.045 -14.755  0.00  0.00    -0.166 F 
ENDBRANCH   3   2
ENDBRANCH   5   4
BRANCH  15  17
ATOM     17  C   UNL     1       5.426 -25.673 -13.812  0.00  0.00    +0.042 A 
ATOM     18  C   UNL     1       6.435 -24.974 -14.308  0.00  0.00    +0.124 A 
ATOM     19  N   UNL     1       5.892 -24.110 -15.167  0.00  0.00    -0.146 NA
ATOM     20  N   UNL     1       4.654 -24.264 -15.195  0.00  0.00    -0.146 NA
ATOM     21  C   UNL     1       4.300 -25.238 -14.354  0.00  0.00    +0.124 A 
ENDBRANCH  15  17
TORSDOF 3
