REMARK  Name = 5CAS
REMARK  9 active torsions:
REMARK  status: ('A' for Active; 'I' for Inactive)
REMARK    1  A    between atoms: C_1  and  C_7
REMARK    2  A    between atoms: C_7  and  C_8
REMARK    3  A    between atoms: C_7  and  N_14
REMARK    4  A    between atoms: C_9  and  C_11
REMARK    5  A    between atoms: C_10  and  C_11
REMARK    6  A    between atoms: C_11  and  O_34
REMARK    7  A    between atoms: N_18  and  C_19
REMARK    8  A    between atoms: C_28  and  O_32
REMARK    9  A    between atoms: O_32  and  C_33
REMARK                            x       y       z     vdW  Elec       q    Type
REMARK                         _______ _______ _______ _____ _____    ______ ____
ROOT
ATOM      6  N   UNL     1     -51.302  -0.434 -20.248  0.00  0.00    -0.314 N 
ATOM      7  C   UNL     1     -51.122  -0.133 -18.919  0.00  0.00    +0.140 A 
ATOM      8  N   UNL     1     -51.948   0.806 -18.563  0.00  0.00    -0.228 NA
ATOM      9  C   UNL     1     -52.701   1.185 -19.616  0.00  0.00    +0.108 A 
ATOM     10  C   UNL     1     -53.699   2.145 -19.783  0.00  0.00    +0.142 A 
ATOM     11  N   UNL     1     -54.295   2.270 -20.956  0.00  0.00    -0.238 NA
ATOM     12  C   UNL     1     -53.963   1.554 -22.031  0.00  0.00    +0.126 A 
ATOM     13  N   UNL     1     -54.647   1.874 -23.209  0.00  0.00    -0.284 N 
ATOM     14  H   UNL     1     -55.098   2.844 -23.230  0.00  0.00    +0.155 HD
ATOM     30  C   UNL     1     -52.934   0.607 -21.963  0.00  0.00    +0.071 A 
ATOM     35  C   UNL     1     -52.300   0.396 -20.728  0.00  0.00    +0.074 A 
ENDROOT
BRANCH  13  15
ATOM     15  C   UNL     1     -54.822   1.110 -24.353  0.00  0.00    +0.129 A 
ATOM     16  N   UNL     1     -53.887   0.260 -24.772  0.00  0.00    -0.199 NA
ATOM     17  C   UNL     1     -54.072  -0.515 -25.842  0.00  0.00    +0.220 A 
ATOM     18  N   UNL     1     -53.025  -1.350 -26.242  0.00  0.00    -0.297 N 
ATOM     19  C   UNL     1     -53.094  -2.081 -27.527  0.00  0.00    +0.147 C 
ATOM     20  C   UNL     1     -51.711  -2.111 -28.183  0.00  0.00    +0.212 C 
ATOM     21  F   UNL     1     -51.417  -0.795 -28.529  0.00  0.00    -0.241 F 
ATOM     22  C   UNL     1     -50.623  -2.612 -27.207  0.00  0.00    +0.155 C 
ATOM     25  C   UNL     1     -50.630  -1.816 -25.879  0.00  0.00    +0.053 C 
ATOM     26  C   UNL     1     -52.041  -1.828 -25.240  0.00  0.00    +0.110 C 
ATOM     27  N   UNL     1     -55.184  -0.376 -26.581  0.00  0.00    -0.223 NA
ATOM     28  C   UNL     1     -56.152   0.476 -26.245  0.00  0.00    +0.118 A 
ATOM     29  C   UNL     1     -56.002   1.257 -25.100  0.00  0.00    +0.063 A 
BRANCH  22  23
ATOM     23  O   UNL     1     -49.354  -2.451 -27.844  0.00  0.00    -0.377 OA
ATOM     24  C   UNL     1     -48.514  -3.606 -27.736  0.00  0.00    +0.194 C 
ENDBRANCH  22  23
ENDBRANCH  13  15
BRANCH   6   5
ATOM      5  C   UNL     1     -50.578  -1.487 -20.985  0.00  0.00    +0.190 C 
ATOM     36  C   UNL     1     -51.485  -2.599 -21.544  0.00  0.00    +0.040 C 
BRANCH   5   1
ATOM      1  C   UNL     1     -49.529  -0.933 -21.937  0.00  0.00    +0.410 C 
ATOM      2  F   UNL     1     -50.130  -0.257 -22.989  0.00  0.00    -0.168 F 
ATOM      3  F   UNL     1     -48.758  -1.975 -22.432  0.00  0.00    -0.168 F 
ATOM      4  F   UNL     1     -48.711  -0.038 -21.259  0.00  0.00    -0.168 F 
ENDBRANCH   5   1
ENDBRANCH   6   5
BRANCH   7  31
ATOM     31  C   UNL     1     -50.121  -0.811 -17.999  0.00  0.00    +0.177 C 
ATOM     34  C   UNL     1     -50.007  -0.152 -16.620  0.00  0.00    +0.046 C 
BRANCH  31  32
ATOM     32  O   UNL     1     -50.562  -2.156 -17.834  0.00  0.00    -0.384 OA
ATOM     33  H   UNL     1     -51.522  -2.160 -17.409  0.00  0.00    +0.210 HD
ENDBRANCH  31  32
ENDBRANCH   7  31
TORSDOF 6
