REMARK  Name = 3QEO
REMARK  8 active torsions:
REMARK  status: ('A' for Active; 'I' for Inactive)
REMARK    1  A    between atoms: N_1  and  C_9
REMARK    2  A    between atoms: C_10  and  O_11
REMARK    3  A    between atoms: C_12  and  O_15
REMARK    4  A    between atoms: C_13  and  C_16
REMARK    5  A    between atoms: C_16  and  O_17
REMARK    6  A    between atoms: O_17  and  P_18
REMARK    7  A    between atoms: P_18  and  O_21
REMARK    8  A    between atoms: O_21  and  P_22
REMARK                            x       y       z     vdW  Elec       q    Type
REMARK                         _______ _______ _______ _____ _____    ______ ____
ROOT
ATOM      2  C   UNL     1     -27.788  26.682 -30.609  0.00  0.00    +0.255 C 
ATOM      3  O   UNL     1     -26.624  27.422 -30.944  0.00  0.00    -0.346 OA
ATOM      4  C   UNL     1     -25.857  27.721 -29.786  0.00  0.00    +0.178 C 
ATOM     15  C   UNL     1     -26.656  27.227 -28.591  0.00  0.00    +0.178 C 
ATOM     18  C   UNL     1     -27.558  26.161 -29.192  0.00  0.00    +0.195 C 
ENDROOT
BRANCH   2   1
ATOM      1  N   UNL     1     -27.863  25.641 -31.652  0.00  0.00    -0.272 N 
ATOM     21  C   UNL     1     -27.016  24.561 -31.617  0.00  0.00    +0.098 C 
ATOM     22  C   UNL     1     -26.881  23.802 -32.775  0.00  0.00    +0.088 C 
ATOM     23  C   UNL     1     -27.978  23.751 -33.648  0.00  0.00    +0.254 C 
ATOM     24  O   UNL     1     -28.020  22.898 -34.534  0.00  0.00    -0.268 OA
ATOM     25  N   UNL     1     -29.015  24.663 -33.514  0.00  0.00    -0.275 N 
ATOM     26  H   UNL     1     -29.857  24.625 -34.173  0.00  0.00    +0.173 HD
ATOM     27  C   UNL     1     -28.950  25.629 -32.513  0.00  0.00    +0.331 C 
ATOM     28  O   UNL     1     -29.858  26.453 -32.366  0.00  0.00    -0.246 OA
ENDBRANCH   2   1
BRANCH  15  16
ATOM     16  O   UNL     1     -27.396  28.309 -28.085  0.00  0.00    -0.386 OA
ATOM     17  H   UNL     1     -27.953  28.746 -28.861  0.00  0.00    +0.210 HD
ENDBRANCH  15  16
BRANCH  18  19
ATOM     19  O   UNL     1     -28.731  25.897 -28.445  0.00  0.00    -0.385 OA
ATOM     20  H   UNL     1     -29.292  26.780 -28.349  0.00  0.00    +0.210 HD
ENDBRANCH  18  19
BRANCH   4   5
ATOM      5  C   UNL     1     -24.463  27.084 -29.857  0.00  0.00    +0.202 C 
BRANCH   5   6
ATOM      6  O   UNL     1     -24.582  25.717 -29.526  0.00  0.00    -0.325 OA
BRANCH   6   7
ATOM      7  P   UNL     1     -23.617  24.931 -28.501  0.00  0.00    +0.215 P 
ATOM     13  O   UNL     1     -23.860  23.483 -28.545  0.00  0.00    -0.517 OA
ATOM     14  O   UNL     1     -23.828  25.445 -27.130  0.00  0.00    -0.437 OA
BRANCH   7   8
ATOM      8  O   UNL     1     -22.153  25.222 -29.103  0.00  0.00    -0.314 OA
BRANCH   8   9
ATOM      9  P   UNL     1     -20.700  24.758 -28.564  0.00  0.00    -0.007 P 
ATOM     10  O   UNL     1     -20.046  24.175 -29.736  0.00  0.00    -0.637 OA
ATOM     11  O   UNL     1     -19.988  26.044 -28.269  0.00  0.00    -0.577 OA
ATOM     12  O   UNL     1     -20.802  23.982 -27.305  0.00  0.00    -0.577 OA
ENDBRANCH   8   9
ENDBRANCH   7   8
ENDBRANCH   6   7
ENDBRANCH   5   6
ENDBRANCH   4   5
TORSDOF 8
