REMARK  Name = 5HTI
REMARK  10 active torsions:
REMARK  status: ('A' for Active; 'I' for Inactive)
REMARK    1  A    between atoms: N_6  and  C_7
REMARK    2  A    between atoms: C_7  and  C_8
REMARK    3  A    between atoms: C_8  and  O_9
REMARK    4  A    between atoms: O_9  and  C_10
REMARK    5  A    between atoms: C_19  and  O_20
REMARK    6  A    between atoms: O_20  and  C_21
REMARK    7  A    between atoms: C_27  and  N_28
REMARK    8  A    between atoms: C_29  and  C_31
REMARK    9  A    between atoms: C_31  and  C_34
REMARK   10  A    between atoms: N_36  and  C_37
REMARK                            x       y       z     vdW  Elec       q    Type
REMARK                         _______ _______ _______ _____ _____    ______ ____
ROOT
ATOM     12  C   UNL     1       9.283 -17.741 -30.719  0.00  0.00    +0.164 A 
ATOM     13  C   UNL     1       9.368 -17.544 -29.341  0.00  0.00    +0.051 A 
ATOM     14  C   UNL     1       9.543 -16.251 -28.855  0.00  0.00    +0.027 A 
ATOM     15  C   UNL     1       9.615 -15.163 -29.718  0.00  0.00    +0.036 A 
ATOM     34  C   UNL     1       9.520 -15.363 -31.116  0.00  0.00    +0.065 A 
ATOM     35  C   UNL     1       9.342 -16.665 -31.597  0.00  0.00    +0.167 A 
ATOM     36  F   UNL     1       9.248 -16.898 -32.924  0.00  0.00    -0.202 F 
ENDROOT
BRANCH  15  16
ATOM     16  N   UNL     1       9.811 -13.876 -29.107  0.00  0.00    -0.285 N 
ATOM     17  H   UNL     1      10.086 -13.880 -28.073  0.00  0.00    +0.155 HD
ATOM     18  C   UNL     1       9.681 -12.596 -29.719  0.00  0.00    +0.232 C 
ATOM     33  O   UNL     1       9.362 -12.477 -30.904  0.00  0.00    -0.274 OA
BRANCH  18  19
ATOM     19  C   UNL     1       9.929 -11.292 -28.944  0.00  0.00    +0.123 C 
ATOM     31  C   UNL     1      10.513 -10.320 -29.796  0.00  0.00    +0.027 C 
ATOM     32  C   UNL     1       8.990 -10.311 -29.358  0.00  0.00    +0.027 C 
BRANCH  19  20
ATOM     20  C   UNL     1      10.275 -11.715 -27.523  0.00  0.00    +0.232 C 
ATOM     21  N   UNL     1      10.558 -10.587 -26.709  0.00  0.00    -0.285 N 
ATOM     22  H   UNL     1      10.534  -9.607 -27.138  0.00  0.00    +0.155 HD
ATOM     30  O   UNL     1      10.339 -12.843 -27.048  0.00  0.00    -0.274 OA
BRANCH  21  23
ATOM     23  C   UNL     1      10.874 -10.743 -25.325  0.00  0.00    +0.034 A 
ATOM     24  C   UNL     1      10.061 -10.060 -24.438  0.00  0.00    +0.026 A 
ATOM     25  C   UNL     1      10.300 -10.188 -23.077  0.00  0.00    +0.040 A 
ATOM     26  C   UNL     1      11.343 -10.989 -22.648  0.00  0.00    +0.124 A 
ATOM     27  F   UNL     1      11.566 -11.102 -21.326  0.00  0.00    -0.205 F 
ATOM     28  C   UNL     1      12.159 -11.678 -23.527  0.00  0.00    +0.040 A 
ATOM     29  C   UNL     1      11.922 -11.564 -24.910  0.00  0.00    +0.026 A 
ENDBRANCH  21  23
ENDBRANCH  19  20
ENDBRANCH  18  19
ENDBRANCH  15  16
BRANCH  12  11
ATOM     11  O   UNL     1       9.082 -19.051 -31.211  0.00  0.00    -0.452 OA
BRANCH  11  10
ATOM      6  C   UNL     1       9.054 -23.911 -31.169  0.00  0.00    +0.217 A 
ATOM      7  N   UNL     1       8.134 -22.955 -31.262  0.00  0.00    -0.221 NA
ATOM      8  C   UNL     1       8.468 -21.654 -31.247  0.00  0.00    +0.128 A 
ATOM      9  C   UNL     1       9.816 -21.293 -31.106  0.00  0.00    +0.061 A 
ATOM     10  C   UNL     1      10.161 -19.949 -31.068  0.00  0.00    +0.141 A 
ATOM     37  C   UNL     1      11.498 -19.572 -30.912  0.00  0.00    +0.067 A 
ATOM     38  C   UNL     1      12.448 -20.587 -30.791  0.00  0.00    +0.115 A 
ATOM     39  N   UNL     1      12.095 -21.888 -30.844  0.00  0.00    -0.255 NA
ATOM     40  C   UNL     1      10.811 -22.264 -30.997  0.00  0.00    +0.081 A 
ATOM     41  C   UNL     1      10.404 -23.613 -31.032  0.00  0.00    +0.095 A 
BRANCH   6   5
ATOM      5  O   UNL     1       8.566 -25.244 -31.211  0.00  0.00    -0.475 OA
BRANCH   5   4
ATOM      4  C   UNL     1       9.600 -26.210 -31.316  0.00  0.00    +0.246 C 
BRANCH   4   3
ATOM      3  C   UNL     1       8.946 -27.482 -31.910  0.00  0.00    +0.125 C 
BRANCH   3   2
ATOM      1  C   UNL     1       8.490 -28.266 -29.957  0.00  0.00    +0.112 C 
ATOM      2  N   UNL     1       7.990 -27.931 -31.121  0.00  0.00    -0.295 NA
ATOM     42  C   UNL     1       7.401 -28.958 -31.696  0.00  0.00    +0.112 C 
ATOM     43  C   UNL     1       6.220 -29.469 -30.865  0.00  0.00    +0.175 C 
ATOM     44  O   UNL     1       6.624 -29.752 -29.536  0.00  0.00    -0.377 OA
ATOM     45  C   UNL     1       7.404 -28.713 -28.972  0.00  0.00    +0.175 C 
ENDBRANCH   3   2
ENDBRANCH   4   3
ENDBRANCH   5   4
ENDBRANCH   6   5
ENDBRANCH  11  10
ENDBRANCH  12  11
TORSDOF 10
