REMARK  Name = 4D9T
REMARK  13 active torsions:
REMARK  status: ('A' for Active; 'I' for Inactive)
REMARK    1  A    between atoms: N_1  and  C_2
REMARK    2  A    between atoms: N_5  and  C_6
REMARK    3  A    between atoms: C_6  and  C_7
REMARK    4  A    between atoms: C_7  and  C_8
REMARK    5  A    between atoms: C_8  and  O_9
REMARK    6  A    between atoms: C_10  and  C_11
REMARK    7  A    between atoms: C_11  and  C_12
REMARK    8  A    between atoms: C_12  and  C_13
REMARK    9  A    between atoms: C_12  and  C_17
REMARK   10  A    between atoms: C_13  and  O_14
REMARK   11  A    between atoms: O_14  and  C_15
REMARK   12  A    between atoms: C_19  and  C_20
REMARK   13  A    between atoms: C_23  and  C_24
REMARK                            x       y       z     vdW  Elec       q    Type
REMARK                         _______ _______ _______ _____ _____    ______ ____
ROOT
ATOM      4  C   UNL     1     -33.458  14.618 -21.281  0.00  0.00    +0.129 A 
ATOM      5  N   UNL     1     -34.148  15.179 -22.363  0.00  0.00    -0.220 NA
ATOM      6  C   UNL     1     -33.797  14.883 -23.669  0.00  0.00    +0.225 A 
ATOM      7  N   UNL     1     -32.732  14.009 -23.960  0.00  0.00    -0.218 NA
ATOM      8  C   UNL     1     -32.013  13.424 -22.931  0.00  0.00    +0.146 A 
ATOM      9  N   UNL     1     -30.881  12.485 -22.970  0.00  0.00    -0.328 N 
ATOM     10  C   UNL     1     -30.453  12.140 -21.556  0.00  0.00    +0.031 A 
ATOM     11  C   UNL     1     -31.368  12.947 -20.716  0.00  0.00    +0.016 A 
ATOM     32  C   UNL     1     -32.352  13.706 -21.548  0.00  0.00    +0.066 A 
ENDROOT
BRANCH  11  12
ATOM     12  C   UNL     1     -31.292  12.842 -19.225  0.00  0.00    -0.015 A 
ATOM     13  C   UNL     1     -30.199  13.449 -18.514  0.00  0.00    +0.009 A 
ATOM     14  C   UNL     1     -30.099  13.321 -17.099  0.00  0.00    +0.004 A 
ATOM     15  C   UNL     1     -31.142  12.533 -16.370  0.00  0.00    -0.050 A 
ATOM     16  C   UNL     1     -31.073  12.400 -14.919  0.00  0.00    +0.044 C 
ATOM     17  C   UNL     1     -32.198  11.930 -17.061  0.00  0.00    +0.004 A 
ATOM     18  C   UNL     1     -32.298  12.059 -18.508  0.00  0.00    +0.009 A 
ENDBRANCH  11  12
BRANCH   4   1
ATOM      1  N   UNL     1     -33.857  14.937 -19.937  0.00  0.00    -0.343 N 
ATOM      2  H   UNL     1     -34.672  15.609 -19.766  0.00  0.00    +0.144 HD
ATOM      3  H   UNL     1     -33.339  14.502 -19.108  0.00  0.00    +0.144 HD
ENDBRANCH   4   1
BRANCH  10  19
ATOM     19  C   UNL     1     -29.534  11.212 -20.787  0.00  0.00    +0.078 C 
BRANCH  19  20
ATOM     20  C   UNL     1     -28.220  11.078 -21.425  0.00  0.00    +0.141 C 
BRANCH  20  21
ATOM     21  C   UNL     1     -27.505  12.335 -21.449  0.00  0.00    +0.072 C 
ATOM     22  N   UNL     1     -26.962  13.300 -21.432  0.00  0.00    -0.196 NA
ENDBRANCH  20  21
BRANCH  20  23
ATOM     23  C   UNL     1     -27.522   9.977 -20.667  0.00  0.00    +0.045 C 
ATOM     24  O   UNL     1     -26.876  10.255 -19.624  0.00  0.00    -0.550 OA
BRANCH  23  25
ATOM     25  O   UNL     1     -27.582   8.762 -21.071  0.00  0.00    -0.618 OA
ATOM     26  C   UNL     1     -26.934   7.742 -20.375  0.00  0.00    +0.086 C 
ENDBRANCH  23  25
ENDBRANCH  20  23
ENDBRANCH  19  20
ENDBRANCH  10  19
BRANCH   9  27
ATOM     27  C   UNL     1     -30.302  12.008 -24.250  0.00  0.00    +0.126 C 
BRANCH  27  28
ATOM     28  C   UNL     1     -29.130  12.739 -24.865  0.00  0.00    +0.049 C 
BRANCH  28  29
ATOM     29  C   UNL     1     -28.357  11.956 -25.899  0.00  0.00    +0.157 C 
BRANCH  29  30
ATOM     30  O   UNL     1     -28.964  11.747 -27.126  0.00  0.00    -0.395 OA
ATOM     31  H   UNL     1     -29.860  11.217 -26.988  0.00  0.00    +0.209 HD
ENDBRANCH  29  30
ENDBRANCH  28  29
ENDBRANCH  27  28
ENDBRANCH   9  27
TORSDOF 11
