REMARK  Name = 5ENN
REMARK  9 active torsions:
REMARK  status: ('A' for Active; 'I' for Inactive)
REMARK    1  A    between atoms: C_1  and  C_2
REMARK    2  A    between atoms: C_1  and  C_3
REMARK    3  A    between atoms: C_1  and  O_14
REMARK    4  A    between atoms: C_1  and  C_15
REMARK    5  A    between atoms: C_3  and  N_16
REMARK    6  A    between atoms: C_4  and  N_28
REMARK    7  A    between atoms: C_9  and  C_10
REMARK    8  A    between atoms: C_10  and  C_11
REMARK    9  A    between atoms: C_19  and  C_22
REMARK                            x       y       z     vdW  Elec       q    Type
REMARK                         _______ _______ _______ _____ _____    ______ ____
ROOT
ATOM      6  N   UNL     1     -26.624  -7.955  -7.910  0.00  0.00    -0.311 N 
ATOM      7  H   UNL     1     -25.943  -8.750  -7.689  0.00  0.00    +0.149 HD
ATOM      8  C   UNL     1     -26.942  -7.049  -6.922  0.00  0.00    +0.216 A 
ATOM      9  N   UNL     1     -26.366  -7.153  -5.679  0.00  0.00    -0.222 NA
ATOM     10  C   UNL     1     -26.801  -6.220  -4.761  0.00  0.00    +0.126 A 
ATOM     11  C   UNL     1     -27.757  -5.201  -5.026  0.00  0.00    +0.040 A 
ATOM     26  C   UNL     1     -28.263  -5.201  -6.382  0.00  0.00    +0.056 A 
ATOM     31  N   UNL     1     -27.896  -6.094  -7.280  0.00  0.00    -0.219 NA
ENDROOT
BRANCH  11  12
ATOM     12  C   UNL     1     -28.145  -4.291  -3.911  0.00  0.00    +0.079 A 
ATOM     13  C   UNL     1     -27.988  -4.663  -2.556  0.00  0.00    +0.048 A 
ATOM     14  C   UNL     1     -28.360  -3.705  -1.599  0.00  0.00    +0.116 A 
ATOM     15  N   UNL     1     -28.858  -2.473  -1.883  0.00  0.00    -0.223 NA
ATOM     16  C   UNL     1     -28.989  -2.172  -3.221  0.00  0.00    +0.220 A 
ATOM     17  N   UNL     1     -29.504  -0.891  -3.431  0.00  0.00    -0.283 N 
ATOM     18  H   UNL     1     -29.844  -0.366  -2.563  0.00  0.00    +0.155 HD
ATOM     25  N   UNL     1     -28.657  -3.025  -4.269  0.00  0.00    -0.214 NA
BRANCH  17  19
ATOM     19  C   UNL     1     -29.627  -0.202  -4.682  0.00  0.00    +0.036 A 
ATOM     20  C   UNL     1     -29.288  -0.754  -5.960  0.00  0.00    +0.043 A 
ATOM     21  C   UNL     1     -29.571   0.024  -7.106  0.00  0.00    +0.112 A 
ATOM     22  N   UNL     1     -30.139   1.269  -7.056  0.00  0.00    -0.263 NA
ATOM     23  C   UNL     1     -30.427   1.788  -5.835  0.00  0.00    +0.112 A 
ATOM     24  C   UNL     1     -30.187   1.109  -4.633  0.00  0.00    +0.043 A 
ENDBRANCH  17  19
ENDBRANCH  11  12
BRANCH   6   5
ATOM      5  C   UNL     1     -27.203  -7.856  -9.276  0.00  0.00    +0.138 C 
BRANCH   5   1
ATOM      1  C   UNL     1     -28.412  -8.822  -9.523  0.00  0.00    +0.076 C 
ATOM      2  C   UNL     1     -28.928  -8.612 -10.983  0.00  0.00    +0.042 C 
ATOM     32  C   UNL     1     -29.599  -8.636  -8.563  0.00  0.00    +0.042 C 
BRANCH   1   3
ATOM      3  O   UNL     1     -27.925 -10.111  -9.265  0.00  0.00    -0.388 OA
ATOM      4  H   UNL     1     -27.622 -10.177  -8.262  0.00  0.00    +0.210 HD
ENDBRANCH   1   3
ENDBRANCH   5   1
ENDBRANCH   6   5
BRANCH  26  27
ATOM     27  C   UNL     1     -29.122  -4.127  -6.994  0.00  0.00    +0.059 C 
BRANCH  27  28
ATOM     28  C   UNL     1     -30.559  -4.481  -7.209  0.00  0.00    -0.005 C 
ATOM     29  C   UNL     1     -31.148  -4.027  -8.516  0.00  0.00    +0.004 C 
ATOM     30  C   UNL     1     -30.964  -5.490  -8.251  0.00  0.00    +0.004 C 
ENDBRANCH  27  28
ENDBRANCH  26  27
TORSDOF 7
