REMARK  Name = 4aqc_ligand
REMARK  5 active torsions:
REMARK  status: ('A' for Active; 'I' for Inactive)
REMARK    1  A    between atoms: S_2  and  C1_4
REMARK    2  A    between atoms: S_2  and  C21_5
REMARK    3  A    between atoms: C18_10  and  C2_11
REMARK    4  A    between atoms: N4_20  and  C8_21
REMARK    5  A    between atoms: C11_24  and  N5_27
REMARK                            x       y       z     vdW  Elec       q    Type
REMARK                         _______ _______ _______ _____ _____    ______ ____
ROOT
ATOM      7  C   UNL     1     116.358  65.614   8.170  0.00  0.00    +0.034 A 
ATOM      8  C   UNL     1     117.360  65.588   7.209  0.00  0.00    +0.021 A 
ATOM      9  C   UNL     1     118.542  66.333   7.402  0.00  0.00    +0.038 A 
ATOM     10  C   UNL     1     118.723  67.066   8.537  0.00  0.00    +0.226 A 
ATOM     11  N   UNL     1     117.765  67.078   9.487  0.00  0.00    -0.142 N 
ATOM     12  N   UNL     1     117.795  67.730  10.678  0.00  0.00    -0.178 NA
ATOM     13  C   UNL     1     116.616  67.432  11.161  0.00  0.00    +0.159 A 
ATOM     14  N   UNL     1     116.179  67.891  12.387  0.00  0.00    -0.267 N 
ATOM     15  H   UNL     1     116.820  68.578  12.810  0.00  0.00    +0.207 HD
ATOM     28  N   UNL     1     115.851  66.609  10.429  0.00  0.00    -0.291 NA
ATOM     29  C   UNL     1     116.560  66.378   9.346  0.00  0.00    +0.165 A 
ENDROOT
BRANCH   7   6
ATOM      3  C   UNL     1     112.678  63.593   7.496  0.00  0.00    +0.085 A 
ATOM      4  C   UNL     1     113.451  63.986   6.402  0.00  0.00    +0.024 A 
ATOM      5  C   UNL     1     114.639  64.663   6.640  0.00  0.00    +0.004 A 
ATOM      6  C   UNL     1     115.072  64.899   7.958  0.00  0.00    -0.019 A 
ATOM     30  C   UNL     1     114.265  64.498   9.033  0.00  0.00    +0.004 A 
ATOM     31  C   UNL     1     113.051  63.836   8.812  0.00  0.00    +0.024 A 
BRANCH   3   2
ATOM      1  O   UNL     1     110.365  62.677   8.394  0.00  0.00    -0.170 OA
ATOM      2  S   UNL     1     111.159  62.764   7.156  0.00  0.00    -0.007 S 
ATOM     32  C   UNL     1     110.257  63.963   6.131  0.00  0.00    +0.200 C 
ATOM     33  O   UNL     1     111.428  61.622   6.286  0.00  0.00    -0.170 OA
ENDBRANCH   3   2
ENDBRANCH   7   6
BRANCH  14  16
ATOM     16  C   UNL     1     115.119  67.644  13.139  0.00  0.00    +0.047 A 
ATOM     17  C   UNL     1     115.095  68.110  14.453  0.00  0.00    -0.000 A 
ATOM     18  C   UNL     1     113.993  67.872  15.279  0.00  0.00    -0.005 A 
ATOM     19  C   UNL     1     112.894  67.121  14.805  0.00  0.00    +0.029 A 
ATOM     26  C   UNL     1     112.925  66.652  13.484  0.00  0.00    -0.005 A 
ATOM     27  C   UNL     1     114.009  66.913  12.652  0.00  0.00    -0.000 A 
BRANCH  19  20
ATOM     20  N   UNL     1     111.836  66.850  15.589  0.00  0.00    -0.311 N 
ATOM     21  C   UNL     1     111.374  67.745  16.662  0.00  0.00    +0.155 C 
ATOM     22  C   UNL     1     111.076  66.919  17.914  0.00  0.00    +0.183 C 
ATOM     23  O   UNL     1     109.973  66.059  17.629  0.00  0.00    -0.376 OA
ATOM     24  C   UNL     1     110.290  65.056  16.659  0.00  0.00    +0.183 C 
ATOM     25  C   UNL     1     111.058  65.596  15.429  0.00  0.00    +0.155 C 
ENDBRANCH  19  20
ENDBRANCH  14  16
TORSDOF 4
