REMARK  Name = 4anq_ligand
REMARK  6 active torsions:
REMARK  status: ('A' for Active; 'I' for Inactive)
REMARK    1  A    between atoms: C17_7  and  C21_10
REMARK    2  A    between atoms: C21_10  and  C1_11
REMARK    3  A    between atoms: C21_10  and  O27_12
REMARK    4  A    between atoms: O27_12  and  C15_13
REMARK    5  A    between atoms: C14_19  and  C16_20
REMARK    6  A    between atoms: N26_23  and  C20_25
REMARK                            x       y       z     vdW  Elec       q    Type
REMARK                         _______ _______ _______ _____ _____    ______ ____
ROOT
ATOM      6  C   UNL     1      29.716  44.867   8.915  0.00  0.00    +0.136 A 
ATOM      7  C   UNL     1      28.668  44.614   9.863  0.00  0.00    +0.137 A 
ATOM      8  N   UNL     1      27.625  45.455  10.094  0.00  0.00    -0.301 NA
ATOM      9  C   UNL     1      27.556  46.622   9.383  0.00  0.00    +0.048 A 
ATOM     10  C   UNL     1      28.529  47.006   8.408  0.00  0.00    -0.031 A 
ATOM     24  N   UNL     1      28.701  43.422  10.612  0.00  0.00    -0.327 N 
ATOM     25  H   UNL     1      29.468  42.749  10.475  0.00  0.00    +0.173 HD
ATOM     26  H   UNL     1      27.958  43.223  11.297  0.00  0.00    +0.173 HD
ATOM     27  C   UNL     1      29.614  46.101   8.185  0.00  0.00    +0.032 A 
ENDROOT
BRANCH  10  11
ATOM     11  C   UNL     1      28.448  48.304   7.626  0.00  0.00    -0.003 A 
ATOM     12  C   UNL     1      27.365  49.172   7.496  0.00  0.00    +0.164 A 
ATOM     13  N   UNL     1      27.863  50.202   6.663  0.00  0.00    -0.201 N 
ATOM     22  N   UNL     1      29.084  50.006   6.319  0.00  0.00    -0.214 NA
ATOM     23  C   UNL     1      29.515  48.918   6.834  0.00  0.00    +0.072 A 
BRANCH  13  14
ATOM     14  C   UNL     1      27.119  51.397   6.200  0.00  0.00    +0.161 C 
ATOM     15  C   UNL     1      25.875  50.987   5.381  0.00  0.00    +0.090 C 
ATOM     16  C   UNL     1      25.129  52.257   4.912  0.00  0.00    +0.132 C 
ATOM     17  N   UNL     1      24.776  53.161   6.045  0.00  0.00    +0.227 N 
ATOM     18  H   UNL     1      24.099  52.695   6.629  0.00  0.00    +0.201 HD
ATOM     19  H   UNL     1      24.372  54.005   5.669  0.00  0.00    +0.201 HD
ATOM     20  C   UNL     1      25.955  53.530   6.883  0.00  0.00    +0.132 C 
ATOM     21  C   UNL     1      26.724  52.290   7.397  0.00  0.00    +0.090 C 
ENDBRANCH  13  14
ENDBRANCH  10  11
BRANCH   6   5
ATOM      5  O   UNL     1      30.729  43.908   8.750  0.00  0.00    -0.301 OA
BRANCH   5   4
ATOM      4  C   UNL     1      32.012  44.104   8.052  0.00  0.00    +0.193 C 
ATOM     28  C   UNL     1      32.693  42.727   8.051  0.00  0.00    +0.060 C 
BRANCH   4   3
ATOM      1 CL   UNL     1      32.806  46.685   6.305  0.00  0.00    -0.081 Cl
ATOM      2  C   UNL     1      33.336  46.375   7.931  0.00  0.00    +0.040 A 
ATOM      3  C   UNL     1      32.955  45.190   8.697  0.00  0.00    +0.016 A 
ATOM     29  C   UNL     1      33.482  45.058  10.066  0.00  0.00    +0.077 A 
ATOM     30 CL   UNL     1      33.113  43.691  11.107  0.00  0.00    -0.079 Cl
ATOM     31  C   UNL     1      34.346  46.079  10.606  0.00  0.00    +0.140 A 
ATOM     32  F   UNL     1      34.843  45.984  11.846  0.00  0.00    -0.184 F 
ATOM     33  C   UNL     1      34.689  47.214   9.827  0.00  0.00    +0.021 A 
ATOM     34  C   UNL     1      34.191  47.358   8.508  0.00  0.00    +0.004 A 
ENDBRANCH   4   3
ENDBRANCH   5   4
ENDBRANCH   6   5
TORSDOF 5
