REMARK  Name = YTP
REMARK  1 active torsions:
REMARK  status: ('A' for Active; 'I' for Inactive)
REMARK    1  A    between atoms: C4_4  and  C7_7
REMARK                            x       y       z     vdW  Elec       q    Type
REMARK                         _______ _______ _______ _____ _____    ______ ____
ROOT
ATOM      1  C   UNL     1      32.422  10.174  -2.797  0.00  0.00    +0.192 A 
ATOM      2  C   UNL     1      32.202  10.040  -1.426  0.00  0.00    +0.042 A 
ATOM      3  C   UNL     1      30.894   9.994  -0.924  0.00  0.00    +0.006 A 
ATOM      4  C   UNL     1      29.812  10.085  -1.813  0.00  0.00    +0.035 A 
ATOM      8  C   UNL     1      30.036  10.224  -3.189  0.00  0.00    +0.002 A 
ATOM      9  O   UNL     1      33.718  10.226  -3.314  0.00  0.00    -0.287 OA
ATOM     10  C   UNL     1      31.341  10.262  -3.682  0.00  0.00    +0.017 A 
ATOM     11  C   UNL     1      31.591  10.400  -5.187  0.00  0.00    +0.034 C 
ENDROOT
BRANCH   4   5
ATOM      5  C   UNL     1      28.389   9.984  -1.304  0.00  0.00    +0.173 C 
ATOM      6  O   UNL     1      28.167   9.916  -0.110  0.00  0.00    -0.291 OA
ATOM      7  C   UNL     1      27.237   9.964  -2.273  0.00  0.00    +0.077 C 
ENDBRANCH   4   5
TORSDOF 1
