REMARK  Name = 1b38_ligand
REMARK  11 active torsions:
REMARK  status: ('A' for Active; 'I' for Inactive)
REMARK    1  A    between atoms: PG_1  and  O3B_8
REMARK    2  A    between atoms: PB_5  and  O3B_8
REMARK    3  A    between atoms: PB_5  and  O3A_12
REMARK    4  A    between atoms: PA_9  and  O3A_12
REMARK    5  A    between atoms: PA_9  and  O5_13
REMARK    6  A    between atoms: O5_13  and  C5_14
REMARK    7  A    between atoms: C5_14  and  C4_15
REMARK    8  A    between atoms: C3_17  and  O3_18
REMARK    9  A    between atoms: C2_19  and  O2_20
REMARK   10  A    between atoms: C1_21  and  N9_22
REMARK   11  A    between atoms: C6_26  and  N6_27
REMARK                            x       y       z     vdW  Elec       q    Type
REMARK                         _______ _______ _______ _____ _____    ______ ____
ROOT
ATOM      8  C   UNL     1       0.147  24.224   9.353  0.00  0.00    +0.184 C 
ATOM      9  C   UNL     1       1.002  24.581  10.574  0.00  0.00    +0.180 C 
ATOM     10  C   UNL     1       1.157  26.137  10.454  0.00  0.00    +0.206 C 
ATOM     11  C   UNL     1       1.104  26.330   8.923  0.00  0.00    +0.301 C 
ATOM     28  O   UNL     1       0.267  25.324   8.443  0.00  0.00    -0.336 OA
ENDROOT
BRANCH  11  12
ATOM     12  N   UNL     1       0.481  27.594   8.542  0.00  0.00    -0.192 N 
ATOM     13  C   UNL     1       0.963  28.657   7.804  0.00  0.00    +0.161 A 
ATOM     14  N   UNL     1       1.978  28.672   6.931  0.00  0.00    -0.271 NA
ATOM     15  C   UNL     1       2.120  29.859   6.398  0.00  0.00    +0.153 A 
ATOM     16  N   UNL     1       1.453  31.003   6.691  0.00  0.00    -0.270 NA
ATOM     17  C   UNL     1       0.435  30.983   7.580  0.00  0.00    +0.130 A 
ATOM     21  C   UNL     1       0.200  29.740   8.175  0.00  0.00    +0.105 A 
ATOM     22  N   UNL     1      -0.708  29.377   9.057  0.00  0.00    -0.296 NA
ATOM     23  C   UNL     1      -0.528  28.141   9.258  0.00  0.00    +0.247 A 
BRANCH  17  18
ATOM     18  N   UNL     1      -0.195  32.128   7.775  0.00  0.00    -0.315 N 
ATOM     19  H   UNL     1      -0.976  32.179   8.445  0.00  0.00    +0.182 HD
ATOM     20  H   UNL     1       0.095  32.970   7.257  0.00  0.00    +0.182 HD
ENDBRANCH  17  18
ENDBRANCH  11  12
BRANCH  10  24
ATOM     24  O   UNL     1       2.524  26.414  10.854  0.00  0.00    -0.384 OA
ATOM     25  H   UNL     1       3.121  25.957  10.274  0.00  0.00    +0.210 HD
ENDBRANCH  10  24
BRANCH   9  26
ATOM     26  O   UNL     1       2.298  23.979  10.395  0.00  0.00    -0.386 OA
ATOM     27  H   UNL     1       2.848  24.186  11.141  0.00  0.00    +0.210 HD
ENDBRANCH   9  26
BRANCH   8   7
ATOM      7  C   UNL     1      -1.323  24.047   9.756  0.00  0.00    +0.243 C 
BRANCH   7   6
ATOM      6  O   UNL     1      -1.528  25.116  10.700  0.00  0.00    -0.244 OA
BRANCH   6   5
ATOM      5  P   UNL     1      -2.808  25.087  11.645  0.00  0.00    +0.327 P 
ATOM     29  O   UNL     1      -3.073  26.408  12.152  0.00  0.00    -0.569 OA
ATOM     30  O   UNL     1      -3.918  24.413  10.871  0.00  0.00    -0.569 OA
BRANCH   5   4
ATOM      4  O   UNL     1      -2.494  23.945  12.771  0.00  0.00    -0.117 OA
BRANCH   4   3
ATOM      3  P   UNL     1      -1.539  24.124  14.051  0.00  0.00    +0.355 P 
ATOM     31  O   UNL     1      -0.564  23.045  14.136  0.00  0.00    -0.565 OA
ATOM     32  O   UNL     1      -1.019  25.507  14.007  0.00  0.00    -0.565 OA
BRANCH   3   2
ATOM      2  O   UNL     1      -2.713  23.985  15.119  0.00  0.00    -0.155 OA
BRANCH   2   1
ATOM      1  P   UNL     1      -3.904  24.971  15.435  0.00  0.00    +0.188 P 
ATOM     33  O   UNL     1      -5.021  24.580  14.486  0.00  0.00    -0.609 OA
ATOM     34  O   UNL     1      -3.510  26.367  15.111  0.00  0.00    -0.609 OA
ATOM     35  O   UNL     1      -4.443  24.771  16.773  0.00  0.00    -0.609 OA
ENDBRANCH   2   1
ENDBRANCH   3   2
ENDBRANCH   4   3
ENDBRANCH   5   4
ENDBRANCH   6   5
ENDBRANCH   7   6
ENDBRANCH   8   7
TORSDOF 11
