REMARK  Name = 91L
REMARK  1 active torsions:
REMARK  status: ('A' for Active; 'I' for Inactive)
REMARK    1  A    between atoms: C01_1  and  C02_2
REMARK                            x       y       z     vdW  Elec       q    Type
REMARK                         _______ _______ _______ _____ _____    ______ ____
ROOT
ATOM      1  C   UNL     1      -1.261  -9.662  26.579  0.00  0.00    +0.100 A 
ATOM      2  C   UNL     1      -0.004  -9.374  26.996  0.00  0.00    +0.050 A 
ATOM      3  C   UNL     1       0.460  -8.023  27.011  0.00  0.00    +0.199 A 
ATOM      4  O   UNL     1       1.720  -7.751  27.450  0.00  0.00    -0.286 OA
ATOM      5  C   UNL     1      -0.340  -6.988  26.595  0.00  0.00    +0.082 A 
ATOM      6  C   UNL     1       0.133  -5.602  26.609  0.00  0.00    +0.199 C 
ATOM      7  O   UNL     1       1.271  -5.330  26.995  0.00  0.00    -0.286 OA
ATOM      8  C   UNL     1      -0.748  -4.496  26.139  0.00  0.00    +0.042 A 
ATOM      9  C   UNL     1      -0.333  -3.166  26.104  0.00  0.00    +0.003 A 
ATOM     10  C   UNL     1      -1.185  -2.152  25.668  0.00  0.00    +0.000 A 
ATOM     11  C   UNL     1      -2.465  -2.448  25.226  0.00  0.00    +0.000 A 
ATOM     12  C   UNL     1      -2.892  -3.768  25.252  0.00  0.00    +0.003 A 
ATOM     13  C   UNL     1      -2.045  -4.800  25.694  0.00  0.00    +0.042 A 
ATOM     14  C   UNL     1      -2.507  -6.203  25.708  0.00  0.00    +0.197 C 
ATOM     15  O   UNL     1      -3.674  -6.408  25.318  0.00  0.00    -0.286 OA
ATOM     16  C   UNL     1      -1.662  -7.278  26.142  0.00  0.00    +0.062 A 
ATOM     20  C   UNL     1      -2.115  -8.601  26.125  0.00  0.00    +0.099 A 
ATOM     21  N   UNL     1      -3.378  -8.950  25.701  0.00  0.00    -0.128 NA
ENDROOT
BRANCH   1  17
ATOM     17  C   UNL     1      -1.701 -11.147  26.527  0.00  0.00    +0.389 C 
ATOM     18  O   UNL     1      -2.894 -11.424  26.611  0.00  0.00    -0.240 OA
ATOM     19  O   UNL     1      -0.749 -11.931  26.289  0.00  0.00    -0.240 OA
ENDBRANCH   1  17
TORSDOF 1
