REMARK  Name = 8NP
REMARK  3 active torsions:
REMARK  status: ('A' for Active; 'I' for Inactive)
REMARK    1  A    between atoms: C10_6  and  C15_8
REMARK    2  A    between atoms: C11_14  and  O21_21
REMARK    3  A    between atoms: C12_15  and  O21_21
REMARK                            x       y       z     vdW  Elec       q    Type
REMARK                         _______ _______ _______ _____ _____    ______ ____
ROOT
ATOM      7  C   UNL     1      15.641 -11.375   3.128  0.00  0.00    +0.145 A 
ATOM      8  C   UNL     1      16.927 -11.288   3.630  0.00  0.00    +0.037 A 
ATOM      9  C   UNL     1      17.919 -10.701   2.870  0.00  0.00    +0.003 A 
ATOM     10  C   UNL     1      17.616 -10.187   1.625  0.00  0.00    +0.000 A 
ATOM     11  C   UNL     1      16.330 -10.285   1.132  0.00  0.00    +0.003 A 
ATOM     12  C   UNL     1      15.324 -10.893   1.864  0.00  0.00    +0.036 A 
ENDROOT
BRANCH  12  13
ATOM     13  C   UNL     1      14.003 -11.007   1.219  0.00  0.00    +0.016 C 
ATOM     14  C   UNL     1      13.313 -12.143   1.358  0.00  0.00    +0.088 C 
ATOM     15  N   UNL     1      12.104 -12.313   0.743  0.00  0.00    -0.178 NA
ATOM     16  C   UNL     1      11.500 -11.394  -0.090  0.00  0.00    +0.249 C 
ATOM     17  C   UNL     1      12.263 -10.134  -0.277  0.00  0.00    +0.101 C 
ATOM     18  C   UNL     1      11.692  -9.091  -1.156  0.00  0.00    +0.014 C 
ATOM     19  O   UNL     1      10.426 -11.594  -0.641  0.00  0.00    -0.273 OA
ATOM     20  C   UNL     1      13.433  -9.999   0.362  0.00  0.00    -0.016 C 
ENDBRANCH  12  13
BRANCH   7   6
ATOM      6  O   UNL     1      14.695 -12.012   3.918  0.00  0.00    -0.454 OA
BRANCH   6   5
ATOM      1  C   UNL     1      12.697 -11.364   6.886  0.00  0.00    +0.003 A 
ATOM      2  C   UNL     1      12.827  -9.999   7.036  0.00  0.00    +0.000 A 
ATOM      3  C   UNL     1      13.590  -9.279   6.140  0.00  0.00    +0.003 A 
ATOM      4  C   UNL     1      14.220  -9.919   5.093  0.00  0.00    +0.037 A 
ATOM      5  C   UNL     1      14.094 -11.286   4.947  0.00  0.00    +0.145 A 
ATOM     21  C   UNL     1      13.330 -12.008   5.842  0.00  0.00    +0.037 A 
ENDBRANCH   6   5
ENDBRANCH   7   6
TORSDOF 3
