REMARK  Name = 4iva_ligand
REMARK  5 active torsions:
REMARK  status: ('A' for Active; 'I' for Inactive)
REMARK    1  A    between atoms: C1_1  and  C2_2
REMARK    2  A    between atoms: C2_2  and  O4_3
REMARK    3  A    between atoms: C2_2  and  C5_4
REMARK    4  A    between atoms: N6_5  and  C18_16
REMARK    5  A    between atoms: C22_19  and  C26_22
REMARK                            x       y       z     vdW  Elec       q    Type
REMARK                         _______ _______ _______ _____ _____    ______ ____
ROOT
ATOM      3  C   UNL     1     -16.893 -10.072 -12.126  0.00  0.00    +0.152 A 
ATOM      4  N   UNL     1     -17.614  -9.080 -12.557  0.00  0.00    -0.317 NA
ATOM      5  C   UNL     1     -16.968  -7.910 -12.345  0.00  0.00    +0.033 A 
ATOM      6  C   UNL     1     -17.307  -6.580 -12.607  0.00  0.00    +0.061 A 
ATOM      7  N   UNL     1     -16.496  -5.589 -12.314  0.00  0.00    -0.305 NA
ATOM      8  C   UNL     1     -15.316  -5.820 -11.737  0.00  0.00    +0.120 A 
ATOM      9  N   UNL     1     -14.341  -4.948 -11.351  0.00  0.00    -0.274 N 
ATOM     10  H   UNL     1     -14.384  -3.924 -11.455  0.00  0.00    +0.228 HD
ATOM     11  C   UNL     1     -13.289  -5.647 -10.801  0.00  0.00    +0.113 A 
ATOM     12  C   UNL     1     -13.559  -6.967 -10.810  0.00  0.00    -0.032 A 
ATOM     13  C   UNL     1     -14.885  -7.132 -11.430  0.00  0.00    +0.019 A 
ATOM     14  C   UNL     1     -15.734  -8.223 -11.736  0.00  0.00    +0.089 A 
ATOM     15  N   UNL     1     -15.709  -9.605 -11.621  0.00  0.00    -0.225 N 
ENDROOT
BRANCH  15  16
ATOM     16  C   UNL     1     -14.643 -10.473 -11.071  0.00  0.00    +0.134 C 
ATOM     17  C   UNL     1     -14.496 -10.291  -9.554  0.00  0.00    +0.038 C 
ATOM     18  C   UNL     1     -13.436 -11.277  -9.029  0.00  0.00    +0.034 C 
ATOM     19  C   UNL     1     -12.114 -11.058  -9.782  0.00  0.00    +0.143 C 
ATOM     22  C   UNL     1     -12.268 -11.248 -11.305  0.00  0.00    +0.034 C 
ATOM     23  C   UNL     1     -13.324 -10.260 -11.841  0.00  0.00    +0.038 C 
BRANCH  19  20
ATOM     20  C   UNL     1     -11.120 -11.996  -9.228  0.00  0.00    +0.093 C 
ATOM     21  N   UNL     1     -10.386 -12.750  -8.793  0.00  0.00    -0.303 NA
ENDBRANCH  19  20
ENDBRANCH  15  16
BRANCH   3   2
ATOM      1  C   UNL     1     -18.807 -11.708 -11.952  0.00  0.00    +0.065 C 
ATOM      2  C   UNL     1     -17.304 -11.529 -12.185  0.00  0.00    +0.219 C 
BRANCH   2  24
ATOM     24  O   UNL     1     -16.960 -12.054 -13.455  0.00  0.00    -0.371 OA
ATOM     25  H   UNL     1     -16.028 -11.943 -13.600  0.00  0.00    +0.214 HD
ENDBRANCH   2  24
ENDBRANCH   3   2
TORSDOF 4
