REMARK  Name = AJMB
REMARK  4 active torsions:
REMARK  status: ('A' for Active; 'I' for Inactive)
REMARK    1  A    between atoms: N_2  and  C3_10
REMARK    2  A    between atoms: N_2  and  C2_11
REMARK    3  A    between atoms: C4_9  and  C3_10
REMARK    4  A    between atoms: C2_11  and  C1_12
REMARK                            x       y       z     vdW  Elec       q    Type
REMARK                         _______ _______ _______ _____ _____    ______ ____
ROOT
ATOM      6  C   UNL     1       4.374 139.573 354.188  0.00  0.00    -0.004 A 
ATOM      7  C   UNL     1       5.404 140.451 354.481  0.00  0.00    -0.003 A 
ATOM      8  C   UNL     1       5.393 141.751 354.010  0.00  0.00    +0.001 A 
ATOM      9  C   UNL     1       4.344 142.216 353.222  0.00  0.00    +0.011 A 
ATOM     10  C   UNL     1       3.325 141.318 352.914  0.00  0.00    +0.057 A 
ATOM     11 CL   UNL     1       1.998 141.814 351.913  0.00  0.00    -0.082 Cl
ATOM     12  C   UNL     1       3.333 140.021 353.387  0.00  0.00    +0.009 A 
ENDROOT
BRANCH   6   5
ATOM      5  C   UNL     1       4.356 138.177 354.761  0.00  0.00    +0.115 C 
BRANCH   5   4
ATOM      4  N   UNL     1       5.526 137.383 354.387  0.00  0.00    -0.213 NA
BRANCH   4   3
ATOM      3  C   UNL     1       5.763 136.267 355.302  0.00  0.00    +0.089 C 
BRANCH   3   2
ATOM      1  C   UNL     1       6.308 133.836 355.518  0.00  0.00    +0.002 C 
ATOM      2  C   UNL     1       6.043 134.983 354.574  0.00  0.00    +0.019 C 
ENDBRANCH   3   2
ENDBRANCH   4   3
ENDBRANCH   5   4
ENDBRANCH   6   5
TORSDOF 4
