REMARK  Name = 3v3v_ligand
REMARK  7 active torsions:
REMARK  status: ('A' for Active; 'I' for Inactive)
REMARK    1  A    between atoms: C12_3  and  O19_4
REMARK    2  A    between atoms: C13_6  and  O21_7
REMARK    3  A    between atoms: C15_10  and  O22_11
REMARK    4  A    between atoms: C14_12  and  O23_13
REMARK    5  A    between atoms: C7_15  and  C6_16
REMARK    6  A    between atoms: C4_18  and  O17_19
REMARK    7  A    between atoms: C3_20  and  O18_21
REMARK                            x       y       z     vdW  Elec       q    Type
REMARK                         _______ _______ _______ _____ _____    ______ ____
ROOT
ATOM      1  O   UNL     1      33.982  45.174   5.698  0.00  0.00    -0.416 OA
ATOM      2  C   UNL     1      33.046  44.710   5.041  0.00  0.00    +0.142 A 
ATOM      3  C   UNL     1      33.038  43.388   4.538  0.00  0.00    +0.074 A 
ATOM      4  C   UNL     1      31.933  42.935   3.783  0.00  0.00    +0.111 A 
ATOM      5  O   UNL     1      30.880  43.795   3.540  0.00  0.00    -0.265 OA
ATOM      6  C   UNL     1      30.846  45.097   3.993  0.00  0.00    +0.150 A 
ATOM     17  C   UNL     1      31.868  41.628   3.268  0.00  0.00    +0.025 A 
ATOM     18  C   UNL     1      32.902  40.723   3.493  0.00  0.00    +0.106 A 
ATOM     19  C   UNL     1      34.006  41.136   4.242  0.00  0.00    +0.139 A 
ATOM     24  C   UNL     1      34.074  42.448   4.765  0.00  0.00    +0.121 A 
ATOM     27  C   UNL     1      31.947  45.523   4.774  0.00  0.00    +0.159 A 
ENDROOT
BRANCH   6   7
ATOM      7  C   UNL     1      29.629  45.782   3.775  0.00  0.00    -0.006 A 
ATOM      8  C   UNL     1      28.636  45.277   2.906  0.00  0.00    -0.023 A 
ATOM      9  C   UNL     1      27.416  45.934   2.726  0.00  0.00    +0.011 A 
ATOM     10  C   UNL     1      27.192  47.104   3.465  0.00  0.00    +0.117 A 
ATOM     13  C   UNL     1      28.151  47.592   4.346  0.00  0.00    +0.116 A 
ATOM     16  C   UNL     1      29.357  46.935   4.511  0.00  0.00    +0.016 A 
BRANCH  10  11
ATOM     11  O   UNL     1      26.051  47.850   3.392  0.00  0.00    -0.336 OA
ATOM     12  H   UNL     1      25.639  47.888   4.258  0.00  0.00    +0.245 HD
ENDBRANCH  10  11
BRANCH  13  14
ATOM     14  O   UNL     1      27.848  48.727   5.025  0.00  0.00    -0.337 OA
ATOM     15  H   UNL     1      26.971  49.026   4.772  0.00  0.00    +0.244 HD
ENDBRANCH  13  14
ENDBRANCH   6   7
BRANCH  19  20
ATOM     20  O   UNL     1      35.030  40.239   4.461  0.00  0.00    -0.348 OA
ATOM     21  H   UNL     1      35.715  40.659   4.987  0.00  0.00    +0.237 HD
ENDBRANCH  19  20
BRANCH  18  22
ATOM     22  O   UNL     1      32.895  39.442   3.018  0.00  0.00    -0.339 OA
ATOM     23  H   UNL     1      33.701  38.997   3.289  0.00  0.00    +0.246 HD
ENDBRANCH  18  22
BRANCH  24  25
ATOM     25  O   UNL     1      35.176  42.807   5.502  0.00  0.00    -0.337 OA
ATOM     26  H   UNL     1      35.777  42.061   5.561  0.00  0.00    +0.246 HD
ENDBRANCH  24  25
BRANCH  27  28
ATOM     28  O   UNL     1      31.989  46.791   5.291  0.00  0.00    -0.341 OA
ATOM     29  H   UNL     1      32.752  47.254   4.938  0.00  0.00    +0.242 HD
ENDBRANCH  27  28
TORSDOF 7
