REMARK  Name = 4rqk_ligand
REMARK  2 active torsions:
REMARK  status: ('A' for Active; 'I' for Inactive)
REMARK    1  A    between atoms: N10_10  and  S11_11
REMARK    2  A    between atoms: S11_11  and  C14_14
REMARK                            x       y       z     vdW  Elec       q    Type
REMARK                         _______ _______ _______ _____ _____    ______ ____
ROOT
ATOM      1 CL   UNL     1     -15.817  17.665 -14.327  0.00  0.00    -0.081 Cl
ATOM      2  C   UNL     1     -14.468  17.908 -13.263  0.00  0.00    +0.026 A 
ATOM      3  C   UNL     1     -13.256  18.459 -13.701  0.00  0.00    -0.008 A 
ATOM      4  C   UNL     1     -12.211  18.631 -12.803  0.00  0.00    -0.013 A 
ATOM      5  C   UNL     1     -12.390  18.247 -11.456  0.00  0.00    +0.003 A 
ATOM      6  N   UNL     1     -11.377  18.383 -10.417  0.00  0.00    -0.316 NA
ATOM      7  C   UNL     1     -11.887  17.923  -9.216  0.00  0.00    +0.207 A 
ATOM      8  S   UNL     1     -13.446  17.374  -9.434  0.00  0.00    +0.027 S 
ATOM      9  N   UNL     1     -11.245  17.917  -7.953  0.00  0.00    -0.141 N 
ATOM     10  H   UNL     1     -11.637  18.455  -7.207  0.00  0.00    +0.238 HD
ATOM     23  C   UNL     1     -13.604  17.709 -11.047  0.00  0.00    +0.046 A 
ATOM     24  C   UNL     1     -14.645  17.531 -11.941  0.00  0.00    +0.015 A 
ENDROOT
BRANCH   9  11
ATOM     11  S   UNL     1      -9.902  17.069  -7.682  0.00  0.00    +0.091 S 
ATOM     21  O   UNL     1      -9.332  17.291  -6.384  0.00  0.00    -0.146 OA
ATOM     22  O   UNL     1      -8.830  17.452  -8.556  0.00  0.00    -0.146 OA
BRANCH  11  12
ATOM     12  C   UNL     1     -10.525  15.439  -7.925  0.00  0.00    +0.117 A 
ATOM     13  C   UNL     1      -9.953  14.456  -8.904  0.00  0.00    +0.002 A 
ATOM     14  C   UNL     1      -8.834  14.724  -9.716  0.00  0.00    -0.008 A 
ATOM     15  C   UNL     1      -8.380  13.743 -10.562  0.00  0.00    -0.016 A 
ATOM     16  C   UNL     1      -9.053  12.506 -10.592  0.00  0.00    -0.014 A 
ATOM     17  C   UNL     1     -10.162  12.235  -9.787  0.00  0.00    +0.007 A 
ATOM     18  C   UNL     1     -10.624  13.230  -8.936  0.00  0.00    +0.040 A 
ATOM     19  S   UNL     1     -11.872  13.331  -7.841  0.00  0.00    -0.036 S 
ATOM     20  C   UNL     1     -11.657  14.866  -7.268  0.00  0.00    +0.106 A 
ENDBRANCH  11  12
ENDBRANCH   9  11
TORSDOF 2
