REMARK  Name = 5UAB
REMARK  4 active torsions:
REMARK  status: ('A' for Active; 'I' for Inactive)
REMARK    1  A    between atoms: C_2  and  S_25
REMARK    2  A    between atoms: C_7  and  C_16
REMARK    3  A    between atoms: C_10  and  N_23
REMARK    4  A    between atoms: C_14  and  S_25
REMARK                            x       y       z     vdW  Elec       q    Type
REMARK                         _______ _______ _______ _____ _____    ______ ____
ROOT
ATOM      8  C   UNL     1      -5.520  11.092  20.847  0.00  0.00    +0.125 A 
ATOM      9  N   UNL     1      -6.182  11.964  20.155  0.00  0.00    -0.158 NA
ATOM     10  N   UNL     1      -5.471  12.513  19.155  0.00  0.00    -0.218 N 
ATOM     11  C   UNL     1      -4.168  12.252  18.818  0.00  0.00    +0.156 A 
ATOM     12  N   UNL     1      -3.796  12.974  17.781  0.00  0.00    -0.211 NA
ATOM     13  C   UNL     1      -4.894  13.720  17.432  0.00  0.00    +0.146 A 
ATOM     21  C   UNL     1      -3.483  11.298  19.602  0.00  0.00    +0.051 A 
ATOM     22  C   UNL     1      -5.945  13.443  18.279  0.00  0.00    +0.158 A 
ATOM     23  C   UNL     1      -4.111  10.692  20.621  0.00  0.00    +0.040 A 
ENDROOT
BRANCH  13  14
ATOM     14  N   UNL     1      -4.885  14.607  16.360  0.00  0.00    -0.269 N 
ATOM     15  H   UNL     1      -3.953  14.800  15.871  0.00  0.00    +0.156 HD
ATOM     16  C   UNL     1      -6.015  15.253  15.893  0.00  0.00    +0.221 C 
ATOM     17  O   UNL     1      -7.113  15.291  16.436  0.00  0.00    -0.275 OA
BRANCH  16  18
ATOM     18  C   UNL     1      -5.781  15.972  14.623  0.00  0.00    +0.075 C 
ATOM     19  C   UNL     1      -6.849  16.049  13.570  0.00  0.00    +0.013 C 
ATOM     20  C   UNL     1      -6.465  17.278  14.341  0.00  0.00    +0.013 C 
ENDBRANCH  16  18
ENDBRANCH  13  14
BRANCH   8   7
ATOM      7  S   UNL     1      -6.314  10.281  22.189  0.00  0.00    -0.028 S 
BRANCH   7   6
ATOM      1  C   UNL     1      -7.623   7.306  20.103  0.00  0.00    +0.130 A 
ATOM      2  N   UNL     1      -7.655   8.639  20.434  0.00  0.00    -0.280 N 
ATOM      3  C   UNL     1      -8.515   9.551  19.852  0.00  0.00    +0.091 C 
ATOM      4  C   UNL     1      -9.362   9.116  18.909  0.00  0.00    -0.005 C 
ATOM      5  C   UNL     1      -9.349   7.720  18.539  0.00  0.00    +0.059 C 
ATOM      6  C   UNL     1      -6.696   8.774  21.403  0.00  0.00    +0.200 A 
ATOM     24  N   UNL     1      -6.125   7.618  21.647  0.00  0.00    -0.146 NA
ATOM     25  N   UNL     1      -6.711   6.695  20.826  0.00  0.00    -0.260 N 
ATOM     26  H   UNL     1      -6.469   5.654  20.780  0.00  0.00    +0.191 HD
ATOM     27  C   UNL     1      -8.513   6.844  19.111  0.00  0.00    +0.023 C 
ENDBRANCH   7   6
ENDBRANCH   8   7
TORSDOF 4
