REMARK  Name = 3p9j_ligand
REMARK  3 active torsions:
REMARK  status: ('A' for Active; 'I' for Inactive)
REMARK    1  A    between atoms: N2_2  and  C11_11
REMARK    2  A    between atoms: N17_17  and  C18_18
REMARK    3  A    between atoms: C20_20  and  C23_23
REMARK                            x       y       z     vdW  Elec       q    Type
REMARK                         _______ _______ _______ _____ _____    ______ ____
ROOT
ATOM      1  C   UNL     1      -4.145  32.571  -2.707  0.00  0.00    +0.263 A 
ATOM      2  O   UNL     1      -4.372  32.419  -1.508  0.00  0.00    -0.368 OA
ATOM      3  C   UNL     1      -3.333  33.612  -3.102  0.00  0.00    +0.078 A 
ATOM      4  C   UNL     1      -3.085  33.769  -4.451  0.00  0.00    +0.060 A 
ATOM      5  C   UNL     1      -3.656  32.860  -5.342  0.00  0.00    +0.156 A 
ATOM      6  N   UNL     1      -3.461  33.022  -6.649  0.00  0.00    -0.301 NA
ATOM     14  N   UNL     1      -4.418  31.859  -4.878  0.00  0.00    -0.165 N 
ATOM     15  H   UNL     1      -4.749  31.152  -5.535  0.00  0.00    +0.228 HD
ATOM     16  C   UNL     1      -2.267  34.808  -4.880  0.00  0.00    +0.034 A 
ATOM     17  C   UNL     1      -1.706  35.681  -3.950  0.00  0.00    +0.016 A 
ATOM     18  C   UNL     1      -1.966  35.513  -2.595  0.00  0.00    +0.017 A 
ATOM     19  C   UNL     1      -2.780  34.471  -2.167  0.00  0.00    +0.034 A 
ATOM     20  N   UNL     1      -4.736  31.756  -3.692  0.00  0.00    -0.107 N 
ENDROOT
BRANCH   6   7
ATOM      7  C   UNL     1      -3.938  32.242  -7.623  0.00  0.00    +0.043 A 
ATOM      8  N   UNL     1      -3.771  32.529  -8.915  0.00  0.00    -0.236 NA
ATOM      9  N   UNL     1      -4.338  31.667  -9.593  0.00  0.00    -0.227 N 
ATOM     10  H   UNL     1      -4.358  31.626 -10.612  0.00  0.00    +0.250 HD
ATOM     11  C   UNL     1      -4.917  30.803  -8.768  0.00  0.00    +0.059 A 
ATOM     12  C   UNL     1      -5.711  29.588  -9.236  0.00  0.00    +0.128 C 
ATOM     13  C   UNL     1      -4.701  31.159  -7.505  0.00  0.00    -0.020 A 
ENDBRANCH   6   7
BRANCH  20  21
ATOM     21  C   UNL     1      -5.465  30.648  -3.287  0.00  0.00    +0.098 A 
ATOM     22  C   UNL     1      -5.841  29.690  -4.217  0.00  0.00    +0.012 A 
ATOM     23  C   UNL     1      -6.574  28.579  -3.820  0.00  0.00    -0.018 A 
ATOM     24  C   UNL     1      -7.012  28.472  -2.508  0.00  0.00    -0.028 A 
ATOM     25  C   UNL     1      -6.688  29.463  -1.597  0.00  0.00    -0.018 A 
ATOM     26  C   UNL     1      -5.931  30.556  -1.987  0.00  0.00    +0.012 A 
ENDBRANCH  20  21
TORSDOF 2
