REMARK  Name = 3h9o_ligand
REMARK  8 active torsions:
REMARK  status: ('A' for Active; 'I' for Inactive)
REMARK    1  A    between atoms: C1_1  and  O1_8
REMARK    2  A    between atoms: C2_2  and  O1_8
REMARK    3  A    between atoms: C2_2  and  C3_9
REMARK    4  A    between atoms: C9_4  and  O3_15
REMARK    5  A    between atoms: C3_9  and  O2_10
REMARK    6  A    between atoms: O2_10  and  C4_11
REMARK    7  A    between atoms: O3_15  and  C10_16
REMARK    8  A    between atoms: C14_20  and  N3_23
REMARK                            x       y       z     vdW  Elec       q    Type
REMARK                         _______ _______ _______ _____ _____    ______ ____
ROOT
ATOM      6  C   UNL     1      36.866 -15.693  13.810  0.00  0.00    +0.130 A 
ATOM      7  C   UNL     1      37.393 -14.463  13.417  0.00  0.00    +0.032 A 
ATOM      8  C   UNL     1      38.668 -14.340  12.897  0.00  0.00    +0.024 A 
ATOM      9  N   UNL     1      39.064 -13.111  12.552  0.00  0.00    -0.310 NA
ATOM     10  C   UNL     1      40.303 -12.972  12.049  0.00  0.00    +0.100 A 
ATOM     11  C   UNL     1      41.205 -14.015  11.851  0.00  0.00    +0.048 A 
ATOM     12  C   UNL     1      42.488 -13.821  11.321  0.00  0.00    +0.124 A 
ATOM     16  N   UNL     1      43.352 -14.835  11.133  0.00  0.00    -0.250 NA
ATOM     17  C   UNL     1      42.972 -16.090  11.479  0.00  0.00    +0.156 A 
ATOM     18  N   UNL     1      43.935 -17.126  11.289  0.00  0.00    -0.198 N 
ATOM     19  C   UNL     1      45.285 -16.903  11.056  0.00  0.00    +0.240 A 
ATOM     20  N   UNL     1      45.984 -18.015  10.916  0.00  0.00    -0.325 NA
ATOM     21  C   UNL     1      45.060 -19.015  11.065  0.00  0.00    +0.027 A 
ATOM     22  C   UNL     1      43.795 -18.503  11.297  0.00  0.00    +0.142 A 
ATOM     23  C   UNL     1      41.715 -16.366  12.015  0.00  0.00    +0.045 A 
ATOM     24  C   UNL     1      40.795 -15.312  12.215  0.00  0.00    -0.006 A 
ATOM     25  C   UNL     1      39.479 -15.480  12.761  0.00  0.00    -0.010 A 
ATOM     26  C   UNL     1      38.940 -16.726  13.158  0.00  0.00    +0.028 A 
ATOM     27  C   UNL     1      37.655 -16.849  13.683  0.00  0.00    +0.129 A 
ENDROOT
BRANCH  12  13
ATOM     13  N   UNL     1      42.946 -12.577  10.933  0.00  0.00    -0.315 N 
ATOM     14  H   UNL     1      42.338 -11.751  11.029  0.00  0.00    +0.183 HD
ATOM     15  H   UNL     1      43.896 -12.475  10.548  0.00  0.00    +0.183 HD
ENDBRANCH  12  13
BRANCH  27  28
ATOM     28  O   UNL     1      37.106 -18.042  14.076  0.00  0.00    -0.320 OA
ATOM     29  C   UNL     1      37.397 -19.203  13.305  0.00  0.00    +0.231 C 
ENDBRANCH  27  28
BRANCH   6   5
ATOM      5  O   UNL     1      35.613 -15.872  14.326  0.00  0.00    -0.314 OA
BRANCH   5   4
ATOM      4  C   UNL     1      34.770 -14.750  14.557  0.00  0.00    +0.220 C 
BRANCH   4   3
ATOM      3  C   UNL     1      33.521 -15.211  15.298  0.00  0.00    +0.192 C 
BRANCH   3   2
ATOM      1  C   UNL     1      31.633 -15.974  14.090  0.00  0.00    +0.194 C 
ATOM      2  O   UNL     1      32.380 -14.836  14.523  0.00  0.00    -0.380 OA
ENDBRANCH   3   2
ENDBRANCH   4   3
ENDBRANCH   5   4
ENDBRANCH   6   5
TORSDOF 6
