REMARK  Name = 5AJZ
REMARK  6 active torsions:
REMARK  status: ('A' for Active; 'I' for Inactive)
REMARK    1  A    between atoms: C_2  and  C_3
REMARK    2  A    between atoms: C_11  and  O_12
REMARK    3  A    between atoms: O_12  and  C_13
REMARK    4  A    between atoms: C_17  and  N_19
REMARK    5  A    between atoms: C_20  and  C_22
REMARK    6  A    between atoms: C_22  and  N_23
REMARK                            x       y       z     vdW  Elec       q    Type
REMARK                         _______ _______ _______ _____ _____    ______ ____
ROOT
ATOM      8  C   UNL     1     -41.470 -36.501 -14.493  0.00  0.00    +0.129 A 
ATOM      9  C   UNL     1     -41.483 -35.132 -14.724  0.00  0.00    +0.048 A 
ATOM     10  C   UNL     1     -41.193 -34.645 -15.989  0.00  0.00    +0.027 A 
ATOM     11  C   UNL     1     -40.872 -35.521 -17.026  0.00  0.00    +0.034 A 
ATOM     20  C   UNL     1     -40.822 -36.891 -16.770  0.00  0.00    +0.027 A 
ATOM     21  C   UNL     1     -41.122 -37.382 -15.512  0.00  0.00    +0.048 A 
ENDROOT
BRANCH  11  12
ATOM     12  N   UNL     1     -40.643 -34.998 -18.327  0.00  0.00    -0.284 N 
ATOM     13  H   UNL     1     -40.708 -33.934 -18.418  0.00  0.00    +0.155 HD
ATOM     14  C   UNL     1     -40.353 -35.668 -19.467  0.00  0.00    +0.231 C 
ATOM     19  O   UNL     1     -40.064 -36.861 -19.519  0.00  0.00    -0.274 OA
BRANCH  14  15
ATOM     15  C   UNL     1     -40.367 -34.827 -20.753  0.00  0.00    +0.175 C 
BRANCH  15  16
ATOM     16  N   UNL     1     -39.267 -35.269 -21.606  0.00  0.00    -0.323 NA
ATOM     17  H   UNL     1     -38.339 -35.134 -21.091  0.00  0.00    +0.119 HD
ATOM     18  H   UNL     1     -39.394 -36.304 -21.845  0.00  0.00    +0.119 HD
ENDBRANCH  15  16
ENDBRANCH  14  15
ENDBRANCH  11  12
BRANCH   8   7
ATOM      7  O   UNL     1     -41.920 -36.967 -13.256  0.00  0.00    -0.456 OA
BRANCH   7   6
ATOM      3  C   UNL     1     -43.135 -41.641 -11.971  0.00  0.00    +0.079 A 
ATOM      4  C   UNL     1     -42.365 -40.467 -12.226  0.00  0.00    +0.023 A 
ATOM      5  C   UNL     1     -42.645 -39.201 -12.745  0.00  0.00    +0.057 A 
ATOM      6  C   UNL     1     -41.625 -38.255 -12.813  0.00  0.00    +0.129 A 
ATOM     22  C   UNL     1     -40.330 -38.550 -12.403  0.00  0.00    +0.048 A 
ATOM     23  C   UNL     1     -40.031 -39.807 -11.901  0.00  0.00    +0.032 A 
ATOM     24  C   UNL     1     -41.050 -40.749 -11.802  0.00  0.00    +0.072 A 
ATOM     25  N   UNL     1     -41.040 -42.029 -11.293  0.00  0.00    -0.254 NA
ATOM     26  C   UNL     1     -42.290 -42.567 -11.409  0.00  0.00    +0.131 A 
BRANCH   3   2
ATOM      1  N   UNL     1     -45.674 -41.820 -12.387  0.00  0.00    -0.191 NA
ATOM      2  C   UNL     1     -44.549 -41.771 -12.200  0.00  0.00    +0.101 C 
ENDBRANCH   3   2
ENDBRANCH   7   6
ENDBRANCH   8   7
TORSDOF 6
