REMARK  Name = 5TKD
REMARK  7 active torsions:
REMARK  status: ('A' for Active; 'I' for Inactive)
REMARK    1  A    between atoms: C_2  and  C_4
REMARK    2  A    between atoms: C_6  and  C_20
REMARK    3  A    between atoms: C_7  and  N_21
REMARK    4  A    between atoms: C_8  and  C_18
REMARK    5  A    between atoms: C_9  and  N_19
REMARK    6  A    between atoms: C_13  and  N_19
REMARK    7  A    between atoms: C_15  and  N_21
REMARK                            x       y       z     vdW  Elec       q    Type
REMARK                         _______ _______ _______ _____ _____    ______ ____
ROOT
ATOM     11  C   UNL     1      11.726  -4.021  30.183  0.00  0.00    +0.117 C 
ATOM     12  C   UNL     1      10.689  -3.602  31.051  0.00  0.00    +0.069 C 
ATOM     13  C   UNL     1      10.838  -2.490  31.834  0.00  0.00    +0.073 C 
ATOM     17  C   UNL     1      12.091  -1.808  31.733  0.00  0.00    +0.152 C 
ATOM     18  N   UNL     1      12.552  -0.720  32.336  0.00  0.00    -0.343 NA
ATOM     19  H   UNL     1      12.061  -0.133  33.083  0.00  0.00    +0.167 HD
ATOM     20  C   UNL     1      13.795  -0.511  31.794  0.00  0.00    +0.117 C 
ATOM     21  C   UNL     1      14.138  -1.461  30.861  0.00  0.00    +0.143 C 
ATOM     27  N   UNL     1      13.024  -2.302  30.835  0.00  0.00    -0.229 NA
ATOM     28  N   UNL     1      12.866  -3.421  30.040  0.00  0.00    -0.278 NA
ATOM     29  H   UNL     1      13.621  -3.763  29.363  0.00  0.00    +0.189 HD
ENDROOT
BRANCH  21  22
ATOM     22  C   UNL     1      15.383  -1.530  30.057  0.00  0.00    +0.261 C 
ATOM     23  O   UNL     1      16.260  -0.675  30.278  0.00  0.00    -0.269 OA
ATOM     24  N   UNL     1      15.548  -2.482  29.142  0.00  0.00    -0.324 N 
ATOM     25  H   UNL     1      14.864  -3.192  28.911  0.00  0.00    +0.145 HD
ATOM     26  H   UNL     1      16.410  -2.537  28.610  0.00  0.00    +0.145 HD
ENDBRANCH  21  22
BRANCH  13  14
ATOM     14  N   UNL     1       9.897  -2.003  32.665  0.00  0.00    -0.344 NA
ATOM     15  H   UNL     1      10.093  -1.177  33.220  0.00  0.00    +0.146 HD
ATOM     16  C   UNL     1       8.585  -2.607  32.816  0.00  0.00    +0.125 C 
ENDBRANCH  13  14
BRANCH  11   9
ATOM      9  N   UNL     1      11.583  -5.162  29.395  0.00  0.00    -0.300 N 
ATOM     10  H   UNL     1      10.751  -5.707  29.595  0.00  0.00    +0.154 HD
BRANCH   9   8
ATOM      1  C   UNL     1      11.720  -6.262  27.268  0.00  0.00    +0.026 A 
ATOM      2  C   UNL     1      12.433  -6.847  26.229  0.00  0.00    -0.048 A 
ATOM      3  C   UNL     1      11.716  -7.451  25.043  0.00  0.00    +0.044 C 
ATOM      4  C   UNL     1      13.819  -6.848  26.297  0.00  0.00    +0.006 A 
ATOM      5  C   UNL     1      14.509  -6.295  27.367  0.00  0.00    -0.048 A 
ATOM      6  C   UNL     1      13.773  -5.752  28.413  0.00  0.00    +0.026 A 
ATOM      7  C   UNL     1      16.016  -6.199  27.347  0.00  0.00    +0.044 C 
ATOM      8  C   UNL     1      12.380  -5.715  28.364  0.00  0.00    +0.033 A 
ENDBRANCH   9   8
ENDBRANCH  11   9
TORSDOF 4
