REMARK  Name = 3kaf_ligand
REMARK  5 active torsions:
REMARK  status: ('A' for Active; 'I' for Inactive)
REMARK    1  A    between atoms: C9_9  and  C10_10
REMARK    2  A    between atoms: C10_10  and  C11_11
REMARK    3  A    between atoms: C11_11  and  C12_12
REMARK    4  A    between atoms: C11_11  and  N13_13
REMARK    5  A    between atoms: C16_16  and  C17_17
REMARK                            x       y       z     vdW  Elec       q    Type
REMARK                         _______ _______ _______ _____ _____    ______ ____
ROOT
ATOM      7  CA  UNL     1      39.459 -14.065  10.447  0.00  0.00    +0.187 C 
ENDROOT
BRANCH   7   8
ATOM      8  N   UNL     1      40.563 -14.625   9.661  0.00  0.00    -0.268 N 
ATOM      9  H   UNL     1      41.243 -13.957   9.358  0.00  0.00    +0.187 HD
ATOM     10  C   UNL     1      40.811 -15.895   9.280  0.00  0.00    +0.216 C 
ATOM     11  O   UNL     1      41.242 -16.745  10.049  0.00  0.00    -0.386 OA
BRANCH  10  12
ATOM     12  C   UNL     1      40.564 -16.258   7.846  0.00  0.00    +0.105 A 
ATOM     13  S   UNL     1      40.932 -17.919   7.354  0.00  0.00    -0.023 S 
ATOM     14  C   UNL     1      40.451 -17.643   5.751  0.00  0.00    +0.042 A 
ATOM     15  C   UNL     1      40.455 -18.541   4.678  0.00  0.00    +0.011 A 
ATOM     16  C   UNL     1      39.987 -18.055   3.445  0.00  0.00    -0.009 A 
ATOM     17  C   UNL     1      39.544 -16.720   3.273  0.00  0.00    -0.012 A 
ATOM     18  C   UNL     1      39.544 -15.799   4.326  0.00  0.00    -0.003 A 
ATOM     19  C   UNL     1      39.991 -16.232   5.581  0.00  0.00    -0.015 A 
ATOM     20  C   UNL     1      40.061 -15.457   6.799  0.00  0.00    +0.018 A 
ENDBRANCH  10  12
ENDBRANCH   7   8
BRANCH   7  21
ATOM     21  C   UNL     1      38.988 -12.768   9.820  0.00  0.00    +0.063 C 
ATOM     22  OXT UNL     1      38.870 -11.770  10.582  0.00  0.00    -0.566 OA
ATOM     23  O   UNL     1      38.725 -12.723   8.582  0.00  0.00    -0.566 OA
ENDBRANCH   7  21
BRANCH   7   6
ATOM      6  C   UNL     1      38.223 -14.944  10.732  0.00  0.00    +0.179 C 
BRANCH   6   5
ATOM      1  C   UNL     1      39.425 -18.644  13.843  0.00  0.00    +0.012 A 
ATOM      2  C   UNL     1      39.075 -17.842  12.762  0.00  0.00    +0.078 A 
ATOM      3  C   UNL     1      38.881 -18.458  11.431  0.00  0.00    +0.021 A 
ATOM      4  N   UNL     1      38.554 -17.461  10.615  0.00  0.00    -0.318 NA
ATOM      5  C   UNL     1      38.537 -16.302  11.327  0.00  0.00    +0.125 A 
ATOM     24  C   UNL     1      39.044 -19.819  11.272  0.00  0.00    -0.012 A 
ATOM     25  C   UNL     1      39.395 -20.572  12.398  0.00  0.00    -0.027 A 
ATOM     26  N   UNL     1      38.848 -16.537  12.612  0.00  0.00    -0.246 N 
ATOM     27  H   UNL     1      38.902 -15.828  13.357  0.00  0.00    +0.232 HD
ATOM     28  C   UNL     1      39.592 -20.011  13.663  0.00  0.00    -0.024 A 
ENDBRANCH   6   5
ENDBRANCH   7   6
TORSDOF 5
