REMARK  Name = 4FKQ
REMARK  4 active torsions:
REMARK  status: ('A' for Active; 'I' for Inactive)
REMARK    1  A    between atoms: N_5  and  C_20
REMARK    2  A    between atoms: N_6  and  C_17
REMARK    3  A    between atoms: N_7  and  S_25
REMARK    4  A    between atoms: C_18  and  S_25
REMARK                            x       y       z     vdW  Elec       q    Type
REMARK                         _______ _______ _______ _____ _____    ______ ____
ROOT
ATOM      1  N   UNL     1      13.342  45.832  14.988  0.00  0.00    -0.175 NA
ATOM      2  C   UNL     1      12.548  44.898  14.421  0.00  0.00    +0.069 A 
ATOM      3  C   UNL     1      12.986  44.641  13.110  0.00  0.00    +0.057 A 
ATOM      4  C   UNL     1      12.350  43.616  12.366  0.00  0.00    +0.097 A 
ATOM      5  C   UNL     1      11.224  42.958  12.876  0.00  0.00    +0.113 A 
ATOM      6  C   UNL     1      10.786  43.199  14.176  0.00  0.00    +0.034 A 
ATOM      7  N   UNL     1      10.858  42.076  11.930  0.00  0.00    -0.130 NA
ATOM      8  N   UNL     1      11.596  42.240  10.936  0.00  0.00    -0.067 NA
ATOM      9  N   UNL     1      12.488  43.103  11.124  0.00  0.00    -0.256 N 
ATOM     10  H   UNL     1      13.237  43.387  10.415  0.00  0.00    +0.191 HD
ATOM     11  C   UNL     1      14.054  45.526  12.897  0.00  0.00    +0.161 C 
ATOM     26  C   UNL     1      11.454  44.180  14.946  0.00  0.00    +0.028 A 
ATOM     27  C   UNL     1      14.228  46.246  14.078  0.00  0.00    +0.289 C 
ATOM     28  O   UNL     1      15.143  47.062  14.296  0.00  0.00    -0.266 OA
ENDROOT
BRANCH  11  12
ATOM     12  N   UNL     1      14.906  45.560  11.839  0.00  0.00    -0.143 NA
ATOM     13  N   UNL     1      15.931  46.279  11.825  0.00  0.00    -0.149 NA
BRANCH  13  14
ATOM     14  C   UNL     1      16.810  46.282  10.794  0.00  0.00    +0.086 A 
ATOM     15  C   UNL     1      17.810  47.264  10.746  0.00  0.00    +0.031 A 
ATOM     16  C   UNL     1      18.761  47.259   9.726  0.00  0.00    +0.030 A 
ATOM     17  C   UNL     1      18.737  46.238   8.772  0.00  0.00    +0.105 A 
ATOM     24  C   UNL     1      17.768  45.232   8.820  0.00  0.00    +0.030 A 
ATOM     25  C   UNL     1      16.812  45.244   9.844  0.00  0.00    +0.031 A 
BRANCH  17  18
ATOM     18  S   UNL     1      19.976  46.237   7.546  0.00  0.00    +0.056 S 
ATOM     19  O   UNL     1      21.190  45.692   8.197  0.00  0.00    -0.153 OA
ATOM     20  O   UNL     1      20.258  47.627   7.086  0.00  0.00    -0.153 OA
BRANCH  18  21
ATOM     21  N   UNL     1      19.598  45.240   6.327  0.00  0.00    -0.203 NA
ATOM     22  H   UNL     1      18.725  45.603   5.827  0.00  0.00    +0.144 HD
ATOM     23  H   UNL     1      20.413  45.197   5.635  0.00  0.00    +0.144 HD
ENDBRANCH  18  21
ENDBRANCH  17  18
ENDBRANCH  13  14
ENDBRANCH  11  12
TORSDOF 4
