REMARK  Name = 5VCX
REMARK  8 active torsions:
REMARK  status: ('A' for Active; 'I' for Inactive)
REMARK    1  A    between atoms: C_1  and  N_2
REMARK    2  A    between atoms: N_5  and  C_6
REMARK    3  A    between atoms: C_6  and  C_7
REMARK    4  A    between atoms: C_7  and  O_8
REMARK    5  A    between atoms: O_8  and  C_9
REMARK    6  A    between atoms: C_11  and  O_12
REMARK    7  A    between atoms: O_12  and  C_13
REMARK    8  A    between atoms: N_21  and  C_22
REMARK                            x       y       z     vdW  Elec       q    Type
REMARK                         _______ _______ _______ _____ _____    ______ ____
ROOT
ATOM      9  C   UNL     1      20.556   6.986   3.102  0.00  0.00    +0.126 A 
ATOM     10  C   UNL     1      21.670   6.891   2.261  0.00  0.00    +0.074 A 
ATOM     11  C   UNL     1      22.117   5.641   1.808  0.00  0.00    +0.083 A 
ATOM     12  N   UNL     1      23.205   5.640   0.998  0.00  0.00    -0.235 NA
ATOM     13  C   UNL     1      23.711   4.494   0.506  0.00  0.00    +0.224 A 
ATOM     14  N   UNL     1      23.118   3.330   0.834  0.00  0.00    -0.220 NA
ATOM     15  C   UNL     1      22.025   3.227   1.640  0.00  0.00    +0.138 A 
ATOM     16  N   UNL     1      21.546   1.965   1.879  0.00  0.00    -0.295 N 
ATOM     17  H   UNL     1      20.669   1.899   2.489  0.00  0.00    +0.154 HD
ATOM     28  C   UNL     1      21.460   4.426   2.177  0.00  0.00    +0.082 A 
ATOM     29  C   UNL     1      20.323   4.503   3.038  0.00  0.00    +0.137 A 
ATOM     37  C   UNL     1      19.895   5.807   3.481  0.00  0.00    +0.092 A 
ENDROOT
BRANCH  16  18
ATOM     18  C   UNL     1      22.062   0.775   1.426  0.00  0.00    +0.097 A 
ATOM     19  C   UNL     1      21.187  -0.143   0.779  0.00  0.00    +0.066 A 
ATOM     20 CL   UNL     1      19.536   0.196   0.571  0.00  0.00    -0.082 Cl
ATOM     21  C   UNL     1      21.671  -1.379   0.286  0.00  0.00    +0.025 A 
ATOM     22  C   UNL     1      23.030  -1.721   0.424  0.00  0.00    +0.051 A 
ATOM     23  C   UNL     1      23.895  -0.819   1.059  0.00  0.00    +0.168 A 
ATOM     24  O   UNL     1      25.213  -0.994   1.268  0.00  0.00    -0.453 OA
ATOM     25  C   UNL     1      25.563   0.188   2.005  0.00  0.00    +0.466 C 
ATOM     26  O   UNL     1      24.445   1.090   2.113  0.00  0.00    -0.451 OA
ATOM     27  C   UNL     1      23.428   0.396   1.549  0.00  0.00    +0.189 A 
ENDBRANCH  16  18
BRANCH   9   8
ATOM      8  O   UNL     1      20.152   8.224   3.526  0.00  0.00    -0.490 OA
BRANCH   8   7
ATOM      7  C   UNL     1      21.255   9.132   3.742  0.00  0.00    +0.244 C 
BRANCH   7   6
ATOM      6  C   UNL     1      20.726  10.555   4.022  0.00  0.00    +0.125 C 
BRANCH   6   5
ATOM      1  C   UNL     1      17.379  11.749   8.598  0.00  0.00    +0.105 C 
ATOM      2  N   UNL     1      18.262  11.770   7.397  0.00  0.00    -0.303 NA
ATOM      3  C   UNL     1      19.620  11.209   7.674  0.00  0.00    +0.099 C 
ATOM      4  C   UNL     1      20.534  11.298   6.431  0.00  0.00    +0.100 C 
ATOM      5  N   UNL     1      19.876  10.662   5.249  0.00  0.00    -0.297 NA
ATOM     38  C   UNL     1      18.534  11.252   4.963  0.00  0.00    +0.100 C 
ATOM     39  C   UNL     1      17.612  11.152   6.202  0.00  0.00    +0.099 C 
ENDBRANCH   6   5
ENDBRANCH   7   6
ENDBRANCH   8   7
ENDBRANCH   9   8
BRANCH  29  30
ATOM     30  O   UNL     1      19.657   3.314   3.407  0.00  0.00    -0.488 OA
BRANCH  30  31
ATOM     31  C   UNL     1      18.320   3.487   4.010  0.00  0.00    +0.178 C 
ATOM     32  C   UNL     1      18.027   2.362   5.063  0.00  0.00    +0.072 C 
ATOM     33  C   UNL     1      17.492   1.019   4.495  0.00  0.00    +0.163 C 
ATOM     34  O   UNL     1      16.999   1.113   3.146  0.00  0.00    -0.380 OA
ATOM     35  C   UNL     1      16.288   2.338   2.907  0.00  0.00    +0.163 C 
ATOM     36  C   UNL     1      17.327   3.476   2.809  0.00  0.00    +0.072 C 
ENDBRANCH  30  31
ENDBRANCH  29  30
TORSDOF 7
