REMARK  Name = 5NHJ
REMARK  7 active torsions:
REMARK  status: ('A' for Active; 'I' for Inactive)
REMARK    1  A    between atoms: C_1  and  N_24
REMARK    2  A    between atoms: N_4  and  C_13
REMARK    3  A    between atoms: C_5  and  C_6
REMARK    4  A    between atoms: C_13  and  C_14
REMARK    5  A    between atoms: C_14  and  O_16
REMARK    6  A    between atoms: O_16  and  C_17
REMARK    7  A    between atoms: N_26  and  C_27
REMARK                            x       y       z     vdW  Elec       q    Type
REMARK                         _______ _______ _______ _____ _____    ______ ____
ROOT
ATOM      6  N   UNL     1     -20.608  13.392  42.689  0.00  0.00    -0.269 N 
ATOM      7  H   UNL     1     -21.625  13.061  42.676  0.00  0.00    +0.156 HD
ATOM      8  C   UNL     1     -19.750  12.654  41.891  0.00  0.00    +0.221 A 
ATOM      9  N   UNL     1     -18.422  13.041  41.865  0.00  0.00    -0.213 NA
ATOM     10  C   UNL     1     -17.609  12.304  41.095  0.00  0.00    +0.094 A 
ATOM     11  C   UNL     1     -18.076  11.213  40.350  0.00  0.00    +0.050 A 
ATOM     12  C   UNL     1     -19.429  10.920  40.452  0.00  0.00    +0.116 A 
ATOM     27  N   UNL     1     -20.292  11.623  41.219  0.00  0.00    -0.223 NA
ENDROOT
BRANCH  10  13
ATOM     13  C   UNL     1     -16.199  12.716  41.091  0.00  0.00    +0.090 A 
ATOM     14  N   UNL     1     -15.752  13.686  41.978  0.00  0.00    -0.249 NA
ATOM     15  C   UNL     1     -14.417  13.893  41.770  0.00  0.00    +0.056 A 
ATOM     16  C   UNL     1     -13.547  14.850  42.512  0.00  0.00    +0.075 C 
ATOM     17  C   UNL     1     -12.406  15.263  41.596  0.00  0.00    +0.114 C 
ATOM     18  N   UNL     1     -11.834  14.118  40.849  0.00  0.00    -0.295 N 
ATOM     23  C   UNL     1     -12.582  13.103  40.331  0.00  0.00    +0.249 C 
ATOM     24  O   UNL     1     -12.103  12.176  39.680  0.00  0.00    -0.270 OA
ATOM     25  C   UNL     1     -13.985  13.076  40.758  0.00  0.00    +0.060 A 
ATOM     26  C   UNL     1     -15.108  12.322  40.327  0.00  0.00    +0.044 A 
BRANCH  18  19
ATOM     19  C   UNL     1     -10.439  14.350  40.377  0.00  0.00    +0.136 C 
BRANCH  19  20
ATOM     20  C   UNL     1     -10.283  14.834  38.933  0.00  0.00    +0.178 C 
BRANCH  20  21
ATOM     21  O   UNL     1     -10.878  16.029  38.796  0.00  0.00    -0.381 OA
ATOM     22  C   UNL     1     -10.958  16.458  37.434  0.00  0.00    +0.193 C 
ENDBRANCH  20  21
ENDBRANCH  19  20
ENDBRANCH  18  19
ENDBRANCH  10  13
BRANCH   6   1
ATOM      1  C   UNL     1     -20.367  14.487  43.501  0.00  0.00    +0.123 A 
ATOM      2  N   UNL     1     -21.277  15.483  43.580  0.00  0.00    -0.254 N 
ATOM      3  C   UNL     1     -22.570  15.621  42.912  0.00  0.00    +0.174 C 
ATOM      4  N   UNL     1     -20.853  16.467  44.425  0.00  0.00    -0.178 NA
ATOM      5  C   UNL     1     -19.665  16.045  44.856  0.00  0.00    +0.136 A 
ATOM     28  C   UNL     1     -19.314  14.820  44.315  0.00  0.00    +0.065 A 
ENDBRANCH   6   1
TORSDOF 5
