REMARK  Name = 5OQ6
REMARK  8 active torsions:
REMARK  status: ('A' for Active; 'I' for Inactive)
REMARK    1  A    between atoms: N_8  and  C_9
REMARK    2  A    between atoms: N_12  and  C_13
REMARK    3  A    between atoms: C_19  and  C_21
REMARK    4  A    between atoms: C_23  and  O_24
REMARK    5  A    between atoms: O_24  and  C_25
REMARK    6  A    between atoms: C_28  and  N_29
REMARK    7  A    between atoms: N_31  and  C_32
REMARK    8  A    between atoms: N_41  and  C_42
REMARK                            x       y       z     vdW  Elec       q    Type
REMARK                         _______ _______ _______ _____ _____    ______ ____
ROOT
ATOM     18  C   UNL     1       0.969  -3.292  20.729  0.00  0.00    +0.076 A 
ATOM     19  C   UNL     1       0.613  -4.154  19.704  0.00  0.00    +0.028 A 
ATOM     20  C   UNL     1      -0.644  -4.753  19.721  0.00  0.00    +0.015 A 
ATOM     21  C   UNL     1      -1.519  -4.495  20.759  0.00  0.00    +0.041 A 
ATOM     22  C   UNL     1      -1.192  -3.632  21.765  0.00  0.00    +0.060 A 
ATOM     38  C   UNL     1       0.062  -3.033  21.742  0.00  0.00    +0.142 A 
ENDROOT
BRANCH  18  16
ATOM      1  C   UNL     1       4.593  -4.288  18.741  0.00  0.00    +0.163 A 
ATOM      2  N   UNL     1       4.674  -5.370  17.960  0.00  0.00    -0.327 N 
ATOM      3  C   UNL     1       5.019  -5.343  16.647  0.00  0.00    +0.056 A 
ATOM      4  C   UNL     1       6.172  -4.762  16.201  0.00  0.00    +0.063 A 
ATOM      5  C   UNL     1       7.151  -4.185  17.177  0.00  0.00    +0.261 A 
ATOM      6  N   UNL     1       6.833  -3.556  18.319  0.00  0.00    -0.307 N 
ATOM      7  C   UNL     1       7.944  -3.079  19.103  0.00  0.00    +0.153 C 
ATOM      8  O   UNL     1       8.331  -4.259  16.836  0.00  0.00    -0.267 OA
ATOM      9  C   UNL     1       6.490  -4.696  14.859  0.00  0.00    +0.015 A 
ATOM     10  C   UNL     1       5.623  -5.268  13.925  0.00  0.00    +0.001 A 
ATOM     11  C   UNL     1       4.435  -5.842  14.367  0.00  0.00    +0.002 A 
ATOM     12  C   UNL     1       4.118  -5.898  15.708  0.00  0.00    +0.026 A 
ATOM     13  C   UNL     1       4.038  -6.563  18.460  0.00  0.00    +0.151 C 
ATOM     14  N   UNL     1       3.426  -4.095  19.363  0.00  0.00    -0.195 NA
ATOM     15  C   UNL     1       3.288  -2.956  20.071  0.00  0.00    +0.222 A 
ATOM     16  N   UNL     1       2.178  -2.631  20.772  0.00  0.00    -0.281 N 
ATOM     17  H   UNL     1       2.244  -1.782  21.420  0.00  0.00    +0.155 HD
ATOM     41  N   UNL     1       4.229  -2.019  20.127  0.00  0.00    -0.221 NA
ATOM     42  C   UNL     1       5.404  -2.198  19.525  0.00  0.00    +0.144 A 
ATOM     43  C   UNL     1       5.598  -3.332  18.776  0.00  0.00    +0.106 A 
ENDBRANCH  18  16
BRANCH  21  23
ATOM     23  C   UNL     1      -2.861  -5.185  20.783  0.00  0.00    +0.247 C 
ATOM     24  O   UNL     1      -3.755  -4.668  20.188  0.00  0.00    -0.270 OA
ATOM     25  N   UNL     1      -3.119  -6.283  21.495  0.00  0.00    -0.297 N 
ATOM     26  C   UNL     1      -2.098  -6.867  22.408  0.00  0.00    +0.109 C 
ATOM     27  C   UNL     1      -2.033  -8.367  22.224  0.00  0.00    +0.038 C 
ATOM     28  C   UNL     1      -3.420  -8.956  22.509  0.00  0.00    +0.060 C 
ATOM     29  C   UNL     1      -4.392  -8.432  21.444  0.00  0.00    +0.038 C 
ATOM     37  C   UNL     1      -4.472  -6.889  21.476  0.00  0.00    +0.109 C 
BRANCH  28  30
ATOM     30  N   UNL     1      -3.414 -10.438  22.581  0.00  0.00    -0.297 NA
ATOM     31  C   UNL     1      -2.147 -11.045  22.090  0.00  0.00    +0.100 C 
ATOM     32  C   UNL     1      -2.100 -12.555  22.386  0.00  0.00    +0.099 C 
ATOM     33  N   UNL     1      -2.278 -12.795  23.841  0.00  0.00    -0.303 NA
ATOM     34  C   UNL     1      -2.015 -14.190  24.268  0.00  0.00    +0.105 C 
ATOM     35  C   UNL     1      -3.615 -12.313  24.234  0.00  0.00    +0.099 C 
ATOM     36  C   UNL     1      -3.692 -10.803  23.988  0.00  0.00    +0.100 C 
ENDBRANCH  28  30
ENDBRANCH  21  23
BRANCH  38  39
ATOM     39  O   UNL     1       0.458  -2.187  22.728  0.00  0.00    -0.493 OA
ATOM     40  C   UNL     1      -0.355  -2.263  23.907  0.00  0.00    +0.277 C 
ENDBRANCH  38  39
TORSDOF 4
