REMARK  Name = 2hk5_ligand
REMARK  11 active torsions:
REMARK  status: ('A' for Active; 'I' for Inactive)
REMARK    1  A    between atoms: O21_1  and  C17_2
REMARK    2  A    between atoms: C15_5  and  C19_6
REMARK    3  A    between atoms: C11_8  and  N3_9
REMARK    4  A    between atoms: C8_13  and  N10_14
REMARK    5  A    between atoms: N10_14  and  C27_15
REMARK    6  A    between atoms: C27_15  and  C30_16
REMARK    7  A    between atoms: C30_16  and  N34_17
REMARK    8  A    between atoms: N34_17  and  C36_18
REMARK    9  A    between atoms: N34_17  and  C35_20
REMARK   10  A    between atoms: C36_18  and  C42_19
REMARK   11  A    between atoms: C35_20  and  C38_21
REMARK                            x       y       z     vdW  Elec       q    Type
REMARK                         _______ _______ _______ _____ _____    ______ ____
ROOT
ATOM      6  N   UNL     1      48.710  10.998  -1.547  0.00  0.00    -0.264 N 
ATOM      7  H   UNL     1      49.068  11.849  -2.004  0.00  0.00    +0.213 HD
ATOM      8  C   UNL     1      48.122  10.052  -2.311  0.00  0.00    +0.122 A 
ATOM      9  C   UNL     1      47.620   8.848  -1.815  0.00  0.00    +0.065 A 
ATOM     10  C   UNL     1      47.036   7.912  -2.666  0.00  0.00    +0.105 A 
ATOM     11  N   UNL     1      46.942   8.213  -3.982  0.00  0.00    -0.245 NA
ATOM     12  C   UNL     1      47.425   9.390  -4.440  0.00  0.00    +0.219 A 
ATOM     13  N   UNL     1      47.370   9.752  -5.788  0.00  0.00    -0.164 N 
ATOM     14  C   UNL     1      48.031  10.943  -6.284  0.00  0.00    +0.268 A 
ATOM     15  N   UNL     1      47.750  11.034  -7.698  0.00  0.00    -0.299 NA
ATOM     16  C   UNL     1      46.994   9.957  -7.995  0.00  0.00    +0.040 A 
ATOM     17  C   UNL     1      46.496   9.629  -9.248  0.00  0.00    -0.003 A 
ATOM     18  C   UNL     1      45.716   8.479  -9.350  0.00  0.00    -0.022 A 
ATOM     19  C   UNL     1      45.443   7.688  -8.231  0.00  0.00    -0.018 A 
ATOM     20  C   UNL     1      45.937   8.033  -6.975  0.00  0.00    +0.022 A 
ATOM     21  C   UNL     1      46.726   9.175  -6.885  0.00  0.00    +0.109 A 
ATOM     32  N   UNL     1      48.007  10.304  -3.629  0.00  0.00    -0.241 NA
ENDROOT
BRANCH   6   5
ATOM      3  C   UNL     1      49.957   9.834   1.681  0.00  0.00    +0.071 A 
ATOM      4  C   UNL     1      49.791   9.997   0.311  0.00  0.00    +0.027 A 
ATOM      5  C   UNL     1      48.848  10.874  -0.205  0.00  0.00    +0.057 A 
ATOM     33  C   UNL     1      48.064  11.602   0.676  0.00  0.00    -0.032 A 
ATOM     34  C   UNL     1      47.063  12.563   0.098  0.00  0.00    +0.066 C 
ATOM     35  C   UNL     1      48.231  11.475   2.054  0.00  0.00    -0.028 A 
ATOM     36  C   UNL     1      49.174  10.583   2.560  0.00  0.00    -0.009 A 
BRANCH   3   1
ATOM      1  O   UNL     1      50.860   8.945   2.093  0.00  0.00    -0.340 OA
ATOM      2  H   UNL     1      51.280   8.549   1.339  0.00  0.00    +0.246 HD
ENDBRANCH   3   1
ENDBRANCH   6   5
BRANCH  10  22
ATOM     22  N   UNL     1      46.540   6.721  -2.246  0.00  0.00    -0.301 N 
ATOM     23  H   UNL     1      46.150   6.093  -2.963  0.00  0.00    +0.183 HD
BRANCH  22  24
ATOM     24  C   UNL     1      46.513   6.258  -0.870  0.00  0.00    +0.183 C 
BRANCH  24  25
ATOM     25  C   UNL     1      47.817   5.705  -0.295  0.00  0.00    +0.156 C 
BRANCH  25  26
ATOM     26  N   UNL     1      48.073   4.382  -0.852  0.00  0.00    +0.236 N 
ATOM     27  H   UNL     1      47.119   4.314  -1.171  0.00  0.00    +0.203 HD
BRANCH  26  28
ATOM     28  C   UNL     1      48.540   4.282  -2.228  0.00  0.00    +0.128 C 
ATOM     29  C   UNL     1      49.875   4.966  -2.405  0.00  0.00    +0.060 C 
ENDBRANCH  26  28
BRANCH  26  30
ATOM     30  C   UNL     1      47.870   3.218   0.007  0.00  0.00    +0.128 C 
ATOM     31  C   UNL     1      47.736   1.902  -0.731  0.00  0.00    +0.060 C 
ENDBRANCH  26  30
ENDBRANCH  25  26
ENDBRANCH  24  25
ENDBRANCH  22  24
ENDBRANCH  10  22
TORSDOF 8
