REMARK  Name = 5DI1
REMARK  6 active torsions:
REMARK  status: ('A' for Active; 'I' for Inactive)
REMARK    1  A    between atoms: C_1  and  C_2
REMARK    2  A    between atoms: C_9  and  C_17
REMARK    3  A    between atoms: C_10  and  N_16
REMARK    4  A    between atoms: C_13  and  O_24
REMARK    5  A    between atoms: C_19  and  S_20
REMARK    6  A    between atoms: S_20  and  C_23
REMARK                            x       y       z     vdW  Elec       q    Type
REMARK                         _______ _______ _______ _____ _____    ______ ____
ROOT
ATOM      9  C   UNL     1      74.302  51.463  20.538  0.00  0.00    +0.001 A 
ATOM     10  C   UNL     1      73.531  52.615  20.316  0.00  0.00    +0.121 A 
ATOM     11  N   UNL     1      73.798  53.428  19.302  0.00  0.00    -0.239 NA
ATOM     12  C   UNL     1      74.805  53.214  18.451  0.00  0.00    +0.124 A 
ATOM     16  C   UNL     1      75.640  52.066  18.599  0.00  0.00    +0.022 A 
ATOM     27  C   UNL     1      75.363  51.167  19.648  0.00  0.00    +0.022 A 
ENDROOT
BRANCH   9   1
ATOM      1  C   UNL     1      73.964  50.532  21.657  0.00  0.00    -0.016 A 
ATOM      2  C   UNL     1      73.505  51.041  22.890  0.00  0.00    +0.012 A 
ATOM      3  C   UNL     1      73.177  50.175  23.920  0.00  0.00    +0.046 A 
ATOM      4  C   UNL     1      73.228  48.794  23.709  0.00  0.00    +0.117 A 
ATOM      7  C   UNL     1      73.616  48.284  22.462  0.00  0.00    +0.046 A 
ATOM      8  C   UNL     1      73.995  49.142  21.448  0.00  0.00    +0.012 A 
BRANCH   4   5
ATOM      5  O   UNL     1      72.895  47.946  24.714  0.00  0.00    -0.507 OA
ATOM      6  H   UNL     1      72.131  47.387  24.519  0.00  0.00    +0.292 HD
ENDBRANCH   4   5
ENDBRANCH   9   1
BRANCH  16  17
ATOM     17  C   UNL     1      76.772  51.789  17.649  0.00  0.00    -0.015 A 
ATOM     18  C   UNL     1      76.900  50.531  17.055  0.00  0.00    +0.010 A 
ATOM     19  C   UNL     1      77.921  50.294  16.150  0.00  0.00    +0.027 A 
ATOM     20  C   UNL     1      78.854  51.276  15.871  0.00  0.00    +0.088 A 
ATOM     25  C   UNL     1      78.775  52.499  16.520  0.00  0.00    +0.027 A 
ATOM     26  C   UNL     1      77.725  52.771  17.375  0.00  0.00    +0.010 A 
BRANCH  20  21
ATOM     21  S   UNL     1      80.161  50.977  14.687  0.00  0.00    -0.006 S 
ATOM     22  C   UNL     1      80.158  52.443  13.589  0.00  0.00    +0.200 C 
ATOM     23  O   UNL     1      79.754  49.817  13.974  0.00  0.00    -0.170 OA
ATOM     24  O   UNL     1      81.337  50.959  15.471  0.00  0.00    -0.170 OA
ENDBRANCH  20  21
ENDBRANCH  16  17
BRANCH  12  13
ATOM     13  N   UNL     1      74.979  54.096  17.389  0.00  0.00    -0.343 N 
ATOM     14  H   UNL     1      74.880  55.049  17.530  0.00  0.00    +0.144 HD
ATOM     15  H   UNL     1      75.171  53.757  16.501  0.00  0.00    +0.144 HD
ENDBRANCH  12  13
TORSDOF 5
