REMARK  Name = 5ML5
REMARK  12 active torsions:
REMARK  status: ('A' for Active; 'I' for Inactive)
REMARK    1  A    between atoms: C_1  and  O_2
REMARK    2  A    between atoms: O_2  and  C_3
REMARK    3  A    between atoms: C_6  and  O_7
REMARK    4  A    between atoms: O_7  and  C_8
REMARK    5  A    between atoms: C_10  and  C_11
REMARK    6  A    between atoms: C_11  and  C_12
REMARK    7  A    between atoms: C_12  and  C_13
REMARK    8  A    between atoms: C_13  and  N_15
REMARK    9  A    between atoms: C_21  and  C_22
REMARK   10  A    between atoms: C_24  and  S_25
REMARK   11  A    between atoms: S_25  and  C_26
REMARK   12  A    between atoms: C_28  and  C_29
REMARK                            x       y       z     vdW  Elec       q    Type
REMARK                         _______ _______ _______ _____ _____    ______ ____
ROOT
ATOM      8  N   UNL     1      21.829   4.107 -24.269  0.00  0.00    -0.164 NA
ATOM      9  C   UNL     1      21.930   2.875 -23.720  0.00  0.00    +0.124 C 
ATOM     10  N   UNL     1      21.850   1.886 -24.655  0.00  0.00    -0.348 N 
ATOM     11  H   UNL     1      21.704   2.125 -25.688  0.00  0.00    +0.167 HD
ATOM     12  C   UNL     1      21.964   0.535 -24.236  0.00  0.00    +0.085 C 
ATOM     13  C   UNL     1      22.117   0.236 -22.906  0.00  0.00    +0.027 C 
ATOM     14  C   UNL     1      22.211   1.228 -21.912  0.00  0.00    +0.007 C 
ATOM     30  C   UNL     1      22.053   2.559 -22.362  0.00  0.00    +0.053 C 
ENDROOT
BRANCH  14  15
ATOM     15  C   UNL     1      22.291   0.904 -20.568  0.00  0.00    +0.098 C 
ATOM     16  C   UNL     1      22.695  -0.246 -19.919  0.00  0.00    +0.075 C 
ATOM     24  N   UNL     1      22.470  -0.056 -18.621  0.00  0.00    -0.332 NA
ATOM     25  H   UNL     1      22.674  -0.765 -17.846  0.00  0.00    +0.168 HD
ATOM     26  C   UNL     1      21.949   1.162 -18.440  0.00  0.00    +0.167 C 
ATOM     29  N   UNL     1      21.828   1.740 -19.600  0.00  0.00    -0.221 NA
BRANCH  16  17
ATOM     17  C   UNL     1      23.275  -1.420 -20.358  0.00  0.00    +0.001 C 
ATOM     18  C   UNL     1      22.705  -2.660 -19.968  0.00  0.00    +0.013 C 
ATOM     19  C   UNL     1      23.290  -3.853 -20.390  0.00  0.00    +0.039 C 
ATOM     20  C   UNL     1      24.438  -3.904 -21.198  0.00  0.00    +0.123 C 
ATOM     21  F   UNL     1      24.962  -5.131 -21.607  0.00  0.00    -0.205 F 
ATOM     22  C   UNL     1      25.002  -2.706 -21.595  0.00  0.00    +0.039 C 
ATOM     23  C   UNL     1      24.415  -1.483 -21.187  0.00  0.00    +0.013 C 
ENDBRANCH  16  17
BRANCH  26  27
ATOM     27  S   UNL     1      21.467   1.936 -16.931  0.00  0.00    -0.091 S 
ATOM     28  C   UNL     1      21.699   0.663 -15.726  0.00  0.00    +0.093 C 
ENDBRANCH  26  27
ENDBRANCH  14  15
BRANCH   8   7
ATOM      7  C   UNL     1      21.801   5.276 -23.620  0.00  0.00    +0.238 C 
ATOM     31  O   UNL     1      22.035   5.454 -22.449  0.00  0.00    -0.274 OA
BRANCH   7   6
ATOM      6  C   UNL     1      21.654   6.461 -24.600  0.00  0.00    +0.103 C 
BRANCH   6   5
ATOM      5  C   UNL     1      21.110   7.783 -24.026  0.00  0.00    +0.048 C 
BRANCH   5   4
ATOM      3  C   UNL     1      19.532   9.283 -25.449  0.00  0.00    +0.124 A 
ATOM      4  C   UNL     1      20.752   8.612 -25.168  0.00  0.00    -0.002 A 
ATOM     32  C   UNL     1      21.746   8.727 -26.151  0.00  0.00    +0.052 A 
ATOM     33  C   UNL     1      21.605   9.446 -27.338  0.00  0.00    +0.121 A 
ATOM     36  C   UNL     1      20.387  10.135 -27.598  0.00  0.00    +0.049 A 
ATOM     37  C   UNL     1      19.375  10.051 -26.643  0.00  0.00    +0.049 A 
BRANCH   3   2
ATOM      1  C   UNL     1      17.844   7.897 -24.451  0.00  0.00    +0.277 C 
ATOM      2  O   UNL     1      18.507   9.192 -24.533  0.00  0.00    -0.495 OA
ENDBRANCH   3   2
BRANCH  33  34
ATOM     34  O   UNL     1      22.688   9.455 -28.193  0.00  0.00    -0.495 OA
ATOM     35  C   UNL     1      23.635   8.305 -28.251  0.00  0.00    +0.277 C 
ENDBRANCH  33  34
ENDBRANCH   5   4
ENDBRANCH   6   5
ENDBRANCH   7   6
ENDBRANCH   8   7
TORSDOF 9
