REMARK  Name = 4oys_ligand
REMARK  4 active torsions:
REMARK  status: ('A' for Active; 'I' for Inactive)
REMARK    1  A    between atoms: C8_4  and  C13_7
REMARK    2  A    between atoms: C21_9  and  C30_12
REMARK    3  A    between atoms: C22_10  and  N7_16
REMARK    4  A    between atoms: C22_10  and  C23_25
REMARK                            x       y       z     vdW  Elec       q    Type
REMARK                         _______ _______ _______ _____ _____    ______ ____
ROOT
ATOM      1  C   UNL     1      17.365 -17.532 -23.292  0.00  0.00    +0.252 C 
ATOM      2  O   UNL     1      16.796 -18.625 -23.408  0.00  0.00    -0.365 OA
ATOM      3  N   UNL     1      18.807 -17.546 -23.515  0.00  0.00    -0.217 N 
ATOM      4  C   UNL     1      19.536 -16.328 -23.394  0.00  0.00    +0.269 C 
ATOM      5  N   UNL     1      20.955 -16.298 -23.661  0.00  0.00    -0.267 N 
ATOM     14  C   UNL     1      21.520 -17.483 -24.333  0.00  0.00    +0.210 C 
ATOM     19  C   UNL     1      20.961 -18.749 -23.665  0.00  0.00    +0.064 C 
ATOM     20  N   UNL     1      18.957 -15.145 -23.116  0.00  0.00    -0.107 N 
ATOM     21  H   UNL     1      19.525 -14.286 -23.116  0.00  0.00    +0.319 HD
ATOM     22  C   UNL     1      17.587 -15.073 -22.826  0.00  0.00    +0.444 C 
ATOM     23  N   UNL     1      17.127 -13.851 -22.643  0.00  0.00    -0.126 N 
ATOM     24  C   UNL     1      18.085 -12.751 -22.452  0.00  0.00    +0.365 C 
ATOM     25  C   UNL     1      17.550 -11.750 -21.453  0.00  0.00    +0.224 C 
ATOM     26  O   UNL     1      16.253 -11.273 -21.817  0.00  0.00    -0.369 OA
ATOM     27  C   UNL     1      15.291 -12.347 -21.809  0.00  0.00    +0.227 C 
ATOM     28  C   UNL     1      15.664 -13.439 -22.791  0.00  0.00    +0.278 C 
ATOM     29  C   UNL     1      15.324 -13.090 -24.231  0.00  0.00    +0.080 C 
ATOM     30  C   UNL     1      19.443 -18.837 -23.837  0.00  0.00    +0.145 C 
ATOM     31  C   UNL     1      16.783 -16.238 -22.949  0.00  0.00    +0.505 C 
ENDROOT
BRANCH  14  15
ATOM     15  C   UNL     1      21.323 -17.436 -25.836  0.00  0.00    +0.415 C 
ATOM     16  F   UNL     1      21.500 -18.622 -26.420  0.00  0.00    -0.168 F 
ATOM     17  F   UNL     1      22.186 -16.598 -26.401  0.00  0.00    -0.168 F 
ATOM     18  F   UNL     1      20.103 -17.020 -26.180  0.00  0.00    -0.168 F 
ENDBRANCH  14  15
BRANCH   5   6
ATOM      6  C   UNL     1      21.637 -14.943 -23.703  0.00  0.00    +0.219 C 
BRANCH   6   7
ATOM      7  C   UNL     1      21.882 -14.403 -22.325  0.00  0.00    +0.010 A 
ATOM      8  C   UNL     1      22.334 -15.263 -21.278  0.00  0.00    +0.091 A 
ATOM      9  N   UNL     1      22.568 -14.856 -19.993  0.00  0.00    -0.304 NA
ATOM     10  C   UNL     1      22.343 -13.543 -19.686  0.00  0.00    +0.095 A 
ATOM     11  C   UNL     1      21.879 -12.622 -20.668  0.00  0.00    +0.062 A 
ATOM     12 CL   UNL     1      21.567 -10.986 -20.218  0.00  0.00    -0.063 Cl
ATOM     13  C   UNL     1      21.642 -13.055 -22.002  0.00  0.00    +0.044 A 
ENDBRANCH   6   7
ENDBRANCH   5   6
TORSDOF 3
