REMARK  Name = G7T
REMARK  8 active torsions:
REMARK  status: ('A' for Active; 'I' for Inactive)
REMARK    1  A    between atoms: C13_2  and  N14_21
REMARK    2  A    between atoms: C15_3  and  C16_22
REMARK    3  A    between atoms: C17_4  and  C16_22
REMARK    4  A    between atoms: C17_4  and  C18_23
REMARK    5  A    between atoms: C21_6  and  C22_7
REMARK    6  A    between atoms: C08_17  and  C09_18
REMARK    7  A    between atoms: C18_23  and  C19_24
REMARK    8  A    between atoms: N35_35  and  C36_36
REMARK                            x       y       z     vdW  Elec       q    Type
REMARK                         _______ _______ _______ _____ _____    ______ ____
ROOT
ATOM      1  C   UNL     1       7.680 -28.488  -7.491  0.00  0.00    -0.019 A 
ATOM      2  C   UNL     1       8.347 -29.258  -6.352  0.00  0.00    +0.031 C 
ATOM      3  C   UNL     1       6.273 -28.543  -7.751  0.00  0.00    +0.016 A 
ATOM     17  C   UNL     1       5.738 -27.826  -8.794  0.00  0.00    +0.003 A 
ATOM     18  C   UNL     1       6.570 -27.037  -9.604  0.00  0.00    +0.017 A 
ATOM     19  C   UNL     1       7.927 -26.990  -9.356  0.00  0.00    +0.073 A 
ATOM     38  C   UNL     1       8.485 -27.723  -8.282  0.00  0.00    +0.012 A 
ENDROOT
BRANCH   3   4
ATOM      4  C   UNL     1       5.360 -29.411  -6.867  0.00  0.00    +0.106 A 
ATOM      5  N   UNL     1       5.433 -29.404  -5.491  0.00  0.00    -0.168 NA
ATOM      6  N   UNL     1       4.541 -30.257  -4.991  0.00  0.00    -0.236 N 
ATOM     10  C   UNL     1       3.847 -30.858  -5.993  0.00  0.00    +0.165 A 
ATOM     11  N   UNL     1       2.862 -31.798  -6.031  0.00  0.00    -0.205 NA
ATOM     12  C   UNL     1       2.330 -32.241  -7.186  0.00  0.00    +0.202 A 
ATOM     13  N   UNL     1       2.749 -31.793  -8.392  0.00  0.00    -0.205 NA
ATOM     14  C   UNL     1       3.743 -30.853  -8.467  0.00  0.00    +0.176 A 
ATOM     15  N   UNL     1       4.160 -30.406  -9.789  0.00  0.00    -0.107 NA
ATOM     16  C   UNL     1       4.337 -30.340  -7.266  0.00  0.00    +0.090 A 
BRANCH   6   7
ATOM      7  C   UNL     1       4.457 -30.428  -3.536  0.00  0.00    +0.107 C 
ATOM      8  C   UNL     1       3.676 -29.252  -2.977  0.00  0.00    +0.026 C 
ATOM      9  C   UNL     1       3.948 -31.793  -3.087  0.00  0.00    +0.026 C 
ENDBRANCH   6   7
ENDBRANCH   3   4
BRANCH  19  20
ATOM     20  N   UNL     1       8.810 -26.164 -10.188  0.00  0.00    -0.179 NA
ATOM     21  C   UNL     1       9.602 -25.153  -9.538  0.00  0.00    +0.246 C 
ATOM     22  O   UNL     1       9.535 -24.992  -8.315  0.00  0.00    -0.273 OA
BRANCH  21  23
ATOM     23  C   UNL     1      10.541 -24.265 -10.329  0.00  0.00    +0.095 C 
BRANCH  23  24
ATOM     24  C   UNL     1      10.825 -23.116  -9.725  0.00  0.00    +0.079 C 
BRANCH  24  25
ATOM     25  C   UNL     1      12.296 -22.798  -9.441  0.00  0.00    +0.173 C 
ATOM     37  O   UNL     1      13.148 -23.598  -9.628  0.00  0.00    -0.291 OA
BRANCH  25  26
ATOM     26  C   UNL     1      12.650 -21.384  -8.901  0.00  0.00    +0.035 A 
ATOM     27  C   UNL     1      11.705 -20.648  -8.175  0.00  0.00    +0.005 A 
ATOM     28  C   UNL     1      12.034 -19.404  -7.708  0.00  0.00    +0.030 A 
ATOM     29  C   UNL     1      13.301 -18.884  -7.965  0.00  0.00    +0.144 A 
ATOM     30  F   UNL     1      13.619 -17.686  -7.520  0.00  0.00    -0.204 F 
ATOM     31  C   UNL     1      14.221 -19.612  -8.681  0.00  0.00    +0.099 A 
ATOM     36  C   UNL     1      13.895 -20.873  -9.152  0.00  0.00    +0.009 A 
BRANCH  31  32
ATOM     32  C   UNL     1      15.648 -19.038  -8.973  0.00  0.00    +0.421 C 
ATOM     33  F   UNL     1      15.895 -18.048  -8.141  0.00  0.00    -0.166 F 
ATOM     34  F   UNL     1      16.530 -19.988  -8.802  0.00  0.00    -0.166 F 
ATOM     35  F   UNL     1      15.686 -18.601 -10.222  0.00  0.00    -0.166 F 
ENDBRANCH  31  32
ENDBRANCH  25  26
ENDBRANCH  24  25
ENDBRANCH  23  24
ENDBRANCH  21  23
ENDBRANCH  19  20
TORSDOF 8
