REMARK  Name = 1ZYS
REMARK  5 active torsions:
REMARK  status: ('A' for Active; 'I' for Inactive)
REMARK    1  A    between atoms: C_2  and  C_15
REMARK    2  A    between atoms: C_8  and  N_10
REMARK    3  A    between atoms: C_12  and  N_30
REMARK    4  A    between atoms: C_17  and  C_23
REMARK    5  A    between atoms: N_27  and  C_31
REMARK                            x       y       z     vdW  Elec       q    Type
REMARK                         _______ _______ _______ _____ _____    ______ ____
ROOT
ATOM      1  C   UNL     1       3.627   8.047  18.573  0.00  0.00    +0.023 A 
ATOM      2  C   UNL     1       4.844   8.763  18.739  0.00  0.00    +0.042 A 
ATOM      3  C   UNL     1       6.173   8.569  18.186  0.00  0.00    +0.063 A 
ATOM     14  C   UNL     1       6.962   9.569  18.671  0.00  0.00    +0.137 A 
ATOM     15  N   UNL     1       6.182  10.383  19.507  0.00  0.00    -0.234 NA
ATOM     16  C   UNL     1       4.893   9.905  19.561  0.00  0.00    +0.162 A 
ATOM     17  N   UNL     1       3.847  10.404  20.255  0.00  0.00    -0.235 NA
ATOM     18  C   UNL     1       2.694   9.718  20.125  0.00  0.00    +0.121 A 
ATOM     19  C   UNL     1       2.504   8.565  19.313  0.00  0.00    +0.001 A 
ENDROOT
BRANCH  19  20
ATOM     20  C   UNL     1       1.150   7.962  19.248  0.00  0.00    -0.016 A 
ATOM     21  C   UNL     1       0.869   6.886  18.341  0.00  0.00    +0.010 A 
ATOM     22  C   UNL     1      -0.418   6.358  18.269  0.00  0.00    +0.024 A 
ATOM     23  C   UNL     1      -1.497   6.844  19.113  0.00  0.00    +0.030 A 
ATOM     31  C   UNL     1      -1.206   7.903  20.027  0.00  0.00    +0.024 A 
ATOM     32  C   UNL     1       0.088   8.468  20.091  0.00  0.00    +0.010 A 
BRANCH  23  24
ATOM     24  N   UNL     1      -2.820   6.280  19.022  0.00  0.00    -0.328 N 
ATOM     25  C   UNL     1      -2.822   4.868  18.564  0.00  0.00    +0.120 C 
ATOM     26  C   UNL     1      -4.272   4.362  18.227  0.00  0.00    +0.103 C 
ATOM     27  N   UNL     1      -5.196   4.630  19.376  0.00  0.00    -0.302 NA
ATOM     28  C   UNL     1      -6.614   4.313  18.964  0.00  0.00    +0.105 C 
ATOM     29  C   UNL     1      -5.154   6.040  19.873  0.00  0.00    +0.103 C 
ATOM     30  C   UNL     1      -3.697   6.453  20.198  0.00  0.00    +0.120 C 
ENDBRANCH  23  24
ENDBRANCH  19  20
BRANCH   3   4
ATOM      4  N   UNL     1       6.482   7.517  17.320  0.00  0.00    -0.280 N 
ATOM      5  H   UNL     1       5.726   6.799  17.080  0.00  0.00    +0.155 HD
ATOM      6  C   UNL     1       7.710   7.385  16.780  0.00  0.00    +0.250 C 
ATOM     13  O   UNL     1       8.616   8.174  16.938  0.00  0.00    -0.270 OA
BRANCH   6   7
ATOM      7  C   UNL     1       7.986   6.172  15.960  0.00  0.00    +0.055 A 
ATOM      8  C   UNL     1       6.975   5.194  15.681  0.00  0.00    +0.016 A 
ATOM      9  C   UNL     1       7.336   4.016  14.895  0.00  0.00    +0.020 A 
ATOM     10  C   UNL     1       8.684   3.897  14.463  0.00  0.00    +0.111 A 
ATOM     11  N   UNL     1       9.658   4.834  14.730  0.00  0.00    -0.263 NA
ATOM     12  C   UNL     1       9.298   5.937  15.453  0.00  0.00    +0.123 A 
ENDBRANCH   6   7
ENDBRANCH   3   4
TORSDOF 4
