REMARK  Name = 3hv6_ligand
REMARK  12 active torsions:
REMARK  status: ('A' for Active; 'I' for Inactive)
REMARK    1  A    between atoms: NBG_6  and  CAT_7
REMARK    2  A    between atoms: CAT_7  and  CAQ_8
REMARK    3  A    between atoms: CAQ_8  and  OAY_9
REMARK    4  A    between atoms: OAY_9  and  CBC_10
REMARK    5  A    between atoms: CBB_15  and  NAV_16
REMARK    6  A    between atoms: NAW_19  and  CBE_20
REMARK    7  A    between atoms: CBF_22  and  CBI_23
REMARK    8  A    between atoms: CBI_23  and  CAC_24
REMARK    9  A    between atoms: CBI_23  and  CAD_25
REMARK   10  A    between atoms: CBI_23  and  CAB_26
REMARK   11  A    between atoms: NBH_28  and  CBD_29
REMARK   12  A    between atoms: CBA_32  and  CAA_33
REMARK                            x       y       z     vdW  Elec       q    Type
REMARK                         _______ _______ _______ _____ _____    ______ ____
ROOT
ATOM     10  N   UNL     1      -2.142  -3.390 -16.033  0.00  0.00    -0.220 N 
ATOM     11  H   UNL     1      -2.799  -3.993 -15.538  0.00  0.00    +0.223 HD
ATOM     12  C   UNL     1      -0.930  -3.236 -15.531  0.00  0.00    +0.320 C 
ATOM     13  N   UNL     1      -0.637  -3.928 -14.411  0.00  0.00    -0.180 N 
ATOM     14  H   UNL     1      -1.361  -4.540 -14.034  0.00  0.00    +0.234 HD
ATOM     31  O   UNL     1      -0.132  -2.443 -16.043  0.00  0.00    -0.380 OA
ENDROOT
BRANCH  10   9
ATOM      6  C   UNL     1      -3.370  -1.602 -19.583  0.00  0.00    +0.076 A 
ATOM      7  C   UNL     1      -2.436  -2.634 -19.609  0.00  0.00    +0.005 A 
ATOM      8  C   UNL     1      -2.043  -3.213 -18.401  0.00  0.00    -0.002 A 
ATOM      9  C   UNL     1      -2.556  -2.784 -17.176  0.00  0.00    +0.057 A 
ATOM     32  C   UNL     1      -3.472  -1.764 -17.172  0.00  0.00    -0.002 A 
ATOM     33  C   UNL     1      -3.883  -1.184 -18.369  0.00  0.00    +0.005 A 
BRANCH   6   5
ATOM      5  O   UNL     1      -3.834  -0.969 -20.696  0.00  0.00    -0.330 OA
BRANCH   5   4
ATOM      4  C   UNL     1      -3.189  -1.375 -21.920  0.00  0.00    +0.166 C 
BRANCH   4   3
ATOM      3  C   UNL     1      -3.390  -0.185 -22.844  0.00  0.00    -0.076 C 
BRANCH   3   2
ATOM      1  C   UNL     1      -2.012   1.464 -23.827  0.00  0.00    -0.081 C 
ATOM      2  N   UNL     1      -2.371   0.814 -22.543  0.00  0.00    +0.408 NA
ATOM     34  C   UNL     1      -2.837   1.739 -21.482  0.00  0.00    -0.081 C 
ATOM     35  C   UNL     1      -1.995   3.032 -21.449  0.00  0.00    +0.137 C 
ATOM     36  O   UNL     1      -1.825   3.618 -22.758  0.00  0.00    -0.384 OA
ATOM     37  C   UNL     1      -2.500   2.923 -23.837  0.00  0.00    +0.137 C 
ENDBRANCH   3   2
ENDBRANCH   4   3
ENDBRANCH   5   4
ENDBRANCH   6   5
ENDBRANCH  10   9
BRANCH  13  15
ATOM     15  C   UNL     1       0.538  -3.875 -13.750  0.00  0.00    +0.219 A 
ATOM     16  N   UNL     1       1.039  -4.903 -13.054  0.00  0.00    -0.107 N 
ATOM     24  N   UNL     1       2.116  -4.574 -12.511  0.00  0.00    -0.167 NA
ATOM     25  C   UNL     1       2.373  -3.291 -12.813  0.00  0.00    -0.004 A 
ATOM     30  C   UNL     1       1.386  -2.817 -13.595  0.00  0.00    +0.003 A 
BRANCH  16  17
ATOM     17  C   UNL     1       0.497  -6.146 -12.934  0.00  0.00    +0.123 A 
ATOM     18  C   UNL     1       0.460  -6.757 -11.653  0.00  0.00    +0.033 A 
ATOM     19  C   UNL     1      -0.072  -8.051 -11.506  0.00  0.00    -0.006 A 
ATOM     20  C   UNL     1      -0.556  -8.722 -12.641  0.00  0.00    -0.049 A 
ATOM     21  C   UNL     1      -1.124 -10.137 -12.478  0.00  0.00    +0.083 C 
ATOM     22  C   UNL     1      -0.506  -8.138 -13.915  0.00  0.00    -0.006 A 
ATOM     23  C   UNL     1       0.022  -6.836 -14.053  0.00  0.00    +0.033 A 
ENDBRANCH  16  17
BRANCH  25  26
ATOM     26  C   UNL     1       3.633  -2.557 -12.312  0.00  0.00    -0.046 C 
ATOM     27  C   UNL     1       3.207  -1.519 -11.245  0.00  0.00    -0.047 C 
ATOM     28  C   UNL     1       4.345  -1.888 -13.473  0.00  0.00    -0.047 C 
ATOM     29  C   UNL     1       4.638  -3.508 -11.649  0.00  0.00    -0.047 C 
ENDBRANCH  25  26
ENDBRANCH  13  15
TORSDOF 8
