REMARK  Name = 4uxq_ligand
REMARK  9 active torsions:
REMARK  status: ('A' for Active; 'I' for Inactive)
REMARK    1  A    between atoms: N3_2  and  C20_12
REMARK    2  A    between atoms: C4_3  and  C5_4
REMARK    3  A    between atoms: C6_5  and  C11_26
REMARK    4  A    between atoms: C13_9  and  N2_29
REMARK    5  A    between atoms: C17_11  and  C19_33
REMARK    6  A    between atoms: C20_12  and  C16_31
REMARK    7  A    between atoms: C2_23  and  C3_24
REMARK    8  A    between atoms: C9_25  and  C12_27
REMARK    9  A    between atoms: C25_38  and  N4_39
REMARK                            x       y       z     vdW  Elec       q    Type
REMARK                         _______ _______ _______ _____ _____    ______ ____
ROOT
ATOM      9  C   UNL     1       0.099  -3.968  14.682  0.00  0.00    +0.226 C 
ATOM     10  N   UNL     1      -0.773  -4.440  15.635  0.00  0.00    -0.232 N 
ATOM     11  H   UNL     1      -1.325  -5.242  15.408  0.00  0.00    +0.224 HD
ATOM     32  O   UNL     1       0.915  -3.065  14.799  0.00  0.00    -0.377 OA
ENDROOT
BRANCH   9   8
ATOM      6  C   UNL     1       0.584  -4.493  11.073  0.00  0.00    +0.026 A 
ATOM      7  C   UNL     1       0.651  -3.971  12.346  0.00  0.00    +0.030 A 
ATOM      8  C   UNL     1      -0.010  -4.610  13.369  0.00  0.00    +0.048 A 
ATOM     33  C   UNL     1      -0.758  -5.750  13.151  0.00  0.00    +0.014 A 
ATOM     34  C   UNL     1      -0.845  -6.251  11.866  0.00  0.00    +0.002 A 
ATOM     35  C   UNL     1      -0.162  -5.641  10.828  0.00  0.00    -0.027 A 
ATOM     36  C   UNL     1      -0.230  -6.235   9.457  0.00  0.00    +0.093 C 
BRANCH   6   5
ATOM      4  C   UNL     1       1.904  -3.200   9.209  0.00  0.00    -0.047 C 
ATOM      5  C   UNL     1       1.310  -3.798  10.060  0.00  0.00    -0.077 C 
BRANCH   4   3
ATOM      1  N   UNL     1       2.928  -0.987   6.517  0.00  0.00    -0.325 NA
ATOM      2  C   UNL     1       1.984  -1.500   7.366  0.00  0.00    +0.056 A 
ATOM      3  C   UNL     1       2.546  -2.444   8.199  0.00  0.00    +0.159 A 
ATOM     37  N   UNL     1       3.859  -2.499   7.856  0.00  0.00    -0.119 N 
ATOM     38  N   UNL     1       4.776  -3.255   8.448  0.00  0.00    -0.141 NA
ATOM     39  C   UNL     1       5.962  -3.093   7.947  0.00  0.00    +0.149 A 
ATOM     40  C   UNL     1       6.343  -2.208   6.835  0.00  0.00    +0.046 A 
ATOM     41  C   UNL     1       5.344  -1.489   6.313  0.00  0.00    +0.080 A 
ATOM     42  C   UNL     1       4.046  -1.605   6.838  0.00  0.00    +0.169 A 
ENDBRANCH   4   3
ENDBRANCH   6   5
ENDBRANCH   9   8
BRANCH  10  12
ATOM     12  C   UNL     1      -0.938  -3.866  16.909  0.00  0.00    +0.088 A 
ATOM     13  C   UNL     1      -0.966  -2.499  17.118  0.00  0.00    +0.045 A 
ATOM     14  C   UNL     1      -1.157  -1.967  18.382  0.00  0.00    +0.039 A 
ATOM     19  C   UNL     1      -1.351  -2.842  19.439  0.00  0.00    +0.025 A 
ATOM     30  C   UNL     1      -1.328  -4.208  19.215  0.00  0.00    +0.030 A 
ATOM     31  C   UNL     1      -1.107  -4.732  17.964  0.00  0.00    +0.062 A 
BRANCH  14  15
ATOM     15  C   UNL     1      -1.167  -0.469  18.563  0.00  0.00    +0.364 C 
ATOM     16  F   UNL     1      -0.147  -0.027  19.339  0.00  0.00    -0.229 F 
ATOM     17  F   UNL     1      -2.298   0.051  19.143  0.00  0.00    -0.229 F 
ATOM     18  F   UNL     1      -0.987   0.180  17.388  0.00  0.00    -0.229 F 
ENDBRANCH  14  15
BRANCH  19  20
ATOM     20  C   UNL     1      -1.571  -2.336  20.832  0.00  0.00    +0.222 C 
BRANCH  20  21
ATOM     21  N   UNL     1      -1.129  -3.224  21.919  0.00  0.00    +0.259 N 
ATOM     22  H   UNL     1      -1.184  -4.168  21.570  0.00  0.00    +0.206 HD
ATOM     23  C   UNL     1      -2.118  -3.155  23.033  0.00  0.00    +0.185 C 
ATOM     24  C   UNL     1      -1.640  -3.927  24.258  0.00  0.00    +0.183 C 
ATOM     25  N   UNL     1      -0.192  -3.656  24.464  0.00  0.00    +0.240 N 
ATOM     26  H   UNL     1      -0.099  -2.662  24.605  0.00  0.00    +0.203 HD
ATOM     27  C   UNL     1       0.320  -4.324  25.681  0.00  0.00    +0.191 C 
ATOM     28  C   UNL     1       0.650  -4.010  23.287  0.00  0.00    +0.183 C 
ATOM     29  C   UNL     1       0.301  -3.008  22.220  0.00  0.00    +0.185 C 
ENDBRANCH  20  21
ENDBRANCH  19  20
ENDBRANCH  10  12
TORSDOF 7
