REMARK  Name = 4U7Z
REMARK  8 active torsions:
REMARK  status: ('A' for Active; 'I' for Inactive)
REMARK    1  A    between atoms: O_1  and  C_27
REMARK    2  A    between atoms: C_3  and  N_5
REMARK    3  A    between atoms: C_4  and  C_6
REMARK    4  A    between atoms: N_5  and  C_7
REMARK    5  A    between atoms: N_8  and  O_26
REMARK    6  A    between atoms: N_13  and  C_22
REMARK    7  A    between atoms: C_16  and  O_26
REMARK    8  A    between atoms: C_16  and  C_27
REMARK                            x       y       z     vdW  Elec       q    Type
REMARK                         _______ _______ _______ _____ _____    ______ ____
ROOT
ATOM     10  C   UNL     1     -32.732  30.070  14.301  0.00  0.00    +0.065 A 
ATOM     11  C   UNL     1     -32.923  30.982  13.280  0.00  0.00    +0.043 A 
ATOM     12  C   UNL     1     -34.179  31.547  13.052  0.00  0.00    +0.072 A 
ATOM     13  C   UNL     1     -35.255  31.212  13.858  0.00  0.00    +0.126 A 
ATOM     14  N   UNL     1     -36.340  31.914  13.409  0.00  0.00    -0.233 NA
ATOM     15  C   UNL     1     -35.931  32.646  12.344  0.00  0.00    +0.200 A 
ATOM     16  C   UNL     1     -35.050  30.303  14.906  0.00  0.00    +0.172 A 
ATOM     17  F   UNL     1     -36.106  30.002  15.689  0.00  0.00    -0.201 F 
ATOM     18  N   UNL     1     -34.609  32.426  12.132  0.00  0.00    -0.333 N 
ATOM     19  C   UNL     1     -33.729  33.030  11.081  0.00  0.00    +0.150 C 
ATOM     20  C   UNL     1     -33.796  29.723  15.136  0.00  0.00    +0.082 A 
ENDROOT
BRANCH  10   8
ATOM      6  N   UNL     1     -30.438  29.697  13.525  0.00  0.00    -0.190 N 
ATOM      7  H   UNL     1     -30.718  30.124  12.585  0.00  0.00    +0.183 HD
ATOM      8  C   UNL     1     -31.334  29.564  14.503  0.00  0.00    +0.269 C 
ATOM      9  O   UNL     1     -30.986  29.141  15.606  0.00  0.00    -0.268 OA
BRANCH   6   5
ATOM      5  O   UNL     1     -29.148  29.276  13.745  0.00  0.00    -0.277 OA
BRANCH   5   4
ATOM      4  C   UNL     1     -28.036  30.057  13.267  0.00  0.00    +0.217 C 
BRANCH   4   3
ATOM      3  C   UNL     1     -26.819  29.957  14.187  0.00  0.00    +0.186 C 
BRANCH   3   1
ATOM      1  O   UNL     1     -27.136  30.450  15.496  0.00  0.00    -0.393 OA
ATOM      2  H   UNL     1     -27.431  31.456  15.430  0.00  0.00    +0.209 HD
ENDBRANCH   3   1
ENDBRANCH   4   3
ENDBRANCH   5   4
ENDBRANCH   6   5
ENDBRANCH  10   8
BRANCH  20  21
ATOM     21  N   UNL     1     -33.582  28.830  16.148  0.00  0.00    -0.311 N 
ATOM     22  H   UNL     1     -32.782  29.064  16.819  0.00  0.00    +0.152 HD
BRANCH  21  23
ATOM     23  C   UNL     1     -34.271  27.663  16.412  0.00  0.00    +0.050 A 
ATOM     24  C   UNL     1     -33.801  26.798  17.406  0.00  0.00    +0.063 A 
ATOM     25 CL   UNL     1     -32.289  27.151  18.322  0.00  0.00    -0.082 Cl
ATOM     26  C   UNL     1     -34.500  25.628  17.705  0.00  0.00    +0.037 A 
ATOM     27  C   UNL     1     -35.678  25.309  17.022  0.00  0.00    +0.019 A 
ATOM     28 BR   UNL     1     -36.618  23.698  17.430  0.00  0.00    -0.050 Br
ATOM     29  C   UNL     1     -36.154  26.166  16.027  0.00  0.00    +0.017 A 
ATOM     30  C   UNL     1     -35.444  27.316  15.733  0.00  0.00    +0.026 A 
ENDBRANCH  21  23
ENDBRANCH  20  21
TORSDOF 7
