REMARK  Name = 3a4o_ligand
REMARK  5 active torsions:
REMARK  status: ('A' for Active; 'I' for Inactive)
REMARK    1  A    between atoms: C23_4  and  N4_34
REMARK    2  A    between atoms: C22_5  and  O6_32
REMARK    3  A    between atoms: C21_6  and  C26_7
REMARK    4  A    between atoms: O6_32  and  C27_33
REMARK    5  A    between atoms: N4_34  and  C28_35
REMARK                            x       y       z     vdW  Elec       q    Type
REMARK                         _______ _______ _______ _____ _____    ______ ____
ROOT
ATOM      1  O   UNL     1      -2.671 -25.171 -19.454  0.00  0.00    -0.315 OA
ATOM      2  C   UNL     1      -3.932 -24.797 -19.959  0.00  0.00    +0.202 C 
ATOM      3  N   UNL     1      -3.964 -23.818 -21.060  0.00  0.00    -0.229 N 
ATOM      4  C   UNL     1      -4.588 -23.393 -22.172  0.00  0.00    +0.070 A 
ATOM      5  C   UNL     1      -5.571 -24.108 -22.853  0.00  0.00    +0.013 A 
ATOM      6  C   UNL     1      -6.215 -23.530 -23.976  0.00  0.00    -0.018 A 
ATOM      7  C   UNL     1      -5.888 -22.235 -24.421  0.00  0.00    -0.024 A 
ATOM      8  C   UNL     1      -4.932 -21.478 -23.720  0.00  0.00    -0.013 A 
ATOM      9  C   UNL     1      -4.329 -22.070 -22.599  0.00  0.00    -0.007 A 
ATOM     10  C   UNL     1      -3.337 -21.640 -21.683  0.00  0.00    +0.001 A 
ATOM     11  C   UNL     1      -2.664 -20.383 -21.672  0.00  0.00    -0.017 A 
ATOM     12  C   UNL     1      -2.644 -19.105 -22.529  0.00  0.00    +0.196 C 
ATOM     13  N   UNL     1      -1.712 -18.225 -21.808  0.00  0.00    -0.279 N 
ATOM     14  H   UNL     1      -1.509 -17.279 -22.062  0.00  0.00    +0.186 HD
ATOM     15  C   UNL     1      -1.162 -18.881 -20.742  0.00  0.00    +0.187 C 
ATOM     16  O   UNL     1      -0.248 -18.452 -20.064  0.00  0.00    -0.396 OA
ATOM     17  C   UNL     1      -1.773 -20.136 -20.621  0.00  0.00    +0.032 A 
ATOM     18  C   UNL     1      -1.585 -21.133 -19.604  0.00  0.00    -0.002 A 
ATOM     19  C   UNL     1      -0.760 -21.122 -18.446  0.00  0.00    -0.007 A 
ATOM     20  C   UNL     1       0.122 -20.214 -17.835  0.00  0.00    -0.011 A 
ATOM     21  C   UNL     1       0.800 -20.600 -16.644  0.00  0.00    -0.023 A 
ATOM     22  C   UNL     1       0.609 -21.882 -16.094  0.00  0.00    -0.016 A 
ATOM     23  C   UNL     1      -0.287 -22.793 -16.699  0.00  0.00    +0.014 A 
ATOM     24  C   UNL     1      -0.975 -22.396 -17.877  0.00  0.00    +0.068 A 
ATOM     25  N   UNL     1      -1.848 -23.113 -18.581  0.00  0.00    -0.238 N 
ATOM     26  C   UNL     1      -2.257 -22.375 -19.633  0.00  0.00    +0.095 A 
ATOM     27  C   UNL     1      -3.206 -22.670 -20.717  0.00  0.00    +0.098 A 
ATOM     28  C   UNL     1      -4.582 -26.067 -20.392  0.00  0.00    +0.079 C 
ATOM     29  C   UNL     1      -4.762 -24.212 -18.862  0.00  0.00    +0.227 C 
ATOM     32  C   UNL     1      -4.619 -25.033 -17.598  0.00  0.00    +0.102 C 
ATOM     37  C   UNL     1      -3.294 -24.499 -17.125  0.00  0.00    +0.120 C 
ATOM     38  C   UNL     1      -2.248 -24.491 -18.246  0.00  0.00    +0.260 C 
ENDROOT
BRANCH  32  33
ATOM     33  N   UNL     1      -5.628 -24.726 -16.598  0.00  0.00    +0.229 N 
ATOM     34  H   UNL     1      -5.226 -24.174 -15.857  0.00  0.00    +0.201 HD
ATOM     35  H   UNL     1      -6.391 -24.218 -17.019  0.00  0.00    +0.201 HD
ATOM     36  C   UNL     1      -6.103 -26.005 -16.073  0.00  0.00    +0.189 C 
ENDBRANCH  32  33
BRANCH  29  30
ATOM     30  O   UNL     1      -5.034 -23.019 -18.888  0.00  0.00    -0.369 OA
ATOM     31  C   UNL     1      -6.325 -22.373 -18.825  0.00  0.00    +0.195 C 
ENDBRANCH  29  30
TORSDOF 2
