REMARK  Name = 6RCT
REMARK  5 active torsions:
REMARK  status: ('A' for Active; 'I' for Inactive)
REMARK    1  A    between atoms: C3_3  and  C4_4
REMARK    2  A    between atoms: C4_4  and  C7_7
REMARK    3  A    between atoms: C10_10  and  C11_11
REMARK    4  A    between atoms: C12_12  and  N2_25
REMARK    5  A    between atoms: C15_14  and  C16_32
REMARK                            x       y       z     vdW  Elec       q    Type
REMARK                         _______ _______ _______ _____ _____    ______ ____
ROOT
ATOM     10  C   UNL     1     -41.480 -49.709  60.737  0.00  0.00    +0.000 A 
ATOM     11  C   UNL     1     -40.471 -50.560  61.181  0.00  0.00    -0.130 A 
ATOM     12  C   UNL     1     -39.337 -50.780  60.421  0.00  0.00    -0.130 A 
ATOM     13  C   UNL     1     -39.154 -50.122  59.205  0.00  0.00    +0.000 A 
ATOM     32  C   UNL     1     -40.142 -49.246  58.772  0.00  0.00    -0.130 A 
ATOM     33  C   UNL     1     -41.287 -49.048  59.524  0.00  0.00    -0.130 A 
ENDROOT
BRANCH  10   9
ATOM      9  C   UNL     1     -42.781 -49.507  61.545  0.00  0.00    +0.000 C 
ATOM     34  C   UNL     1     -43.094 -50.617  62.568  0.00  0.00    -0.150 C 
ATOM     35  C   UNL     1     -42.704 -48.174  62.312  0.00  0.00    -0.150 C 
BRANCH   9   7
ATOM      1  C   UNL     1     -44.671 -50.732  57.350  0.00  0.00    +0.100 C 
ATOM      2  N   UNL     1     -44.268 -52.137  57.371  0.00  0.00    -0.600 NA
ATOM      3  C   UNL     1     -43.739 -52.544  56.061  0.00  0.00    +0.050 C 
ATOM      4  C   UNL     1     -43.270 -52.343  58.420  0.00  0.00    +0.100 C 
ATOM      5  C   UNL     1     -43.812 -51.925  59.779  0.00  0.00    +0.000 C 
ATOM      6  N   UNL     1     -44.245 -50.517  59.743  0.00  0.00    -0.250 N 
ATOM      7  C   UNL     1     -43.902 -49.434  60.486  0.00  0.00    +0.600 C 
ATOM      8  O   UNL     1     -44.401 -48.337  60.304  0.00  0.00    -0.550 OA
ATOM     36  C   UNL     1     -45.246 -50.319  58.684  0.00  0.00    +0.000 C 
ENDBRANCH   9   7
ENDBRANCH  10   9
BRANCH  13  14
ATOM     14  C   UNL     1     -37.951 -50.365  58.347  0.00  0.00    +0.600 C 
ATOM     15  N   UNL     1     -36.757 -50.570  58.999  0.00  0.00    -0.400 NA
ATOM     31  O   UNL     1     -38.044 -50.381  57.128  0.00  0.00    -0.550 OA
BRANCH  15  16
ATOM     16  C   UNL     1     -35.498 -50.776  58.430  0.00  0.00    +0.200 A 
ATOM     17  N   UNL     1     -34.414 -50.905  59.242  0.00  0.00    -0.450 NA
ATOM     18  C   UNL     1     -33.382 -51.029  58.406  0.00  0.00    +0.150 A 
ATOM     19  C   UNL     1     -31.996 -51.158  58.648  0.00  0.00    -0.100 C 
ATOM     20  C   UNL     1     -31.146 -51.209  57.593  0.00  0.00    -0.100 C 
ATOM     21  C   UNL     1     -31.603 -51.131  56.216  0.00  0.00    +0.000 C 
ATOM     28  C   UNL     1     -32.946 -51.043  56.018  0.00  0.00    -0.050 C 
ATOM     29  N   UNL     1     -33.812 -50.982  57.087  0.00  0.00    -0.150 N 
ATOM     30  C   UNL     1     -35.175 -50.828  57.108  0.00  0.00    -0.050 A 
BRANCH  21  22
ATOM     22  C   UNL     1     -30.628 -51.101  55.081  0.00  0.00    +0.000 A 
ATOM     23  C   UNL     1     -31.023 -50.707  53.802  0.00  0.00    -0.130 A 
ATOM     24  C   UNL     1     -30.098 -50.750  52.773  0.00  0.00    +0.250 A 
ATOM     25  N   UNL     1     -28.828 -51.138  52.929  0.00  0.00    -0.760 NA
ATOM     26  C   UNL     1     -28.458 -51.504  54.160  0.00  0.00    +0.250 A 
ATOM     27  C   UNL     1     -29.306 -51.502  55.255  0.00  0.00    -0.130 A 
ENDBRANCH  21  22
ENDBRANCH  15  16
ENDBRANCH  13  14
TORSDOF 5
