REMARK  Name = 5EHL
REMARK  7 active torsions:
REMARK  status: ('A' for Active; 'I' for Inactive)
REMARK    1  A    between atoms: N_4  and  C_5
REMARK    2  A    between atoms: C_7  and  C_8
REMARK    3  A    between atoms: C_8  and  C_9
REMARK    4  A    between atoms: C_8  and  C_10
REMARK    5  A    between atoms: C_8  and  C_11
REMARK    6  A    between atoms: N_13  and  C_14
REMARK    7  A    between atoms: C_17  and  C_18
REMARK                            x       y       z     vdW  Elec       q    Type
REMARK                         _______ _______ _______ _____ _____    ______ ____
ROOT
ATOM      5  C   UNL     1       0.765 -35.459 -11.170  0.00  0.00    +0.130 A 
ATOM      6  N   UNL     1       1.239 -36.278 -12.205  0.00  0.00    -0.218 N 
ATOM     14  N   UNL     1       1.960 -35.566 -13.118  0.00  0.00    -0.169 NA
ATOM     15  C   UNL     1       1.948 -34.291 -12.673  0.00  0.00    +0.071 A 
ATOM     20  C   UNL     1       1.214 -34.178 -11.455  0.00  0.00    +0.069 A 
ENDROOT
BRANCH   5   3
ATOM      1  O   UNL     1      -0.511 -33.913  -9.206  0.00  0.00    -0.253 OA
ATOM      2  C   UNL     1      -0.610 -35.127  -9.180  0.00  0.00    +0.302 C 
ATOM      3  N   UNL     1      -0.002 -35.971 -10.124  0.00  0.00    -0.254 N 
ATOM      4  H   UNL     1      -0.130 -37.030 -10.039  0.00  0.00    +0.158 HD
ATOM     21  N   UNL     1      -1.347 -35.750  -8.191  0.00  0.00    -0.313 N 
ATOM     22  H   UNL     1      -1.428 -36.817  -8.176  0.00  0.00    +0.146 HD
ATOM     23  H   UNL     1      -1.836 -35.166  -7.440  0.00  0.00    +0.146 HD
ENDBRANCH   5   3
BRANCH   6   7
ATOM      7  C   UNL     1       1.029 -37.674 -12.360  0.00  0.00    +0.067 A 
ATOM      8  C   UNL     1       1.521 -38.545 -11.396  0.00  0.00    +0.028 A 
ATOM      9  C   UNL     1       1.337 -39.903 -11.568  0.00  0.00    +0.005 A 
ATOM     10  C   UNL     1       0.671 -40.390 -12.680  0.00  0.00    -0.050 A 
ATOM     11  C   UNL     1       0.504 -41.855 -12.848  0.00  0.00    +0.044 C 
ATOM     12  C   UNL     1       0.178 -39.510 -13.631  0.00  0.00    +0.005 A 
ATOM     13  C   UNL     1       0.353 -38.146 -13.479  0.00  0.00    +0.028 A 
ENDBRANCH   6   7
BRANCH  15  16
ATOM     16  C   UNL     1       2.610 -33.173 -13.398  0.00  0.00    +0.006 C 
ATOM     17  C   UNL     1       1.827 -31.875 -13.230  0.00  0.00    +0.017 C 
ATOM     18  C   UNL     1       2.683 -33.537 -14.878  0.00  0.00    +0.017 C 
ATOM     19  C   UNL     1       4.021 -32.978 -12.851  0.00  0.00    +0.017 C 
ENDBRANCH  15  16
TORSDOF 3
