REMARK  Name = 2obj_ligand
REMARK  5 active torsions:
REMARK  status: ('A' for Active; 'I' for Inactive)
REMARK    1  A    between atoms: C3_3  and  O22_22
REMARK    2  A    between atoms: C4_4  and  C7_7
REMARK    3  A    between atoms: C9_9  and  O21_21
REMARK    4  A    between atoms: C10_10  and  C19_19
REMARK    5  A    between atoms: C11_11  and  C13_13
REMARK                            x       y       z     vdW  Elec       q    Type
REMARK                         _______ _______ _______ _____ _____    ______ ____
ROOT
ATOM      6  C   UNL     1     -18.171  35.886   0.471  0.00  0.00    +0.044 A 
ATOM      7  C   UNL     1     -18.070  35.574  -0.940  0.00  0.00    +0.037 A 
ATOM      8  C   UNL     1     -17.191  34.556  -1.423  0.00  0.00    +0.023 A 
ATOM     15  C   UNL     1     -16.398  33.841  -0.414  0.00  0.00    +0.152 A 
ATOM     18  C   UNL     1     -16.557  34.213   0.963  0.00  0.00    +0.193 A 
ATOM     21  N   UNL     1     -17.396  35.170   1.314  0.00  0.00    -0.264 NA
ENDROOT
BRANCH   6   5
ATOM      1  C   UNL     1     -20.805  38.962   1.947  0.00  0.00    +0.006 A 
ATOM      2  C   UNL     1     -20.747  38.651   0.573  0.00  0.00    +0.006 A 
ATOM      3 BR   UNL     1     -21.825  39.596  -0.691  0.00  0.00    -0.059 Br
ATOM      4  C   UNL     1     -19.889  37.648   0.106  0.00  0.00    +0.018 A 
ATOM      5  C   UNL     1     -19.036  36.897   0.982  0.00  0.00    +0.034 A 
ATOM     22  C   UNL     1     -19.120  37.249   2.399  0.00  0.00    +0.107 A 
ATOM     25  C   UNL     1     -19.995  38.263   2.860  0.00  0.00    +0.031 A 
BRANCH  22  23
ATOM     23  O   UNL     1     -18.375  36.640   3.378  0.00  0.00    -0.326 OA
ATOM     24  H   UNL     1     -18.572  35.711   3.392  0.00  0.00    +0.252 HD
ENDBRANCH  22  23
ENDBRANCH   6   5
BRANCH   8   9
ATOM      9  C   UNL     1     -17.146  34.312  -2.814  0.00  0.00    -0.005 A 
ATOM     10  C   UNL     1     -16.348  35.142  -3.692  0.00  0.00    +0.016 A 
ATOM     11  C   UNL     1     -16.298  34.896  -5.086  0.00  0.00    +0.005 A 
ATOM     12  C   UNL     1     -17.040  33.821  -5.642  0.00  0.00    +0.005 A 
ATOM     13  C   UNL     1     -17.831  32.988  -4.816  0.00  0.00    +0.005 A 
ATOM     14  C   UNL     1     -17.888  33.228  -3.418  0.00  0.00    +0.016 A 
ENDBRANCH   8   9
BRANCH  15  16
ATOM     16  C   UNL     1     -15.464  32.787  -0.721  0.00  0.00    +0.094 C 
ATOM     17  N   UNL     1     -14.724  31.937  -0.986  0.00  0.00    -0.340 NA
ENDBRANCH  15  16
BRANCH  18  19
ATOM     19  O   UNL     1     -15.885  33.637   2.014  0.00  0.00    -0.306 OA
ATOM     20  H   UNL     1     -16.511  33.252   2.616  0.00  0.00    +0.258 HD
ENDBRANCH  18  19
TORSDOF 5
