REMARK  Name = 4ppa_ligand
REMARK  6 active torsions:
REMARK  status: ('A' for Active; 'I' for Inactive)
REMARK    1  A    between atoms: C3_3  and  C9_9
REMARK    2  A    between atoms: C5_5  and  C7_7
REMARK    3  A    between atoms: C9_9  and  N10_10
REMARK    4  A    between atoms: C12_12  and  N15_15
REMARK    5  A    between atoms: C16_16  and  C18_18
REMARK    6  A    between atoms: C22_22  and  C28_27
REMARK                            x       y       z     vdW  Elec       q    Type
REMARK                         _______ _______ _______ _____ _____    ______ ____
ROOT
ATOM     13  N   UNL     1     -15.629 -23.678  55.437  0.00  0.00    -0.253 N 
ATOM     14  H   UNL     1     -15.548 -23.424  54.473  0.00  0.00    +0.212 HD
ATOM     15  C   UNL     1     -16.857 -23.598  56.009  0.00  0.00    +0.231 C 
ATOM     32  O   UNL     1     -17.024 -23.850  57.192  0.00  0.00    -0.380 OA
ENDROOT
BRANCH  15  16
ATOM     16  C   UNL     1     -18.026 -23.189  55.209  0.00  0.00    +0.136 A 
ATOM     17  N   UNL     1     -18.085 -22.971  53.910  0.00  0.00    -0.179 NA
ATOM     18  N   UNL     1     -19.263 -22.600  53.538  0.00  0.00    -0.207 N 
ATOM     19  H   UNL     1     -19.520 -22.376  52.566  0.00  0.00    +0.249 HD
ATOM     20  C   UNL     1     -20.134 -22.541  54.602  0.00  0.00    +0.087 A 
ATOM     21  C   UNL     1     -21.486 -22.208  54.771  0.00  0.00    +0.015 A 
ATOM     22  C   UNL     1     -22.060 -22.272  56.053  0.00  0.00    -0.043 A 
ATOM     29  C   UNL     1     -21.271 -22.636  57.167  0.00  0.00    -0.020 A 
ATOM     30  C   UNL     1     -19.952 -22.959  57.011  0.00  0.00    -0.007 A 
ATOM     31  C   UNL     1     -19.371 -22.922  55.736  0.00  0.00    +0.024 A 
BRANCH  22  23
ATOM     23  C   UNL     1     -23.477 -21.861  56.300  0.00  0.00    -0.002 A 
ATOM     24  C   UNL     1     -24.208 -22.063  57.493  0.00  0.00    +0.165 A 
ATOM     25  N   UNL     1     -25.386 -21.515  57.363  0.00  0.00    -0.217 N 
ATOM     26  H   UNL     1     -26.135 -21.518  58.070  0.00  0.00    +0.260 HD
ATOM     27  N   UNL     1     -25.456 -20.923  56.098  0.00  0.00    -0.216 NA
ATOM     28  C   UNL     1     -24.280 -21.128  55.468  0.00  0.00    +0.073 A 
ENDBRANCH  22  23
ENDBRANCH  15  16
BRANCH  13  12
ATOM      9  N   UNL     1     -12.374 -24.693  56.478  0.00  0.00    -0.211 N 
ATOM     10  N   UNL     1     -13.074 -24.817  57.685  0.00  0.00    -0.223 NA
ATOM     11  C   UNL     1     -14.312 -24.466  57.462  0.00  0.00    +0.082 A 
ATOM     12  C   UNL     1     -14.452 -24.097  56.110  0.00  0.00    +0.074 A 
ATOM     33  C   UNL     1     -13.242 -24.276  55.524  0.00  0.00    +0.139 A 
BRANCH   9   8
ATOM      8  C   UNL     1     -10.970 -25.038  56.270  0.00  0.00    +0.260 C 
BRANCH   8   7
ATOM      1  C   UNL     1     -10.963 -28.841  56.433  0.00  0.00    +0.005 A 
ATOM      2  C   UNL     1     -10.839 -29.181  55.093  0.00  0.00    +0.032 A 
ATOM      3  C   UNL     1     -10.759 -28.165  54.119  0.00  0.00    +0.089 A 
ATOM      6  C   UNL     1     -10.802 -26.817  54.512  0.00  0.00    +0.043 A 
ATOM      7  C   UNL     1     -10.920 -26.492  55.858  0.00  0.00    -0.001 A 
ATOM     34  C   UNL     1     -11.006 -27.501  56.815  0.00  0.00    +0.014 A 
BRANCH   3   4
ATOM      4  C   UNL     1     -10.627 -28.499  52.731  0.00  0.00    +0.099 C 
ATOM      5  N   UNL     1     -10.524 -28.762  51.631  0.00  0.00    -0.328 NA
ENDBRANCH   3   4
ENDBRANCH   8   7
ENDBRANCH   9   8
ENDBRANCH  13  12
TORSDOF 6
