REMARK  Name = NNR
REMARK  3 active torsions:
REMARK  status: ('A' for Active; 'I' for Inactive)
REMARK    1  A    between atoms: C4R_5  and  C5R_6
REMARK    2  A    between atoms: C1R_9  and  N1_10
REMARK    3  A    between atoms: C3_15  and  C7_16
REMARK                            x       y       z     vdW  Elec       q    Type
REMARK                         _______ _______ _______ _____ _____    ______ ____
ROOT
ATOM      1  O2* UNL     1     -19.388  -2.347 -12.021  0.00  0.00    -0.216 OA
ATOM      2  C2* UNL     1     -19.216  -1.443 -10.866  0.00  0.00    +0.231 C 
ATOM      3  C3* UNL     1     -20.371  -1.512  -9.856  0.00  0.00    +0.216 C 
ATOM      4  C4* UNL     1     -20.724  -0.022  -9.570  0.00  0.00    +0.183 C 
ATOM      7  O4* UNL     1     -19.599   0.759 -10.073  0.00  0.00    -0.333 OA
ATOM      8  O3* UNL     1     -21.502  -2.180 -10.408  0.00  0.00    -0.218 OA
ATOM      9  C1* UNL     1     -19.254   0.031 -11.295  0.00  0.00    +0.226 C 
ENDROOT
BRANCH   9  10
ATOM     10  N   UNL     1     -17.881   0.407 -11.761  0.00  0.00    -0.279 N 
ATOM     11  C   UNL     1     -17.073   1.250 -10.976  0.00  0.00    +0.124 C 
ATOM     12  C   UNL     1     -15.801   1.597 -11.407  0.00  0.00    +0.054 C 
ATOM     16  C   UNL     1     -15.315   1.091 -12.609  0.00  0.00    +0.003 C 
ATOM     17  C   UNL     1     -16.090   0.245 -13.386  0.00  0.00    +0.016 C 
ATOM     18  C   UNL     1     -17.371  -0.115 -12.973  0.00  0.00    +0.063 C 
BRANCH  12  13
ATOM     13  C   UNL     1     -14.925   2.527 -10.550  0.00  0.00    +0.282 C 
ATOM     14  N   UNL     1     -15.564   3.438  -9.828  0.00  0.00    -0.084 NA
ATOM     15  O   UNL     1     -13.717   2.384 -10.539  0.00  0.00    -0.267 OA
ENDBRANCH  12  13
ENDBRANCH   9  10
BRANCH   4   5
ATOM      5  C5* UNL     1     -20.949   0.255  -8.039  0.00  0.00    +0.214 C 
ATOM      6  O5* UNL     1     -20.346   1.485  -7.702  0.00  0.00    -0.218 OA
ENDBRANCH   4   5
TORSDOF 3
