REMARK  Name = 4hni_ligand
REMARK  4 active torsions:
REMARK  status: ('A' for Active; 'I' for Inactive)
REMARK    1  A    between atoms: C2_2  and  O2_19
REMARK    2  A    between atoms: C11_8  and  C12_9
REMARK    3  A    between atoms: C12_9  and  O2_19
REMARK    4  A    between atoms: C16_13  and  N5_16
REMARK                            x       y       z     vdW  Elec       q    Type
REMARK                         _______ _______ _______ _____ _____    ______ ____
ROOT
ATOM     10  C   UNL     1     -26.612 -14.604 -29.194  0.00  0.00    +0.073 A 
ATOM     11  N   UNL     1     -27.010 -15.603 -29.941  0.00  0.00    -0.211 NA
ATOM     12  N   UNL     1     -27.391 -16.594 -29.201  0.00  0.00    -0.192 N 
ATOM     19  C   UNL     1     -27.287 -16.357 -27.891  0.00  0.00    +0.158 A 
ATOM     20  N   UNL     1     -27.565 -17.096 -26.725  0.00  0.00    -0.269 NA
ATOM     21  C   UNL     1     -27.349 -16.545 -25.475  0.00  0.00    +0.159 A 
ATOM     22  N   UNL     1     -26.857 -15.256 -25.420  0.00  0.00    -0.266 NA
ATOM     23  C   UNL     1     -26.570 -14.497 -26.543  0.00  0.00    +0.127 A 
ATOM     24  N   UNL     1     -26.133 -13.240 -26.332  0.00  0.00    -0.312 N 
ATOM     25  H   UNL     1     -26.001 -12.899 -25.380  0.00  0.00    +0.185 HD
ATOM     26  H   UNL     1     -25.934 -12.630 -27.125  0.00  0.00    +0.185 HD
ATOM     27  C   UNL     1     -26.767 -15.012 -27.840  0.00  0.00    +0.087 A 
ENDROOT
BRANCH  12  13
ATOM     13  C   UNL     1     -27.902 -17.834 -29.736  0.00  0.00    +0.146 C 
ATOM     14  C   UNL     1     -29.235 -17.584 -30.443  0.00  0.00    +0.065 C 
ATOM     15  C   UNL     1     -29.774 -18.802 -31.180  0.00  0.00    +0.163 C 
ATOM     16  O   UNL     1     -28.720 -19.487 -31.911  0.00  0.00    -0.380 OA
ATOM     17  C   UNL     1     -27.490 -19.801 -31.258  0.00  0.00    +0.163 C 
ATOM     18  C   UNL     1     -26.934 -18.546 -30.678  0.00  0.00    +0.065 C 
ENDBRANCH  12  13
BRANCH  10   9
ATOM      9  C   UNL     1     -26.076 -13.355 -29.691  0.00  0.00    +0.269 C 
BRANCH   9   8
ATOM      8  O   UNL     1     -24.685 -13.378 -29.284  0.00  0.00    -0.305 OA
BRANCH   8   7
ATOM      1  C   UNL     1     -24.252 -11.737 -30.920  0.00  0.00    +0.036 A 
ATOM      2  C   UNL     1     -23.453 -10.740 -31.437  0.00  0.00    +0.032 A 
ATOM      3 CL   UNL     1     -24.366 -10.207 -32.716  0.00  0.00    -0.074 Cl
ATOM      4  C   UNL     1     -22.175 -10.300 -30.923  0.00  0.00    -0.006 A 
ATOM      5  C   UNL     1     -21.689 -10.980 -29.734  0.00  0.00    -0.011 A 
ATOM      6  C   UNL     1     -22.518 -12.046 -29.152  0.00  0.00    +0.022 A 
ATOM      7  C   UNL     1     -23.802 -12.406 -29.766  0.00  0.00    +0.094 A 
ENDBRANCH   8   7
ENDBRANCH   9   8
ENDBRANCH  10   9
TORSDOF 4
