REMARK  Name = 2jiu_ligand
REMARK  8 active torsions:
REMARK  status: ('A' for Active; 'I' for Inactive)
REMARK    1  A    between atoms: NBF_3  and  CAN_4
REMARK    2  A    between atoms: CAN_4  and  CAA_5
REMARK    3  A    between atoms: NBG_8  and  CAS_9
REMARK    4  A    between atoms: CAS_9  and  CAX_10
REMARK    5  A    between atoms: CAY_15  and  CBA_16
REMARK    6  A    between atoms: NAV_25  and  CBE_26
REMARK    7  A    between atoms: CBE_26  and  CAB_27
REMARK    8  A    between atoms: CBE_26  and  CAZ_28
REMARK                            x       y       z     vdW  Elec       q    Type
REMARK                         _______ _______ _______ _____ _____    ______ ____
ROOT
ATOM      9  C   UNL     1      -8.549  16.452  32.087  0.00  0.00    +0.063 A 
ATOM     10  C   UNL     1      -9.133  17.446  31.416  0.00  0.00    -0.011 A 
ATOM     11  C   UNL     1      -8.188  18.304  31.046  0.00  0.00    +0.047 A 
ATOM     12  C   UNL     1      -8.198  19.497  30.341  0.00  0.00    +0.122 A 
ATOM     13  N   UNL     1      -9.340  19.999  29.880  0.00  0.00    -0.288 N 
ATOM     14  H   UNL     1     -10.146  19.379  29.715  0.00  0.00    +0.189 HD
ATOM     23  N   UNL     1      -7.039  20.136  30.132  0.00  0.00    -0.273 NA
ATOM     24  C   UNL     1      -5.899  19.640  30.589  0.00  0.00    +0.148 A 
ATOM     25  N   UNL     1      -5.857  18.503  31.266  0.00  0.00    -0.277 NA
ATOM     26  C   UNL     1      -6.981  17.816  31.509  0.00  0.00    +0.136 A 
ATOM     27  N   UNL     1      -7.235  16.677  32.144  0.00  0.00    -0.262 N 
ATOM     28  H   UNL     1      -6.538  16.072  32.601  0.00  0.00    +0.228 HD
ENDROOT
BRANCH   9   8
ATOM      5  C   UNL     1     -10.515  13.168  33.742  0.00  0.00    +0.002 A 
ATOM      6  C   UNL     1     -11.246  14.261  33.291  0.00  0.00    +0.001 A 
ATOM      7  C   UNL     1     -10.591  15.356  32.740  0.00  0.00    +0.002 A 
ATOM      8  C   UNL     1      -9.204  15.358  32.639  0.00  0.00    -0.002 A 
ATOM     29  C   UNL     1      -8.473  14.265  33.090  0.00  0.00    +0.002 A 
ATOM     30  C   UNL     1      -9.129  13.170  33.642  0.00  0.00    +0.001 A 
BRANCH   5   4
ATOM      4  C   UNL     1     -11.236  11.963  34.350  0.00  0.00    +0.199 C 
BRANCH   4   2
ATOM      1  C   UNL     1     -10.690  10.592  36.244  0.00  0.00    +0.185 C 
ATOM      2  N   UNL     1     -11.032  11.953  35.806  0.00  0.00    +0.255 N 
ATOM      3  H   UNL     1     -10.279  12.580  36.043  0.00  0.00    +0.205 HD
ATOM     31  C   UNL     1     -12.263  12.392  36.478  0.00  0.00    +0.185 C 
ATOM     32  C   UNL     1     -13.406  11.438  36.126  0.00  0.00    +0.183 C 
ATOM     33  N   UNL     1     -13.064  10.079  36.569  0.00  0.00    +0.242 N 
ATOM     34  H   UNL     1     -13.818   9.451  36.338  0.00  0.00    +0.204 HD
ATOM     37  C   UNL     1     -11.834   9.639  35.893  0.00  0.00    +0.183 C 
BRANCH  33  35
ATOM     35  C   UNL     1     -12.852  10.076  38.023  0.00  0.00    +0.128 C 
ATOM     36  C   UNL     1     -13.555   8.865  38.640  0.00  0.00    +0.060 C 
ENDBRANCH  33  35
ENDBRANCH   4   2
ENDBRANCH   5   4
ENDBRANCH   9   8
BRANCH  13  15
ATOM     15  C   UNL     1      -9.452  21.439  29.606  0.00  0.00    +0.145 C 
ATOM     22  C   UNL     1     -10.928  21.822  29.484  0.00  0.00    +0.051 C 
BRANCH  15  16
ATOM     16  C   UNL     1      -8.729  21.769  28.299  0.00  0.00    -0.018 A 
ATOM     17  C   UNL     1      -8.618  20.805  27.304  0.00  0.00    -0.002 A 
ATOM     18  C   UNL     1      -7.961  21.105  26.116  0.00  0.00    -0.009 A 
ATOM     19  C   UNL     1      -7.414  22.368  25.924  0.00  0.00    -0.013 A 
ATOM     20  C   UNL     1      -7.525  23.332  26.919  0.00  0.00    -0.009 A 
ATOM     21  C   UNL     1      -8.182  23.032  28.107  0.00  0.00    -0.002 A 
ENDBRANCH  15  16
ENDBRANCH  13  15
TORSDOF 6
