REMARK  Name = 3BHV
REMARK  2 active torsions:
REMARK  status: ('A' for Active; 'I' for Inactive)
REMARK    1  A    between atoms: O_1  and  C_2
REMARK    2  A    between atoms: C_14  and  C_16
REMARK                            x       y       z     vdW  Elec       q    Type
REMARK                         _______ _______ _______ _____ _____    ______ ____
ROOT
ATOM      3  C   UNL     1      -7.386  19.187 -19.973  0.00  0.00    +0.130 A 
ATOM      4  C   UNL     1      -7.538  20.108 -21.130  0.00  0.00    +0.070 A 
ATOM      5  C   UNL     1      -6.681  20.850 -22.092  0.00  0.00    +0.039 A 
ATOM     15  C   UNL     1      -7.639  21.587 -22.988  0.00  0.00    +0.063 A 
ATOM     16  C   UNL     1      -7.406  22.442 -24.057  0.00  0.00    +0.047 A 
ATOM     17  C   UNL     1      -8.497  22.989 -24.729  0.00  0.00    +0.116 A 
ATOM     18  N   UNL     1      -9.747  22.698 -24.329  0.00  0.00    -0.224 NA
ATOM     19  C   UNL     1      -9.967  21.866 -23.280  0.00  0.00    +0.199 A 
ATOM     20  N   UNL     1     -11.240  21.596 -22.909  0.00  0.00    -0.329 N 
ATOM     21  H   UNL     1     -12.057  22.037 -23.441  0.00  0.00    +0.145 HD
ATOM     22  H   UNL     1     -11.429  20.942 -22.084  0.00  0.00    +0.145 HD
ATOM     23  N   UNL     1      -8.914  21.328 -22.632  0.00  0.00    -0.266 N 
ATOM     24  C   UNL     1      -8.896  20.488 -21.579  0.00  0.00    +0.152 A 
ATOM     25  N   UNL     1      -9.977  19.991 -20.918  0.00  0.00    -0.237 NA
ATOM     26  C   UNL     1      -9.798  19.160 -19.868  0.00  0.00    +0.116 A 
ATOM     27  C   UNL     1      -8.553  18.736 -19.378  0.00  0.00    +0.066 A 
ENDROOT
BRANCH   5   6
ATOM      6  C   UNL     1      -5.192  20.854 -22.114  0.00  0.00    +0.079 A 
ATOM      7  N   UNL     1      -4.524  21.622 -22.997  0.00  0.00    -0.215 NA
ATOM      8  C   UNL     1      -3.167  21.630 -23.007  0.00  0.00    +0.213 A 
ATOM      9  N   UNL     1      -2.510  22.415 -23.906  0.00  0.00    -0.328 N 
ATOM     10  H   UNL     1      -3.064  23.010 -24.602  0.00  0.00    +0.145 HD
ATOM     11  H   UNL     1      -1.440  22.436 -23.916  0.00  0.00    +0.145 HD
ATOM     12  N   UNL     1      -2.460  20.876 -22.126  0.00  0.00    -0.223 NA
ATOM     13  C   UNL     1      -3.090  20.099 -21.232  0.00  0.00    +0.116 A 
ATOM     14  C   UNL     1      -4.480  20.074 -21.211  0.00  0.00    +0.048 A 
ENDBRANCH   5   6
BRANCH   3   1
ATOM      1  O   UNL     1      -6.176  18.782 -19.488  0.00  0.00    -0.506 OA
ATOM      2  H   UNL     1      -6.083  19.080 -18.485  0.00  0.00    +0.292 HD
ENDBRANCH   3   1
TORSDOF 2
