REMARK  Name = 8J2
REMARK  5 active torsions:
REMARK  status: ('A' for Active; 'I' for Inactive)
REMARK    1  A    between atoms: C4_2  and  N_21
REMARK    2  A    between atoms: N2_8  and  C20_25
REMARK    3  A    between atoms: C13_13  and  C16_23
REMARK    4  A    between atoms: C3_16  and  O_17
REMARK    5  A    between atoms: O_17  and  C1_18
REMARK                            x       y       z     vdW  Elec       q    Type
REMARK                         _______ _______ _______ _____ _____    ______ ____
ROOT
ATOM      4  C   UNL     1      11.054  14.139   1.649  0.00  0.00    +0.124 C 
ATOM      5  C   UNL     1      11.630  14.211   3.040  0.00  0.00    +0.011 A 
ATOM      6  C   UNL     1      10.808  13.784   4.084  0.00  0.00    +0.051 A 
ATOM      7  C   UNL     1      11.238  13.925   5.402  0.00  0.00    +0.015 A 
ATOM      8  C   UNL     1      12.480  14.467   5.667  0.00  0.00    +0.001 A 
ATOM      9  C   UNL     1      13.323  14.892   4.644  0.00  0.00    -0.000 A 
ATOM     20  N   UNL     1       9.520  13.283   3.721  0.00  0.00    -0.261 N 
ATOM     21  C   UNL     1       8.915  12.173   4.246  0.00  0.00    +0.230 C 
ATOM     22  C   UNL     1       9.714  11.315   5.192  0.00  0.00    +0.095 C 
ATOM     23  O   UNL     1       7.794  11.855   3.889  0.00  0.00    -0.275 OA
ATOM     24  C   UNL     1       8.744  14.061   2.726  0.00  0.00    +0.082 C 
ATOM     25  C   UNL     1       7.837  15.067   3.408  0.00  0.00    +0.022 C 
ATOM     26  C   UNL     1      12.868  14.765   3.335  0.00  0.00    -0.001 A 
ATOM     27  C   UNL     1       9.663  14.757   1.718  0.00  0.00    +0.047 C 
ENDROOT
BRANCH   9  10
ATOM     10  C   UNL     1      14.664  15.510   4.942  0.00  0.00    +0.001 A 
ATOM     11  C   UNL     1      15.085  15.718   6.254  0.00  0.00    +0.000 A 
ATOM     12  C   UNL     1      16.263  16.402   6.518  0.00  0.00    +0.001 A 
ATOM     13  C   UNL     1      17.059  16.859   5.481  0.00  0.00    +0.017 A 
ATOM     14  C   UNL     1      16.708  16.586   4.175  0.00  0.00    +0.073 A 
ATOM     19  C   UNL     1      15.508  15.932   3.918  0.00  0.00    +0.017 A 
BRANCH  14  15
ATOM     15  N   UNL     1      17.663  16.885   3.175  0.00  0.00    -0.179 NA
ATOM     16  C   UNL     1      17.648  16.588   1.848  0.00  0.00    +0.246 C 
ATOM     17  O   UNL     1      16.683  16.062   1.286  0.00  0.00    -0.273 OA
ATOM     18  C   UNL     1      18.920  16.907   1.113  0.00  0.00    +0.097 C 
ENDBRANCH  14  15
ENDBRANCH   9  10
BRANCH   4   3
ATOM      1  O   UNL     1      13.573  15.071  -0.794  0.00  0.00    -0.225 OA
ATOM      2  C   UNL     1      12.964  14.432   0.052  0.00  0.00    +0.421 C 
ATOM      3  N   UNL     1      11.853  14.863   0.666  0.00  0.00    -0.166 NA
BRANCH   2  28
ATOM     28  O   UNL     1      13.298  13.206   0.486  0.00  0.00    -0.437 OA
BRANCH  28  29
ATOM     29  C   UNL     1      14.601  12.687   0.064  0.00  0.00    +0.171 C 
ATOM     30  C   UNL     1      15.289  12.049   1.225  0.00  0.00    +0.047 C 
ATOM     31  C   UNL     1      14.295  11.748  -1.059  0.00  0.00    +0.047 C 
ENDBRANCH  28  29
ENDBRANCH   2  28
ENDBRANCH   4   3
TORSDOF 5
