REMARK  Name = 4daw_ligand
REMARK  1 active torsions:
REMARK  status: ('A' for Active; 'I' for Inactive)
REMARK    1  A    between atoms: N23_18  and  RU1_30
REMARK                            x       y       z     vdW  Elec       q    Type
REMARK                         _______ _______ _______ _____ _____    ______ ____
ROOT
ATOM      1  O   UNL     1      16.800  35.747 -12.702  0.00  0.00    -0.389 OA
ATOM      2  C   UNL     1      15.616  35.254 -12.697  0.00  0.00    +0.206 C 
ATOM      3  N   UNL     1      14.959  34.921 -11.558  0.00  0.00    -0.217 N 
ATOM      4  H   UNL     1      15.259  34.989 -10.607  0.00  0.00    +0.219 HD
ATOM      5  C   UNL     1      13.789  34.472 -12.060  0.00  0.00    +0.181 C 
ATOM      6  C   UNL     1      13.701  34.510 -13.430  0.00  0.00    +0.004 A 
ATOM      7  C   UNL     1      12.694  34.132 -14.291  0.00  0.00    -0.040 A 
ATOM      8  C   UNL     1      12.956  34.340 -15.634  0.00  0.00    -0.077 A 
ATOM      9 RU   UNL     1      11.594  33.793 -17.370  0.00  0.00    +3.000 Ru
ATOM     10  S   UNL     1      12.777  31.685 -17.302  0.00  0.00    -0.159 S 
ATOM     11  C   UNL     1      11.973  30.912 -18.672  0.00  0.00    +0.079 C 
ATOM     12  C   UNL     1      11.625  31.957 -19.734  0.00  0.00    +0.079 C 
ATOM     13  C   UNL     1      11.942  31.008 -15.899  0.00  0.00    +0.079 C 
ATOM     14  C   UNL     1      10.416  31.135 -15.931  0.00  0.00    +0.079 C 
ATOM     15  S   UNL     1       9.854  32.817 -15.989  0.00  0.00    -0.159 S 
ATOM     16  C   UNL     1       8.639  32.836 -17.267  0.00  0.00    +0.079 C 
ATOM     17  C   UNL     1       9.192  32.146 -18.511  0.00  0.00    +0.079 C 
ATOM     18  S   UNL     1      10.422  33.011 -19.248  0.00  0.00    -0.159 S 
ATOM     22  N   UNL     1      13.307  34.629 -18.448  0.00  0.00    -0.355 N 
ATOM     23  C   UNL     1      13.387  34.727 -19.791  0.00  0.00    +0.038 A 
ATOM     24  C   UNL     1      14.543  35.245 -20.386  0.00  0.00    -0.028 A 
ATOM     25  C   UNL     1      15.606  35.645 -19.580  0.00  0.00    -0.021 A 
ATOM     26  C   UNL     1      15.498  35.518 -18.191  0.00  0.00    -0.017 A 
ATOM     27  C   UNL     1      14.323  35.001 -17.632  0.00  0.00    -0.023 A 
ATOM     28  C   UNL     1      14.165  34.850 -16.134  0.00  0.00    -0.064 A 
ATOM     29  C   UNL     1      15.168  35.219 -15.227  0.00  0.00    -0.022 A 
ATOM     30  O   UNL     1      12.657  33.957 -11.271  0.00  0.00    -0.412 OA
ATOM     31  C   UNL     1      14.901  35.032 -13.870  0.00  0.00    +0.017 A 
ENDROOT
BRANCH   9  19
ATOM     19  N   UNL     1      10.490  35.622 -17.566  0.00  0.00    -0.567 NA
ATOM     20  C   UNL     1       9.438  36.491 -17.703  0.00  0.00    -0.279 C 
ATOM     21  S   UNL     1       8.192  37.449 -17.824  0.00  0.00    -0.155 S 
ENDBRANCH   9  19
TORSDOF 1
