REMARK  Name = 2bkz_ligand
REMARK  4 active torsions:
REMARK  status: ('A' for Active; 'I' for Inactive)
REMARK    1  A    between atoms: C3_3  and  N7_7
REMARK    2  A    between atoms: C6_6  and  S22_22
REMARK    3  A    between atoms: C10_10  and  C19_19
REMARK    4  A    between atoms: S22_22  and  N25_25
REMARK                            x       y       z     vdW  Elec       q    Type
REMARK                         _______ _______ _______ _____ _____    ______ ____
ROOT
ATOM     12  N   UNL     1     -11.951 205.049 114.095  0.00  0.00    -0.168 N 
ATOM     13  N   UNL     1     -12.826 204.597 115.024  0.00  0.00    -0.195 NA
ATOM     14  C   UNL     1     -14.026 204.248 114.402  0.00  0.00    +0.103 A 
ATOM     20  C   UNL     1     -13.905 204.487 113.017  0.00  0.00    -0.011 A 
ATOM     21  C   UNL     1     -14.857 204.118 111.824  0.00  0.00    +0.057 C 
ATOM     22  C   UNL     1     -14.440 204.689 110.420  0.00  0.00    +0.118 C 
ATOM     23  C   UNL     1     -12.980 205.225 110.312  0.00  0.00    +0.083 A 
ATOM     24  N   UNL     1     -12.288 205.645 109.206  0.00  0.00    -0.215 N 
ATOM     25  H   UNL     1     -12.653 205.660 108.243  0.00  0.00    +0.255 HD
ATOM     26  N   UNL     1     -11.056 206.034 109.581  0.00  0.00    -0.229 NA
ATOM     27  C   UNL     1     -10.941 205.869 110.942  0.00  0.00    +0.061 A 
ATOM     28  C   UNL     1     -12.143 205.361 111.424  0.00  0.00    +0.027 A 
ATOM     29  C   UNL     1     -12.590 204.998 112.800  0.00  0.00    +0.089 A 
ENDROOT
BRANCH  12  11
ATOM      1  C   UNL     1      -8.448 205.066 115.172  0.00  0.00    +0.022 A 
ATOM      2  C   UNL     1      -8.183 206.449 115.019  0.00  0.00    +0.101 A 
ATOM      9  C   UNL     1      -9.161 207.338 114.565  0.00  0.00    +0.022 A 
ATOM     10  C   UNL     1     -10.435 206.848 114.255  0.00  0.00    +0.034 A 
ATOM     11  C   UNL     1     -10.755 205.459 114.388  0.00  0.00    +0.108 A 
ATOM     30  C   UNL     1      -9.739 204.564 114.857  0.00  0.00    +0.034 A 
BRANCH   2   3
ATOM      3  S   UNL     1      -6.621 207.082 115.397  0.00  0.00    +0.063 S 
ATOM      7  O   UNL     1      -5.595 205.899 115.619  0.00  0.00    -0.151 OA
ATOM      8  O   UNL     1      -6.696 208.066 116.754  0.00  0.00    -0.151 OA
BRANCH   3   4
ATOM      4  N   UNL     1      -6.067 208.042 114.076  0.00  0.00    -0.262 NA
ATOM      5  H   UNL     1      -6.639 208.151 113.263  0.00  0.00    +0.163 HD
ATOM      6  H   UNL     1      -5.174 208.489 114.123  0.00  0.00    +0.163 HD
ENDBRANCH   3   4
ENDBRANCH   2   3
ENDBRANCH  12  11
BRANCH  14  15
ATOM     15  C   UNL     1     -15.265 203.697 115.144  0.00  0.00    +0.204 C 
ATOM     16  O   UNL     1     -16.308 203.405 114.552  0.00  0.00    -0.387 OA
ATOM     17  N   UNL     1     -15.203 203.536 116.466  0.00  0.00    -0.301 N 
ATOM     18  H   UNL     1     -14.365 203.770 116.960  0.00  0.00    +0.181 HD
ATOM     19  H   UNL     1     -15.994 203.181 116.964  0.00  0.00    +0.181 HD
ENDBRANCH  14  15
TORSDOF 4
