REMARK  Name = 4a4l_ligand
REMARK  8 active torsions:
REMARK  status: ('A' for Active; 'I' for Inactive)
REMARK    1  A    between atoms: C4_4  and  C8_8
REMARK    2  A    between atoms: N7_7  and  C16_16
REMARK    3  A    between atoms: N9_9  and  C27_27
REMARK    4  A    between atoms: C11_11  and  C13_13
REMARK    5  A    between atoms: C17_17  and  O22_22
REMARK    6  A    between atoms: C20_20  and  N28_28
REMARK    7  A    between atoms: O22_22  and  C23_23
REMARK    8  A    between atoms: N31_31  and  C34_34
REMARK                            x       y       z     vdW  Elec       q    Type
REMARK                         _______ _______ _______ _____ _____    ______ ____
ROOT
ATOM      1  N   UNL     1      10.851  42.606   8.299  0.00  0.00    -0.261 NA
ATOM      2  C   UNL     1      10.118  41.819   9.209  0.00  0.00    +0.094 A 
ATOM      3  C   UNL     1       9.638  42.382  10.330  0.00  0.00    +0.041 A 
ATOM      4  C   UNL     1       9.897  43.809  10.583  0.00  0.00    +0.066 A 
ATOM     16  N   UNL     1      10.573  44.470   9.717  0.00  0.00    -0.257 NA
ATOM     17  C   UNL     1      11.068  43.863   8.538  0.00  0.00    +0.199 A 
ATOM     18  N   UNL     1      11.796  44.608   7.596  0.00  0.00    -0.248 N 
ATOM     19  H   UNL     1      12.192  44.083   6.803  0.00  0.00    +0.215 HD
ENDROOT
BRANCH   4   5
ATOM      5  C   UNL     1       9.373  44.499  11.795  0.00  0.00    +0.088 A 
ATOM      6  C   UNL     1       8.411  44.023  12.579  0.00  0.00    +0.001 A 
ATOM      7  C   UNL     1       8.204  45.039  13.612  0.00  0.00    +0.044 A 
ATOM     13  C   UNL     1       9.027  46.070  13.431  0.00  0.00    +0.156 A 
ATOM     14  N   UNL     1       9.775  45.771  12.300  0.00  0.00    -0.261 N 
ATOM     15  C   UNL     1      10.781  46.649  11.757  0.00  0.00    +0.222 C 
BRANCH   7   8
ATOM      8  C   UNL     1       7.216  44.943  14.692  0.00  0.00    +0.181 C 
ATOM      9  O   UNL     1       6.863  43.847  15.131  0.00  0.00    -0.398 OA
ATOM     10  N   UNL     1       6.643  46.091  15.199  0.00  0.00    -0.304 N 
ATOM     11  H   UNL     1       6.902  46.984  14.830  0.00  0.00    +0.180 HD
ATOM     12  H   UNL     1       5.969  46.030  15.935  0.00  0.00    +0.180 HD
ENDBRANCH   7   8
ENDBRANCH   4   5
BRANCH  18  20
ATOM     20  C   UNL     1      12.048  46.021   7.618  0.00  0.00    +0.085 A 
ATOM     21  C   UNL     1      11.065  47.050   8.114  0.00  0.00    +0.011 A 
ATOM     22  C   UNL     1      11.381  48.394   8.092  0.00  0.00    +0.020 A 
ATOM     31  C   UNL     1      12.711  48.803   7.567  0.00  0.00    -0.025 A 
ATOM     32  C   UNL     1      13.589  47.883   7.124  0.00  0.00    -0.005 A 
ATOM     33  C   UNL     1      13.242  46.410   7.148  0.00  0.00    +0.111 A 
BRANCH  22  23
ATOM     23  N   UNL     1      10.460  49.415   8.548  0.00  0.00    -0.307 N 
ATOM     24  C   UNL     1      11.001  50.637   9.178  0.00  0.00    +0.177 C 
ATOM     25  C   UNL     1       9.973  51.414  10.052  0.00  0.00    +0.155 C 
ATOM     26  N   UNL     1       8.648  51.483   9.413  0.00  0.00    +0.236 N 
ATOM     27  H   UNL     1       8.722  51.932   8.514  0.00  0.00    +0.203 HD
ATOM     28  C   UNL     1       7.746  52.258  10.288  0.00  0.00    +0.190 C 
ATOM     29  C   UNL     1       8.116  50.089   9.243  0.00  0.00    +0.155 C 
ATOM     30  C   UNL     1       9.008  49.241   8.305  0.00  0.00    +0.177 C 
ENDBRANCH  22  23
BRANCH  33  34
ATOM     34  O   UNL     1      14.115  45.356   6.681  0.00  0.00    -0.239 OA
BRANCH  34  35
ATOM     35  C   UNL     1      14.776  45.558   5.394  0.00  0.00    +0.542 C 
ATOM     36  F   UNL     1      15.310  44.368   4.980  0.00  0.00    -0.141 F 
ATOM     37  F   UNL     1      13.889  45.995   4.419  0.00  0.00    -0.141 F 
ATOM     38  F   UNL     1      15.788  46.467   5.519  0.00  0.00    -0.141 F 
ENDBRANCH  34  35
ENDBRANCH  33  34
ENDBRANCH  18  20
TORSDOF 6
