REMARK  Name = 3sd5_ligand
REMARK  3 active torsions:
REMARK  status: ('A' for Active; 'I' for Inactive)
REMARK    1  A    between atoms: N01_1  and  C02_2
REMARK    2  A    between atoms: C04_4  and  C26_26
REMARK    3  A    between atoms: C05_5  and  C08_8
REMARK                            x       y       z     vdW  Elec       q    Type
REMARK                         _______ _______ _______ _____ _____    ______ ____
ROOT
ATOM      8  C   UNL     1      23.721  13.474  21.022  0.00  0.00    +0.054 A 
ATOM      9  N   UNL     1      22.909  12.645  21.712  0.00  0.00    -0.266 NA
ATOM     10  C   UNL     1      21.691  13.140  22.007  0.00  0.00    +0.176 A 
ATOM     11  N   UNL     1      20.866  12.346  22.728  0.00  0.00    -0.274 N 
ATOM     12  C   UNL     1      19.420  12.593  22.809  0.00  0.00    +0.167 C 
ATOM     13  C   UNL     1      18.941  12.281  24.198  0.00  0.00    +0.184 C 
ATOM     14  O   UNL     1      19.250  10.942  24.565  0.00  0.00    -0.376 OA
ATOM     15  C   UNL     1      20.661  10.743  24.533  0.00  0.00    +0.184 C 
ATOM     16  C   UNL     1      21.226  11.000  23.161  0.00  0.00    +0.167 C 
ATOM     17  N   UNL     1      21.230  14.354  21.673  0.00  0.00    -0.240 NA
ATOM     18  C   UNL     1      22.048  15.154  20.991  0.00  0.00    +0.119 A 
ATOM     19  N   UNL     1      21.567  16.392  20.660  0.00  0.00    -0.285 N 
ATOM     20  C   UNL     1      22.411  17.469  20.147  0.00  0.00    +0.165 C 
ATOM     21  C   UNL     1      22.224  18.705  20.985  0.00  0.00    +0.184 C 
ATOM     22  O   UNL     1      20.856  19.083  21.064  0.00  0.00    -0.376 OA
ATOM     23  C   UNL     1      20.107  18.040  21.672  0.00  0.00    +0.184 C 
ATOM     24  C   UNL     1      20.165  16.778  20.863  0.00  0.00    +0.165 C 
ATOM     25  C   UNL     1      23.336  14.747  20.635  0.00  0.00    +0.065 A 
ENDROOT
BRANCH   8   7
ATOM      4  C   UNL     1      27.655  11.981  20.300  0.00  0.00    +0.142 A 
ATOM      5  N   UNL     1      27.103  11.887  21.523  0.00  0.00    -0.249 NA
ATOM      6  C   UNL     1      25.862  12.354  21.695  0.00  0.00    +0.128 A 
ATOM      7  C   UNL     1      25.078  12.935  20.716  0.00  0.00    +0.040 A 
ATOM     26  C   UNL     1      25.658  13.022  19.440  0.00  0.00    +0.065 A 
ATOM     31  C   UNL     1      26.948  12.540  19.242  0.00  0.00    +0.100 A 
BRANCH  26  27
ATOM     27  C   UNL     1      24.964  13.630  18.251  0.00  0.00    +0.383 C 
ATOM     28  F   UNL     1      23.714  13.188  18.109  0.00  0.00    -0.216 F 
ATOM     29  F   UNL     1      24.902  14.956  18.321  0.00  0.00    -0.216 F 
ATOM     30  F   UNL     1      25.579  13.366  17.111  0.00  0.00    -0.216 F 
ENDBRANCH  26  27
BRANCH   4   1
ATOM      1  N   UNL     1      28.916  11.525  20.150  0.00  0.00    -0.315 N 
ATOM      2  H   UNL     1      29.410  11.120  20.945  0.00  0.00    +0.178 HD
ATOM      3  H   UNL     1      29.375  11.586  19.241  0.00  0.00    +0.178 HD
ENDBRANCH   4   1
ENDBRANCH   8   7
TORSDOF 3
