REMARK  Name = 4QNA
REMARK  2 active torsions:
REMARK  status: ('A' for Active; 'I' for Inactive)
REMARK    1  A    between atoms: C_6  and  C_9
REMARK    2  A    between atoms: C_10  and  O_15
REMARK                            x       y       z     vdW  Elec       q    Type
REMARK                         _______ _______ _______ _____ _____    ______ ____
ROOT
ATOM      1  N   UNL     1      -0.601   1.568  16.926  0.00  0.00    -0.195 NA
ATOM      2  C   UNL     1      -1.567   2.274  16.294  0.00  0.00    +0.170 A 
ATOM     11  N   UNL     1      -1.382   3.581  16.044  0.00  0.00    -0.195 NA
ATOM     12  C   UNL     1      -0.233   4.166  16.424  0.00  0.00    +0.217 A 
ATOM     13  N   UNL     1      -0.031   5.550  16.162  0.00  0.00    -0.327 N 
ATOM     14  H   UNL     1      -0.792   6.118  15.669  0.00  0.00    +0.145 HD
ATOM     15  H   UNL     1       0.882   6.023  16.459  0.00  0.00    +0.145 HD
ATOM     16  N   UNL     1       0.731   3.463  17.045  0.00  0.00    -0.181 NA
ATOM     17  C   UNL     1       0.546   2.163  17.300  0.00  0.00    +0.217 A 
ATOM     18  N   UNL     1       1.574   1.424  17.969  0.00  0.00    -0.327 N 
ATOM     19  H   UNL     1       2.481   1.912  18.260  0.00  0.00    +0.145 HD
ATOM     20  H   UNL     1       1.436   0.384  18.178  0.00  0.00    +0.145 HD
ENDROOT
BRANCH   2   3
ATOM      3  C   UNL     1      -2.823   1.579  15.890  0.00  0.00    +0.061 A 
ATOM      4  C   UNL     1      -3.028   0.291  16.361  0.00  0.00    +0.015 A 
ATOM      5  C   UNL     1      -4.177  -0.400  16.009  0.00  0.00    +0.001 A 
ATOM      6  C   UNL     1      -5.126   0.191  15.186  0.00  0.00    +0.004 A 
ATOM      7  C   UNL     1      -4.922   1.478  14.712  0.00  0.00    +0.046 A 
ATOM      8  C   UNL     1      -3.781   2.175  15.059  0.00  0.00    +0.128 A 
BRANCH   8   9
ATOM      9  O   UNL     1      -3.613   3.450  14.556  0.00  0.00    -0.506 OA
ATOM     10  H   UNL     1      -3.531   4.132  15.350  0.00  0.00    +0.292 HD
ENDBRANCH   8   9
ENDBRANCH   2   3
TORSDOF 2
