REMARK  Name = 4cqe_ligand
REMARK  8 active torsions:
REMARK  status: ('A' for Active; 'I' for Inactive)
REMARK    1  A    between atoms: C12_8  and  S9_9
REMARK    2  A    between atoms: S9_9  and  N8_12
REMARK    3  A    between atoms: N8_12  and  C5_13
REMARK    4  A    between atoms: C1_19  and  C20_20
REMARK    5  A    between atoms: C22_22  and  C25_23
REMARK    6  A    between atoms: N28_28  and  C37_29
REMARK    7  A    between atoms: C24_33  and  C31_34
REMARK    8  A    between atoms: C41_41  and  C43_43
REMARK                            x       y       z     vdW  Elec       q    Type
REMARK                         _______ _______ _______ _____ _____    ______ ____
ROOT
ATOM     12  C   UNL     1      -1.626  50.095  21.745  0.00  0.00    +0.030 A 
ATOM     13  C   UNL     1      -2.890  50.323  21.253  0.00  0.00    +0.062 A 
ATOM     25  S   UNL     1      -3.987  49.491  22.388  0.00  0.00    +0.009 S 
ATOM     26  C   UNL     1      -2.828  49.004  23.360  0.00  0.00    +0.102 A 
ATOM     37  N   UNL     1      -1.644  49.395  22.897  0.00  0.00    -0.305 NA
ENDROOT
BRANCH  13  14
ATOM     14  C   UNL     1      -3.370  50.889  20.115  0.00  0.00    -0.010 A 
ATOM     15  C   UNL     1      -2.526  51.107  19.017  0.00  0.00    +0.007 A 
ATOM     16  C   UNL     1      -3.049  51.639  17.827  0.00  0.00    +0.062 A 
ATOM     17  N   UNL     1      -4.424  51.910  17.725  0.00  0.00    -0.293 NA
ATOM     18  C   UNL     1      -5.282  51.693  18.741  0.00  0.00    +0.132 A 
ATOM     19  N   UNL     1      -6.609  51.978  18.483  0.00  0.00    -0.220 N 
ATOM     20  H   UNL     1      -6.846  52.412  17.614  0.00  0.00    +0.231 HD
ATOM     21  C   UNL     1      -7.615  51.689  19.371  0.00  0.00    +0.204 C 
ATOM     22  C   UNL     1      -9.066  51.935  18.883  0.00  0.00    +0.174 C 
ATOM     23  O   UNL     1      -7.443  51.288  20.526  0.00  0.00    -0.383 OA
ATOM     24  C   UNL     1      -4.751  51.155  19.941  0.00  0.00    +0.042 A 
ENDBRANCH  13  14
BRANCH  12  11
ATOM      7  C   UNL     1       1.987  49.876  21.043  0.00  0.00    +0.096 A 
ATOM      8  C   UNL     1       2.323  51.204  20.782  0.00  0.00    -0.001 A 
ATOM      9  C   UNL     1       1.290  52.167  20.843  0.00  0.00    -0.028 A 
ATOM     10  C   UNL     1      -0.044  51.840  21.154  0.00  0.00    -0.028 A 
ATOM     11  C   UNL     1      -0.369  50.496  21.387  0.00  0.00    +0.003 A 
ATOM     38  C   UNL     1       0.672  49.552  21.343  0.00  0.00    +0.154 A 
ATOM     39  F   UNL     1       0.425  48.316  21.545  0.00  0.00    -0.195 F 
BRANCH   7   5
ATOM      5  N   UNL     1       2.826  48.814  21.025  0.00  0.00    -0.187 N 
ATOM      6  H   UNL     1       2.458  47.885  21.073  0.00  0.00    +0.215 HD
BRANCH   5   4
ATOM      4  S   UNL     1       4.416  49.046  20.927  0.00  0.00    +0.089 S 
ATOM     40  O   UNL     1       4.822  50.184  21.825  0.00  0.00    -0.145 OA
ATOM     41  O   UNL     1       5.177  47.753  21.175  0.00  0.00    -0.145 OA
BRANCH   4   3
ATOM      1  F   UNL     1       4.384  47.353  18.573  0.00  0.00    -0.185 F 
ATOM      2  C   UNL     1       4.794  48.602  18.251  0.00  0.00    +0.155 A 
ATOM      3  C   UNL     1       4.864  49.534  19.263  0.00  0.00    +0.145 A 
ATOM     42  C   UNL     1       5.274  50.833  18.973  0.00  0.00    +0.059 A 
ATOM     43  C   UNL     1       5.622  51.195  17.661  0.00  0.00    +0.130 A 
ATOM     44  F   UNL     1       6.035  52.521  17.349  0.00  0.00    -0.187 F 
ATOM     45  C   UNL     1       5.550  50.257  16.637  0.00  0.00    +0.030 A 
ATOM     46  C   UNL     1       5.136  48.941  16.930  0.00  0.00    +0.032 A 
ENDBRANCH   4   3
ENDBRANCH   5   4
ENDBRANCH   7   5
ENDBRANCH  12  11
BRANCH  26  27
ATOM     27  C   UNL     1      -2.993  48.186  24.648  0.00  0.00    +0.100 C 
ATOM     28  C   UNL     1      -3.442  46.732  24.317  0.00  0.00    +0.079 C 
ATOM     29  C   UNL     1      -3.684  45.934  25.606  0.00  0.00    +0.135 C 
ATOM     30  N   UNL     1      -4.458  46.697  26.635  0.00  0.00    +0.238 N 
ATOM     31  H   UNL     1      -4.063  46.273  27.460  0.00  0.00    +0.204 HD
ATOM     35  C   UNL     1      -4.039  48.095  26.905  0.00  0.00    +0.135 C 
ATOM     36  C   UNL     1      -3.959  48.890  25.606  0.00  0.00    +0.079 C 
BRANCH  30  32
ATOM     32  C   UNL     1      -5.885  46.292  26.858  0.00  0.00    +0.065 C 
ATOM     33  C   UNL     1      -6.945  46.705  25.815  0.00  0.00    +0.060 C 
ATOM     34  C   UNL     1      -6.936  47.368  27.192  0.00  0.00    +0.060 C 
ENDBRANCH  30  32
ENDBRANCH  26  27
TORSDOF 7
