REMARK  Name = AY4
REMARK  1 active torsions:
REMARK  status: ('A' for Active; 'I' for Inactive)
REMARK    1  A    between atoms: C4_2  and  C3_10
REMARK                            x       y       z     vdW  Elec       q    Type
REMARK                         _______ _______ _______ _____ _____    ______ ____
ROOT
ATOM      5  C   UNL     1     -11.442  14.171 -17.376  0.00  0.00    +0.063 A 
ATOM      6  C   UNL     1     -12.230  15.305 -17.534  0.00  0.00    +0.035 A 
ATOM      7  C   UNL     1     -11.892  16.254 -18.471  0.00  0.00    +0.143 A 
ATOM      8  F   UNL     1     -12.671  17.352 -18.613  0.00  0.00    -0.204 F 
ATOM      9  C   UNL     1     -10.773  16.120 -19.280  0.00  0.00    +0.063 A 
ATOM     10  C   UNL     1      -9.997  15.004 -19.123  0.00  0.00    +0.181 A 
ATOM     11  F   UNL     1      -8.894  14.848 -19.904  0.00  0.00    -0.201 F 
ATOM     12  C   UNL     1     -10.306  14.027 -18.190  0.00  0.00    +0.224 A 
ATOM     13  O   UNL     1      -9.495  12.940 -18.083  0.00  0.00    -0.284 OA
ENDROOT
BRANCH   5   4
ATOM      1  N   UNL     1     -11.684  11.284 -15.156  0.00  0.00    -0.146 NA
ATOM      2  C   UNL     1     -12.753  11.970 -14.770  0.00  0.00    +0.124 A 
ATOM      3  C   UNL     1     -12.869  13.141 -15.497  0.00  0.00    +0.043 A 
ATOM      4  C   UNL     1     -11.811  13.162 -16.371  0.00  0.00    +0.108 A 
ATOM     14  N   UNL     1     -11.115  12.028 -16.139  0.00  0.00    -0.148 NA
ENDBRANCH   5   4
TORSDOF 1
