REMARK  Name = 3pxy_ligand
REMARK  4 active torsions:
REMARK  status: ('A' for Active; 'I' for Inactive)
REMARK    1  A    between atoms: C5_5  and  C6_6
REMARK    2  A    between atoms: C7_7  and  O8_8
REMARK    3  A    between atoms: C11_11  and  O12_12
REMARK    4  A    between atoms: O12_12  and  C17_17
REMARK                            x       y       z     vdW  Elec       q    Type
REMARK                         _______ _______ _______ _____ _____    ______ ____
ROOT
ATOM      1  N   UNL     1      62.218  81.541 -82.363  0.00  0.00    -0.224 NA
ATOM      2  C   UNL     1      62.130  82.107 -83.620  0.00  0.00    +0.179 A 
ATOM      3  N   UNL     1      61.157  82.978 -83.919  0.00  0.00    -0.301 N 
ATOM      4  H   UNL     1      61.106  83.390 -84.862  0.00  0.00    +0.186 HD
ATOM      5  H   UNL     1      60.460  83.236 -83.206  0.00  0.00    +0.186 HD
ATOM      6  N   UNL     1      63.050  81.772 -84.574  0.00  0.00    -0.247 NA
ATOM      7  C   UNL     1      64.065  80.885 -84.302  0.00  0.00    +0.100 A 
ATOM     18  N   UNL     1      64.146  80.329 -83.044  0.00  0.00    -0.247 NA
ATOM     19  C   UNL     1      63.222  80.655 -82.075  0.00  0.00    +0.179 A 
ATOM     20  N   UNL     1      63.314  80.094 -80.850  0.00  0.00    -0.301 N 
ATOM     21  H   UNL     1      64.071  79.427 -80.645  0.00  0.00    +0.186 HD
ATOM     22  H   UNL     1      62.627  80.333 -80.121  0.00  0.00    +0.186 HD
ENDROOT
BRANCH   7   8
ATOM      8  C   UNL     1      65.067  80.515 -85.349  0.00  0.00    +0.042 A 
ATOM      9  C   UNL     1      66.106  79.585 -84.996  0.00  0.00    +0.033 A 
ATOM     10  C   UNL     1      67.131  79.153 -85.940  0.00  0.00    +0.086 A 
ATOM     13  C   UNL     1      67.047  79.718 -87.298  0.00  0.00    +0.021 A 
ATOM     14  C   UNL     1      66.008  80.654 -87.665  0.00  0.00    +0.020 A 
ATOM     15  C   UNL     1      65.021  81.060 -86.705  0.00  0.00    +0.098 A 
BRANCH  10  11
ATOM     11  O   UNL     1      68.105  78.313 -85.671  0.00  0.00    -0.327 OA
ATOM     12  C   UNL     1      69.108  77.904 -86.628  0.00  0.00    +0.229 C 
ENDBRANCH  10  11
BRANCH  15  16
ATOM     16  O   UNL     1      64.034  81.947 -87.043  0.00  0.00    -0.333 OA
ATOM     17  H   UNL     1      63.186  81.535 -86.927  0.00  0.00    +0.249 HD
ENDBRANCH  15  16
ENDBRANCH   7   8
TORSDOF 3
