REMARK  Name = F82
REMARK  9 active torsions:
REMARK  status: ('A' for Active; 'I' for Inactive)
REMARK    1  A    between atoms: C1_1  and  N_26
REMARK    2  A    between atoms: O4_4  and  C18_34
REMARK    3  A    between atoms: C7_5  and  C8_6
REMARK    4  A    between atoms: C7_5  and  C6_21
REMARK    5  A    between atoms: C11_9  and  O2_29
REMARK    6  A    between atoms: C13_11  and  O1_28
REMARK    7  A    between atoms: C15_13  and  O2_29
REMARK    8  A    between atoms: C19_15  and  O3_32
REMARK    9  A    between atoms: N2_22  and  C4_23
REMARK                            x       y       z     vdW  Elec       q    Type
REMARK                         _______ _______ _______ _____ _____    ______ ____
ROOT
ATOM     10  C   UNL     1      13.135   0.817   7.456  0.00  0.00    +0.021 A 
ATOM     11  C   UNL     1      13.810   0.829   8.671  0.00  0.00    +0.002 A 
ATOM     12  C   UNL     1      13.260   0.253   9.805  0.00  0.00    +0.037 A 
ATOM     13  C   UNL     1      12.013  -0.335   9.731  0.00  0.00    +0.150 A 
ATOM     29  C   UNL     1      11.301  -0.356   8.538  0.00  0.00    +0.074 A 
ATOM     30  C   UNL     1      11.865   0.217   7.406  0.00  0.00    +0.138 A 
ENDROOT
BRANCH  30  31
ATOM     31  O   UNL     1      11.251   0.249   6.188  0.00  0.00    -0.472 OA
ATOM     32  C   UNL     1       9.885  -0.190   6.115  0.00  0.00    +0.253 C 
ENDBRANCH  30  31
BRANCH  10   9
ATOM      9  C   UNL     1      13.741   1.447   6.219  0.00  0.00    +0.117 C 
BRANCH   9   7
ATOM      6  N   UNL     1      15.808   1.921   5.053  0.00  0.00    -0.176 NA
ATOM      7  C   UNL     1      15.230   1.206   6.052  0.00  0.00    +0.250 C 
ATOM      8  O   UNL     1      15.857   0.372   6.710  0.00  0.00    -0.273 OA
BRANCH   6   5
ATOM      3  N   UNL     1      19.201   1.121   4.373  0.00  0.00    -0.250 N 
ATOM      4  C   UNL     1      18.046   0.766   4.973  0.00  0.00    +0.113 A 
ATOM      5  C   UNL     1      17.154   1.759   4.693  0.00  0.00    +0.113 A 
ATOM     33  C   UNL     1      17.857   2.687   3.917  0.00  0.00    +0.138 A 
ATOM     34  N   UNL     1      19.106   2.305   3.716  0.00  0.00    -0.166 NA
BRANCH   3   1
ATOM      1  C   UNL     1      20.493   0.406   4.362  0.00  0.00    +0.105 C 
ATOM      2  C   UNL     1      21.138   0.502   5.726  0.00  0.00    +0.026 C 
ATOM     35  C   UNL     1      20.281  -1.039   3.958  0.00  0.00    +0.026 C 
ENDBRANCH   3   1
ENDBRANCH   6   5
ENDBRANCH   9   7
ENDBRANCH  10   9
BRANCH  13  14
ATOM     14  O   UNL     1      11.482  -0.888  10.877  0.00  0.00    -0.436 OA
BRANCH  14  15
ATOM     15  C   UNL     1      11.186  -2.214  10.959  0.00  0.00    +0.233 A 
ATOM     16  C   UNL     1      10.660  -2.616  12.222  0.00  0.00    +0.074 A 
ATOM     17  C   UNL     1      10.412  -1.779  13.341  0.00  0.00    +0.046 A 
ATOM     18  C   UNL     1       9.895  -2.309  14.493  0.00  0.00    +0.173 A 
ATOM     21  C   UNL     1       9.598  -3.693  14.573  0.00  0.00    +0.174 A 
ATOM     24  C   UNL     1       9.824  -4.514  13.501  0.00  0.00    +0.059 A 
ATOM     25  C   UNL     1      10.358  -3.995  12.302  0.00  0.00    +0.091 A 
ATOM     26  N   UNL     1      10.566  -4.858  11.259  0.00  0.00    -0.224 NA
ATOM     27  C   UNL     1      11.073  -4.307  10.160  0.00  0.00    +0.202 A 
ATOM     28  N   UNL     1      11.395  -3.027   9.946  0.00  0.00    -0.189 NA
BRANCH  18  19
ATOM     19  O   UNL     1       9.629  -1.603  15.638  0.00  0.00    -0.468 OA
ATOM     20  C   UNL     1       9.957  -0.207  15.669  0.00  0.00    +0.253 C 
ENDBRANCH  18  19
BRANCH  21  22
ATOM     22  O   UNL     1       9.088  -4.097  15.780  0.00  0.00    -0.468 OA
ATOM     23  C   UNL     1       8.754  -5.475  15.941  0.00  0.00    +0.253 C 
ENDBRANCH  21  22
ENDBRANCH  14  15
ENDBRANCH  13  14
TORSDOF 9
