REMARK  Name = 9J8
REMARK  7 active torsions:
REMARK  status: ('A' for Active; 'I' for Inactive)
REMARK    1  A    between atoms: CBF_2  and  NBE_3
REMARK    2  A    between atoms: CAZ_4  and  CAS_6
REMARK    3  A    between atoms: CAS_6  and  CBA_7
REMARK    4  A    between atoms: CAS_6  and  CAJ_10
REMARK    5  A    between atoms: CBA_7  and  CBB_8
REMARK    6  A    between atoms: CAV_21  and  OAX_22
REMARK    7  A    between atoms: CAH_26  and  CAA_27
REMARK                            x       y       z     vdW  Elec       q    Type
REMARK                         _______ _______ _______ _____ _____    ______ ____
ROOT
ATOM      9  C   UNL     1      66.248  69.058  85.646  0.00  0.00    +0.171 C 
ATOM     10  C   UNL     1      67.021  68.318  86.711  0.00  0.00    +0.170 A 
ATOM     11  N   UNL     1      66.464  67.226  87.250  0.00  0.00    -0.131 NA
ATOM     12  N   UNL     1      67.359  66.748  88.159  0.00  0.00    -0.133 NA
ATOM     13  C   UNL     1      68.467  67.539  88.142  0.00  0.00    +0.147 A 
ATOM     14  C   UNL     1      69.756  67.620  88.813  0.00  0.00    +0.074 C 
ATOM     15  N   UNL     1      68.291  68.588  87.172  0.00  0.00    -0.279 N 
ATOM     16  C   UNL     1      68.998  69.706  86.742  0.00  0.00    +0.068 A 
ATOM     17  C   UNL     1      69.757  70.612  87.563  0.00  0.00    +0.021 A 
ATOM     18  C   UNL     1      70.412  71.742  87.067  0.00  0.00    +0.038 A 
ATOM     19  C   UNL     1      70.376  72.129  85.746  0.00  0.00    +0.139 A 
ATOM     22  C   UNL     1      69.621  71.284  84.934  0.00  0.00    +0.040 A 
ATOM     23  C   UNL     1      68.933  70.134  85.329  0.00  0.00    +0.036 A 
ATOM     24  C   UNL     1      68.149  69.346  84.235  0.00  0.00    +0.078 C 
ATOM     32  N   UNL     1      66.913  68.988  84.366  0.00  0.00    -0.264 NA
ENDROOT
BRANCH  24  25
ATOM     25  C   UNL     1      68.660  69.008  82.808  0.00  0.00    +0.017 A 
ATOM     26  C   UNL     1      70.032  68.850  82.587  0.00  0.00    +0.002 A 
ATOM     27  C   UNL     1      70.550  68.520  81.329  0.00  0.00    +0.011 A 
ATOM     28  C   UNL     1      69.696  68.323  80.243  0.00  0.00    +0.058 A 
ATOM     29  C   UNL     1      68.344  68.452  80.412  0.00  0.00    +0.011 A 
ATOM     30 CL   UNL     1      70.394  67.905  78.619  0.00  0.00    -0.082 Cl
ATOM     31  C   UNL     1      67.828  68.793  81.686  0.00  0.00    +0.002 A 
ENDBRANCH  24  25
BRANCH  19  20
ATOM     20  O   UNL     1      70.976  73.233  85.220  0.00  0.00    -0.471 OA
ATOM     21  C   UNL     1      71.751  74.097  86.002  0.00  0.00    +0.253 C 
ENDBRANCH  19  20
BRANCH   9   5
ATOM      5  C   UNL     1      64.734  68.772  85.578  0.00  0.00    +0.112 C 
BRANCH   5   4
ATOM      3  N   UNL     1      62.995  69.499  83.684  0.00  0.00    -0.205 NA
ATOM      4  C   UNL     1      64.108  69.773  84.517  0.00  0.00    +0.244 C 
ATOM     33  O   UNL     1      64.644  70.853  84.391  0.00  0.00    -0.273 OA
BRANCH   3   2
ATOM      1  C   UNL     1      60.690  68.657  84.069  0.00  0.00    +0.025 C 
ATOM      2  C   UNL     1      62.146  68.329  83.662  0.00  0.00    +0.115 C 
ENDBRANCH   3   2
ENDBRANCH   5   4
BRANCH   5   6
ATOM      6  C   UNL     1      64.085  68.929  86.900  0.00  0.00    +0.038 C 
BRANCH   6   7
ATOM      7  C   UNL     1      64.526  70.001  87.842  0.00  0.00    -0.026 C 
ATOM      8  C   UNL     1      65.049  69.800  89.080  0.00  0.00    -0.005 C 
ENDBRANCH   6   7
ENDBRANCH   5   6
ENDBRANCH   9   5
TORSDOF 7
