REMARK  Name = 2cgw_ligand
REMARK  5 active torsions:
REMARK  status: ('A' for Active; 'I' for Inactive)
REMARK    1  A    between atoms: C4_6  and  C1_7
REMARK    2  A    between atoms: N7_9  and  C18_10
REMARK    3  A    between atoms: C18_10  and  C19_11
REMARK    4  A    between atoms: C19_11  and  C20_12
REMARK    5  A    between atoms: C2_14  and  C6_15
REMARK                            x       y       z     vdW  Elec       q    Type
REMARK                         _______ _______ _______ _____ _____    ______ ____
ROOT
ATOM      6  C   UNL     1       5.198  -4.892  18.219  0.00  0.00    +0.177 A 
ATOM      7  N   UNL     1       4.597  -5.907  17.584  0.00  0.00    -0.178 N 
ATOM      8  N   UNL     1       5.382  -6.467  16.798  0.00  0.00    -0.190 NA
ATOM      9  C   UNL     1       6.550  -5.820  16.853  0.00  0.00    +0.111 A 
ATOM     21  N   UNL     1       6.438  -4.834  17.739  0.00  0.00    -0.283 NA
ENDROOT
BRANCH   6   5
ATOM      1  N   UNL     1       6.531  -2.446  19.017  0.00  0.00    -0.328 N 
ATOM      2  H   UNL     1       6.949  -1.559  19.333  0.00  0.00    +0.170 HD
ATOM      3  H   UNL     1       7.030  -3.037  18.337  0.00  0.00    +0.170 HD
ATOM      4  C   UNL     1       5.333  -2.832  19.492  0.00  0.00    +0.159 A 
ATOM      5  C   UNL     1       4.664  -4.016  19.150  0.00  0.00    +0.174 A 
ATOM     22  N   UNL     1       3.493  -4.072  19.800  0.00  0.00    -0.080 NA
ATOM     23  O   UNL     1       3.424  -2.887  20.613  0.00  0.00    -0.069 OA
ATOM     24  N   UNL     1       4.611  -2.136  20.373  0.00  0.00    -0.097 NA
ENDBRANCH   6   5
BRANCH   9  10
ATOM     10  C   UNL     1       7.714  -6.107  16.152  0.00  0.00    +0.136 A 
ATOM     11  C   UNL     1       7.930  -7.270  15.403  0.00  0.00    +0.151 A 
ATOM     12  N   UNL     1       7.072  -8.278  15.216  0.00  0.00    -0.329 N 
ATOM     13  H   UNL     1       6.137  -8.245  15.648  0.00  0.00    +0.169 HD
ATOM     14  H   UNL     1       7.346  -9.087  14.640  0.00  0.00    +0.169 HD
ATOM     15  N   UNL     1       9.150  -7.251  14.876  0.00  0.00    -0.100 NA
ATOM     16  O   UNL     1       9.757  -6.043  15.288  0.00  0.00    -0.076 OA
ATOM     17  N   UNL     1       8.815  -5.347  16.094  0.00  0.00    -0.095 NA
ENDBRANCH   9  10
BRANCH   7  18
ATOM     18  C   UNL     1       3.182  -6.324  17.791  0.00  0.00    +0.200 C 
BRANCH  18  19
ATOM     19  C   UNL     1       2.941  -7.726  17.218  0.00  0.00    +0.032 C 
ATOM     20  C   UNL     1       1.458  -7.965  16.898  0.00  0.00    +0.007 C 
ENDBRANCH  18  19
ENDBRANCH   7  18
TORSDOF 4
