REMARK  Name = 4X7J
REMARK  9 active torsions:
REMARK  status: ('A' for Active; 'I' for Inactive)
REMARK    1  A    between atoms: C_1  and  N_2
REMARK    2  A    between atoms: C_12  and  C_13
REMARK    3  A    between atoms: C_14  and  N_15
REMARK    4  A    between atoms: C_16  and  C_17
REMARK    5  A    between atoms: C_20  and  C_21
REMARK    6  A    between atoms: C_21  and  N_23
REMARK    7  A    between atoms: C_28  and  O_29
REMARK    8  A    between atoms: O_29  and  C_30
REMARK    9  A    between atoms: C_31  and  C_32
REMARK                            x       y       z     vdW  Elec       q    Type
REMARK                         _______ _______ _______ _____ _____    ______ ____
ROOT
ATOM     12  C   UNL     1      26.595   8.713   2.455  0.00  0.00    +0.006 A 
ATOM     13  C   UNL     1      25.288   8.231   2.642  0.00  0.00    -0.041 A 
ATOM     14  C   UNL     1      24.594   8.496   3.827  0.00  0.00    +0.005 A 
ATOM     15  C   UNL     1      25.194   9.246   4.834  0.00  0.00    +0.015 A 
ATOM     16  C   UNL     1      26.501   9.721   4.674  0.00  0.00    +0.060 A 
ATOM     32  C   UNL     1      24.575   7.411   1.552  0.00  0.00    +0.044 C 
ATOM     33  C   UNL     1      27.201   9.467   3.478  0.00  0.00    +0.045 A 
ENDROOT
BRANCH  12  11
ATOM      1  C   UNL     1      30.714   6.782  -4.636  0.00  0.00    +0.128 C 
ATOM      2  N   UNL     1      29.894   7.996  -4.454  0.00  0.00    -0.317 N 
ATOM      3  H   UNL     1      29.792   8.671  -5.278  0.00  0.00    +0.149 HD
ATOM      4  C   UNL     1      29.271   8.291  -3.302  0.00  0.00    +0.216 A 
ATOM      5  N   UNL     1      28.707   9.508  -3.168  0.00  0.00    -0.222 NA
ATOM      6  C   UNL     1      28.080   9.871  -2.055  0.00  0.00    +0.124 A 
ATOM      7  C   UNL     1      27.988   8.977  -0.990  0.00  0.00    +0.019 A 
ATOM      8  C   UNL     1      28.572   7.721  -1.136  0.00  0.00    +0.076 A 
ATOM      9  C   UNL     1      28.499   6.805  -0.090  0.00  0.00    +0.029 A 
ATOM     10  C   UNL     1      27.845   7.152   1.093  0.00  0.00    +0.010 A 
ATOM     11  C   UNL     1      27.259   8.411   1.249  0.00  0.00    -0.015 A 
ATOM     37  C   UNL     1      27.332   9.329   0.196  0.00  0.00    +0.020 A 
ATOM     38  N   UNL     1      29.200   7.401  -2.287  0.00  0.00    -0.215 NA
ENDBRANCH  12  11
BRANCH  33  34
ATOM     34  N   UNL     1      28.445   9.933   3.333  0.00  0.00    -0.357 N 
ATOM     35  H   UNL     1      28.897  10.505   4.116  0.00  0.00    +0.142 HD
ATOM     36  H   UNL     1      28.989   9.734   2.434  0.00  0.00    +0.142 HD
ENDBRANCH  33  34
BRANCH  16  17
ATOM     17  C   UNL     1      27.112  10.561   5.815  0.00  0.00    +0.269 C 
ATOM     31  O   UNL     1      28.092  11.276   5.618  0.00  0.00    -0.268 OA
BRANCH  17  18
ATOM     18  N   UNL     1      26.473  10.458   6.986  0.00  0.00    -0.181 NA
ATOM     19  C   UNL     1      26.694  11.180   8.096  0.00  0.00    +0.039 C 
ATOM     20  C   UNL     1      25.936  10.878   9.226  0.00  0.00    +0.025 C 
ATOM     21  C   UNL     1      26.090  11.618  10.396  0.00  0.00    +0.047 C 
ATOM     22  C   UNL     1      26.990  12.690  10.441  0.00  0.00    +0.128 C 
ATOM     23  C   UNL     1      27.744  13.008   9.308  0.00  0.00    +0.079 C 
ATOM     30  C   UNL     1      27.583  12.261   8.139  0.00  0.00    +0.096 C 
BRANCH  23  24
ATOM     24  C   UNL     1      28.733  14.182   9.359  0.00  0.00    +0.417 C 
ATOM     25  F   UNL     1      29.604  13.987  10.340  0.00  0.00    -0.166 F 
ATOM     26  F   UNL     1      29.377  14.323   8.204  0.00  0.00    -0.166 F 
ATOM     27  F   UNL     1      28.061  15.294   9.601  0.00  0.00    -0.166 F 
ENDBRANCH  23  24
BRANCH  22  28
ATOM     28  O   UNL     1      27.149  13.413  11.591  0.00  0.00    -0.495 OA
ATOM     29  C   UNL     1      25.949  14.039  12.071  0.00  0.00    +0.277 C 
ENDBRANCH  22  28
ENDBRANCH  17  18
ENDBRANCH  16  17
TORSDOF 6
