REMARK  Name = 4ZTM
REMARK  8 active torsions:
REMARK  status: ('A' for Active; 'I' for Inactive)
REMARK    1  A    between atoms: C_1  and  N_7
REMARK    2  A    between atoms: C_6  and  C_10
REMARK    3  A    between atoms: N_7  and  C_11
REMARK    4  A    between atoms: N_8  and  C_20
REMARK    5  A    between atoms: C_12  and  O_16
REMARK    6  A    between atoms: C_13  and  O_17
REMARK    7  A    between atoms: C_14  and  C_18
REMARK    8  A    between atoms: C_18  and  O_19
REMARK                            x       y       z     vdW  Elec       q    Type
REMARK                         _______ _______ _______ _____ _____    ______ ____
ROOT
ATOM      1  C   UNL     1      29.350   7.739  -7.113  0.00  0.00    +0.138 C 
ATOM     16  C   UNL     1      30.066   6.875  -7.933  0.00  0.00    +0.111 C 
ATOM     26  C   UNL     1      30.106   5.405  -7.557  0.00  0.00    +0.264 C 
ATOM     27  O   UNL     1      30.687   4.489  -8.203  0.00  0.00    -0.267 OA
ATOM     28  N   UNL     1      29.403   5.077  -6.398  0.00  0.00    -0.294 N 
ATOM     29  H   UNL     1      29.387   4.056  -6.079  0.00  0.00    +0.172 HD
ATOM     30  C   UNL     1      28.707   6.043  -5.624  0.00  0.00    +0.198 C 
ATOM     31  N   UNL     1      27.998   5.647  -4.498  0.00  0.00    -0.312 N 
ATOM     32  H   UNL     1      27.323   6.396  -4.140  0.00  0.00    +0.149 HD
ATOM     36  N   UNL     1      28.697   7.284  -5.992  0.00  0.00    -0.200 NA
ENDROOT
BRANCH  16  17
ATOM     17  C   UNL     1      30.790   7.354  -9.132  0.00  0.00    +0.118 A 
ATOM     18  N   UNL     1      30.782   8.628  -9.589  0.00  0.00    -0.239 NA
ATOM     19  C   UNL     1      31.718   8.821 -10.609  0.00  0.00    +0.079 A 
ATOM     20  C   UNL     1      32.027  10.045 -11.280  0.00  0.00    +0.029 A 
ATOM     21  C   UNL     1      33.103  10.138 -12.225  0.00  0.00    +0.002 A 
ATOM     22  C   UNL     1      33.894   9.001 -12.475  0.00  0.00    +0.001 A 
ATOM     23  C   UNL     1      33.574   7.747 -11.824  0.00  0.00    +0.017 A 
ATOM     24  C   UNL     1      32.490   7.669 -10.917  0.00  0.00    +0.040 A 
ATOM     25  S   UNL     1      31.906   6.310  -9.972  0.00  0.00    -0.067 S 
ENDBRANCH  16  17
BRANCH  31  33
ATOM     33  C   UNL     1      27.978   4.441  -3.709  0.00  0.00    +0.073 C 
ATOM     34  C   UNL     1      27.838   4.673  -2.216  0.00  0.00    +0.024 C 
ATOM     35  C   UNL     1      26.692   4.052  -2.993  0.00  0.00    +0.024 C 
ENDBRANCH  31  33
BRANCH   1   2
ATOM      2  N   UNL     1      29.184   9.125  -7.302  0.00  0.00    -0.323 N 
ATOM      3  H   UNL     1      29.643   9.452  -8.211  0.00  0.00    +0.148 HD
BRANCH   2   4
ATOM      4  C   UNL     1      28.550  10.246  -6.587  0.00  0.00    +0.103 C 
ATOM      5  C   UNL     1      29.301  11.567  -6.817  0.00  0.00    +0.033 C 
ATOM      6  C   UNL     1      28.696  12.501  -5.769  0.00  0.00    +0.047 C 
ATOM     10  C   UNL     1      28.363  11.619  -4.568  0.00  0.00    +0.150 C 
ATOM     13  C   UNL     1      28.673  10.180  -5.054  0.00  0.00    +0.163 C 
BRANCH  10  11
ATOM     11  O   UNL     1      26.996  11.877  -4.155  0.00  0.00    -0.389 OA
ATOM     12  H   UNL     1      26.347  11.698  -4.961  0.00  0.00    +0.210 HD
ENDBRANCH  10  11
BRANCH  13  14
ATOM     14  O   UNL     1      27.759   9.263  -4.481  0.00  0.00    -0.387 OA
ATOM     15  H   UNL     1      26.778   9.553  -4.716  0.00  0.00    +0.210 HD
ENDBRANCH  13  14
BRANCH   6   7
ATOM      7  C   UNL     1      29.503  13.759  -5.414  0.00  0.00    +0.162 C 
BRANCH   7   8
ATOM      8  O   UNL     1      29.152  14.789  -6.336  0.00  0.00    -0.395 OA
ATOM      9  H   UNL     1      29.380  14.478  -7.313  0.00  0.00    +0.209 HD
ENDBRANCH   7   8
ENDBRANCH   6   7
ENDBRANCH   2   4
ENDBRANCH   1   2
TORSDOF 8
