REMARK  Name = 3SLS
REMARK  5 active torsions:
REMARK  status: ('A' for Active; 'I' for Inactive)
REMARK    1  A    between atoms: C_3  and  C_4
REMARK    2  A    between atoms: C_3  and  C_5
REMARK    3  A    between atoms: C_8  and  C_9
REMARK    4  A    between atoms: N_10  and  C_11
REMARK    5  A    between atoms: N_19  and  C_20
REMARK                            x       y       z     vdW  Elec       q    Type
REMARK                         _______ _______ _______ _____ _____    ______ ____
ROOT
ATOM      1  N   UNL     1     -13.330  22.658 -34.431  0.00  0.00    -0.313 N 
ATOM      2  H   UNL     1     -13.256  22.505 -35.487  0.00  0.00    +0.149 HD
ATOM      3  C   UNL     1     -12.326  22.187 -33.623  0.00  0.00    +0.236 C 
ATOM      4  O   UNL     1     -11.211  22.675 -33.646  0.00  0.00    -0.274 OA
ATOM      5  C   UNL     1     -12.722  21.062 -32.809  0.00  0.00    +0.147 C 
ATOM      6  S   UNL     1     -11.656  19.724 -32.636  0.00  0.00    -0.082 S 
ATOM      7  C   UNL     1     -12.760  18.876 -31.623  0.00  0.00    +0.111 C 
ATOM      8  N   UNL     1     -12.554  17.645 -31.077  0.00  0.00    -0.237 NA
ATOM     17  C   UNL     1     -13.911  19.616 -31.435  0.00  0.00    +0.070 C 
ATOM     29  C   UNL     1     -13.897  20.866 -32.114  0.00  0.00    -0.027 C 
ATOM     30  C   UNL     1     -15.022  21.825 -32.067  0.00  0.00    +0.041 C 
ATOM     31  C   UNL     1     -15.496  22.355 -33.410  0.00  0.00    -0.016 C 
ATOM     32  C   UNL     1     -15.693  21.256 -34.438  0.00  0.00    +0.013 C 
ATOM     33  C   UNL     1     -16.814  23.064 -33.192  0.00  0.00    +0.013 C 
ATOM     34  C   UNL     1     -14.478  23.349 -33.911  0.00  0.00    +0.110 C 
ENDROOT
BRANCH   8   9
ATOM      9  C   UNL     1     -11.435  16.811 -31.275  0.00  0.00    +0.100 A 
ATOM     10  C   UNL     1     -10.141  17.276 -31.170  0.00  0.00    +0.032 A 
ATOM     11  C   UNL     1      -9.078  16.418 -31.348  0.00  0.00    +0.017 A 
ATOM     12  C   UNL     1      -9.305  15.087 -31.632  0.00  0.00    +0.016 A 
ATOM     13  I   UNL     1      -7.697  13.793 -31.891  0.00  0.00    -0.044 I 
ATOM     14  C   UNL     1     -10.589  14.610 -31.740  0.00  0.00    +0.054 A 
ATOM     15  C   UNL     1     -11.642  15.474 -31.557  0.00  0.00    +0.150 A 
ATOM     16  F   UNL     1     -12.896  14.997 -31.655  0.00  0.00    -0.203 F 
ENDBRANCH   8   9
BRANCH  17  18
ATOM     18  C   UNL     1     -14.988  19.106 -30.624  0.00  0.00    +0.247 C 
ATOM     19  O   UNL     1     -15.284  17.920 -30.600  0.00  0.00    -0.270 OA
ATOM     20  N   UNL     1     -15.621  20.096 -29.916  0.00  0.00    -0.307 N 
ATOM     21  H   UNL     1     -15.278  21.105 -30.006  0.00  0.00    +0.149 HD
BRANCH  20  22
ATOM     22  C   UNL     1     -16.734  19.807 -29.057  0.00  0.00    +0.087 C 
ATOM     23  C   UNL     1     -18.044  20.085 -29.759  0.00  0.00    +0.025 C 
ATOM     24  C   UNL     1     -19.185  19.682 -28.845  0.00  0.00    +0.017 C 
ATOM     25  C   UNL     1     -19.116  20.462 -27.548  0.00  0.00    +0.081 C 
ATOM     26  N   UNL     1     -17.780  20.210 -26.943  0.00  0.00    -0.314 NA
ATOM     27  H   UNL     1     -17.726  20.740 -26.015  0.00  0.00    +0.122 HD
ATOM     28  C   UNL     1     -16.643  20.640 -27.793  0.00  0.00    +0.103 C 
ENDBRANCH  20  22
ENDBRANCH  17  18
TORSDOF 3
