REMARK  Name = 8F6
REMARK  4 active torsions:
REMARK  status: ('A' for Active; 'I' for Inactive)
REMARK    1  A    between atoms: C02_8  and  N15_24
REMARK    2  A    between atoms: C14_16  and  N07_22
REMARK    3  A    between atoms: C16_17  and  C19_19
REMARK    4  A    between atoms: C16_17  and  N15_24
REMARK                            x       y       z     vdW  Elec       q    Type
REMARK                         _______ _______ _______ _____ _____    ______ ____
ROOT
ATOM      1  C   UNL     1      12.843  39.631   0.807  0.00  0.00    +0.031 C 
ATOM      2  C   UNL     1      12.700  40.832  -0.165  0.00  0.00    +0.150 C 
ATOM      3  C   UNL     1      12.617  42.088   0.670  0.00  0.00    +0.247 C 
ATOM      4  N   UNL     1      11.298  42.475   1.176  0.00  0.00    -0.254 N 
ATOM      5  C   UNL     1      11.107  43.689   1.968  0.00  0.00    +0.120 C 
ATOM      6  C   UNL     1      10.095  41.684   0.786  0.00  0.00    +0.067 A 
ATOM      7  C   UNL     1       8.695  41.848   1.451  0.00  0.00    +0.018 A 
ATOM      8  C   UNL     1       7.474  41.032   0.928  0.00  0.00    +0.018 A 
ATOM      9  C   UNL     1       7.668  40.061  -0.286  0.00  0.00    +0.067 A 
ATOM     19  C   UNL     1       9.068  39.938  -0.932  0.00  0.00    +0.032 A 
ATOM     20  C   UNL     1      10.268  40.743  -0.419  0.00  0.00    +0.063 A 
ATOM     21  O   UNL     1      13.611  42.686   0.915  0.00  0.00    -0.273 OA
ATOM     22  N   UNL     1      11.582  40.618  -1.046  0.00  0.00    -0.302 N 
ENDROOT
BRANCH  22  23
ATOM     23  C   UNL     1      11.716  39.518  -1.999  0.00  0.00    +0.073 C 
ATOM     24  C   UNL     1      12.791  39.045  -2.978  0.00  0.00    +0.021 C 
ATOM     25  C   UNL     1      11.476  39.638  -3.502  0.00  0.00    +0.021 C 
ENDBRANCH  22  23
BRANCH   9  10
ATOM     10  N   UNL     1       6.569  39.253  -0.858  0.00  0.00    -0.235 NA
BRANCH  10  11
ATOM     11  C   UNL     1       6.605  38.785  -2.259  0.00  0.00    +0.115 C 
ATOM     12  C   UNL     1       7.345  37.444  -2.375  0.00  0.00    +0.028 C 
BRANCH  11  13
ATOM     13  C   UNL     1       7.180  39.777  -3.303  0.00  0.00    -0.003 A 
ATOM     14  C   UNL     1       6.898  41.288  -3.218  0.00  0.00    -0.003 A 
ATOM     15  C   UNL     1       7.469  42.244  -4.288  0.00  0.00    -0.000 A 
ATOM     16  C   UNL     1       8.331  41.702  -5.441  0.00  0.00    -0.000 A 
ATOM     17  C   UNL     1       8.619  40.194  -5.532  0.00  0.00    -0.000 A 
ATOM     18  C   UNL     1       8.048  39.239  -4.461  0.00  0.00    -0.003 A 
ENDBRANCH  11  13
ENDBRANCH  10  11
ENDBRANCH   9  10
TORSDOF 4
