REMARK  Name = 4dbn_ligand
REMARK  7 active torsions:
REMARK  status: ('A' for Active; 'I' for Inactive)
REMARK    1  A    between atoms: C5_5  and  O6_6
REMARK    2  A    between atoms: O6_6  and  C7_7
REMARK    3  A    between atoms: C14_14  and  C16_16
REMARK    4  A    between atoms: C23_23  and  N24_24
REMARK    5  A    between atoms: C25_25  and  C27_27
REMARK    6  A    between atoms: C31_31  and  C34_34
REMARK    7  A    between atoms: C34_34  and  C37_37
REMARK                            x       y       z     vdW  Elec       q    Type
REMARK                         _______ _______ _______ _____ _____    ______ ____
ROOT
ATOM      1  F   UNL     1      48.461 -32.914   9.666  0.00  0.00    -0.202 F 
ATOM      2  C   UNL     1      47.641 -33.986   9.735  0.00  0.00    +0.141 A 
ATOM      3  C   UNL     1      47.446 -34.764   8.599  0.00  0.00    +0.092 A 
ATOM     20  C   UNL     1      46.599 -35.873   8.683  0.00  0.00    +0.032 A 
ATOM     21  C   UNL     1      45.942 -36.167   9.882  0.00  0.00    +0.101 A 
ATOM     39  C   UNL     1      46.162 -35.384  11.009  0.00  0.00    -0.003 A 
ATOM     40  C   UNL     1      47.002 -34.289  10.926  0.00  0.00    +0.005 A 
ENDROOT
BRANCH   3   4
ATOM      4  N   UNL     1      48.141 -34.385   7.435  0.00  0.00    -0.234 N 
ATOM      5  H   UNL     1      48.981 -33.822   7.564  0.00  0.00    +0.224 HD
ATOM      6  C   UNL     1      47.805 -34.694   6.162  0.00  0.00    +0.239 C 
ATOM     19  O   UNL     1      46.838 -35.389   5.923  0.00  0.00    -0.373 OA
BRANCH   6   7
ATOM      7  C   UNL     1      48.643 -34.243   5.029  0.00  0.00    +0.099 A 
ATOM      8  C   UNL     1      48.091 -33.700   3.856  0.00  0.00    +0.089 A 
ATOM      9 CL   UNL     1      46.377 -33.498   3.681  0.00  0.00    -0.035 Cl
ATOM     10  C   UNL     1      48.918 -33.312   2.807  0.00  0.00    -0.003 A 
ATOM     16  C   UNL     1      50.294 -33.462   2.919  0.00  0.00    +0.054 A 
ATOM     17  C   UNL     1      50.847 -34.002   4.068  0.00  0.00    +0.043 A 
ATOM     18  C   UNL     1      50.031 -34.391   5.113  0.00  0.00    +0.076 A 
BRANCH  10  11
ATOM     11  C   UNL     1      48.316 -32.731   1.543  0.00  0.00    +0.085 C 
ATOM     14  C   UNL     1      47.565 -33.686   0.611  0.00  0.00    -0.016 C 
ATOM     15  C   UNL     1      48.920 -33.116   0.190  0.00  0.00    -0.016 C 
BRANCH  11  12
ATOM     12  C   UNL     1      47.754 -31.385   1.672  0.00  0.00    +0.056 C 
ATOM     13  N   UNL     1      47.331 -30.336   1.771  0.00  0.00    -0.314 NA
ENDBRANCH  11  12
ENDBRANCH  10  11
ENDBRANCH   6   7
ENDBRANCH   3   4
BRANCH  21  22
ATOM     22  O   UNL     1      45.131 -37.261   9.972  0.00  0.00    -0.252 OA
BRANCH  22  23
ATOM     23  C   UNL     1      43.777 -37.289  10.088  0.00  0.00    +0.174 A 
ATOM     24  N   UNL     1      43.273 -38.458  10.405  0.00  0.00    -0.266 NA
ATOM     25  C   UNL     1      41.970 -38.653  10.536  0.00  0.00    +0.107 A 
ATOM     26  S   UNL     1      41.094 -40.103  10.943  0.00  0.00    +0.045 S 
ATOM     27  C   UNL     1      39.536 -39.299  10.862  0.00  0.00    +0.212 A 
ATOM     28  N   UNL     1      38.298 -39.946  11.044  0.00  0.00    -0.190 N 
ATOM     29  H   UNL     1      37.444 -39.400  10.929  0.00  0.00    +0.244 HD
ATOM     30  C   UNL     1      38.185 -41.276  11.369  0.00  0.00    +0.221 C 
ATOM     34  O   UNL     1      39.163 -41.949  11.573  0.00  0.00    -0.378 OA
ATOM     35  N   UNL     1      39.750 -38.059  10.539  0.00  0.00    -0.309 NA
ATOM     36  C   UNL     1      41.035 -37.637  10.354  0.00  0.00    +0.024 A 
ATOM     37  C   UNL     1      41.567 -36.362  10.014  0.00  0.00    +0.012 A 
ATOM     38  C   UNL     1      42.930 -36.196   9.878  0.00  0.00    +0.044 A 
BRANCH  30  31
ATOM     31  C   UNL     1      36.893 -42.047  11.520  0.00  0.00    +0.112 C 
ATOM     32  C   UNL     1      35.564 -41.307  11.615  0.00  0.00    +0.029 C 
ATOM     33  C   UNL     1      36.134 -42.018  12.845  0.00  0.00    +0.029 C 
ENDBRANCH  30  31
ENDBRANCH  22  23
ENDBRANCH  21  22
TORSDOF 7
