REMARK  Name = 67B
REMARK  2 active torsions:
REMARK  status: ('A' for Active; 'I' for Inactive)
REMARK    1  A    between atoms: C2_2  and  C3_19
REMARK    2  A    between atoms: C9_6  and  C7_18
REMARK                            x       y       z     vdW  Elec       q    Type
REMARK                         _______ _______ _______ _____ _____    ______ ____
ROOT
ATOM      1  C   UNL     1     -14.950  -0.386  10.220  0.00  0.00    +0.004 A 
ATOM      2  C   UNL     1     -14.707  -1.029  11.423  0.00  0.00    +0.000 A 
ATOM      3  C   UNL     1     -14.292  -2.357  11.483  0.00  0.00    +0.000 A 
ATOM      4  C   UNL     1     -14.131  -3.077  10.300  0.00  0.00    +0.002 A 
ATOM     16  C   UNL     1     -14.376  -2.433   9.098  0.00  0.00    +0.005 A 
ATOM     17  C   UNL     1     -14.769  -1.094   9.033  0.00  0.00    +0.054 A 
ENDROOT
BRANCH   4   5
ATOM      5  C   UNL     1     -13.658  -4.486  10.279  0.00  0.00    +0.019 C 
ATOM      6  C   UNL     1     -12.653  -4.856  11.125  0.00  0.00    +0.078 C 
ATOM      7  N   UNL     1     -12.134  -6.118  11.137  0.00  0.00    -0.291 N 
ATOM      8  C   UNL     1     -11.034  -6.396  12.071  0.00  0.00    +0.134 C 
ATOM      9  C   UNL     1     -12.566  -7.089  10.308  0.00  0.00    +0.279 C 
ATOM     10  O   UNL     1     -12.069  -8.220  10.335  0.00  0.00    -0.265 OA
ATOM     11  C   UNL     1     -13.607  -6.804   9.408  0.00  0.00    +0.137 A 
ATOM     12  N   UNL     1     -14.251  -7.561   8.469  0.00  0.00    -0.239 NA
ATOM     13  C   UNL     1     -15.190  -6.788   7.853  0.00  0.00    +0.099 A 
ATOM     14  C   UNL     1     -15.175  -5.542   8.372  0.00  0.00    +0.022 A 
ATOM     15  C   UNL     1     -14.176  -5.514   9.366  0.00  0.00    +0.025 A 
ENDBRANCH   4   5
BRANCH  17  18
ATOM     18  C   UNL     1     -15.051  -0.456   7.727  0.00  0.00    +0.249 C 
ATOM     19  O   UNL     1     -16.109   0.129   7.612  0.00  0.00    -0.270 OA
ATOM     20  N   UNL     1     -14.212  -0.508   6.661  0.00  0.00    -0.273 N 
ATOM     21  C   UNL     1     -12.892  -1.161   6.673  0.00  0.00    +0.115 C 
ATOM     22  C   UNL     1     -14.627   0.138   5.413  0.00  0.00    +0.115 C 
ENDBRANCH  17  18
TORSDOF 2
