REMARK  Name = 3BHY
REMARK  3 active torsions:
REMARK  status: ('A' for Active; 'I' for Inactive)
REMARK    1  A    between atoms: N_3  and  C_4
REMARK    2  A    between atoms: N_12  and  C_13
REMARK    3  A    between atoms: C_23  and  C_24
REMARK                            x       y       z     vdW  Elec       q    Type
REMARK                         _______ _______ _______ _____ _____    ______ ____
ROOT
ATOM      1  C   UNL     1      14.741  19.528  31.148  0.00  0.00    +0.043 C 
ATOM      2  C   UNL     1      13.723  20.673  31.250  0.00  0.00    +0.057 C 
ATOM      3  C   UNL     1      14.385  21.932  30.772  0.00  0.00    +0.147 C 
ATOM      6  C   UNL     1      14.432  21.897  29.250  0.00  0.00    +0.009 A 
ATOM      7  C   UNL     1      15.356  22.444  28.411  0.00  0.00    +0.007 A 
ATOM      8  C   UNL     1      16.449  23.184  28.757  0.00  0.00    +0.012 A 
ATOM      9  C   UNL     1      17.255  23.619  27.754  0.00  0.00    +0.022 A 
ATOM     10  C   UNL     1      16.955  23.341  26.434  0.00  0.00    +0.061 A 
ATOM     11 CL   UNL     1      18.151  23.991  25.368  0.00  0.00    -0.082 Cl
ATOM     12  C   UNL     1      15.802  22.601  26.054  0.00  0.00    +0.083 A 
ATOM     13 CL   UNL     1      15.408  22.213  24.410  0.00  0.00    -0.080 Cl
ATOM     14  C   UNL     1      15.022  22.113  27.109  0.00  0.00    +0.070 A 
ATOM     15  N   UNL     1      13.890  21.411  27.178  0.00  0.00    -0.338 N 
ATOM     16  C   UNL     1      13.189  20.848  26.021  0.00  0.00    +0.149 C 
ATOM     17  C   UNL     1      13.516  21.229  28.451  0.00  0.00    +0.110 A 
ATOM     18  C   UNL     1      12.454  20.572  29.073  0.00  0.00    +0.261 C 
ATOM     19  O   UNL     1      11.449  20.176  28.486  0.00  0.00    -0.269 OA
ATOM     20  N   UNL     1      12.560  20.302  30.419  0.00  0.00    -0.303 N 
ATOM     21  H   UNL     1      11.748  19.791  30.893  0.00  0.00    +0.150 HD
ATOM     22  C   UNL     1      13.265  20.766  32.698  0.00  0.00    +0.043 C 
ATOM     23  C   UNL     1      12.682  19.428  33.150  0.00  0.00    +0.086 C 
ATOM     24  N   UNL     1      13.664  18.331  33.028  0.00  0.00    -0.305 NA
ATOM     25  C   UNL     1      14.786  18.488  33.977  0.00  0.00    +0.105 C 
ATOM     26  C   UNL     1      14.207  18.200  31.670  0.00  0.00    +0.086 C 
ENDROOT
BRANCH   3   4
ATOM      4  C   UNL     1      13.594  23.076  31.216  0.00  0.00    +0.073 C 
ATOM      5  N   UNL     1      12.992  23.962  31.629  0.00  0.00    -0.196 NA
ENDBRANCH   3   4
TORSDOF 1
