REMARK  Name = 5MTX
REMARK  8 active torsions:
REMARK  status: ('A' for Active; 'I' for Inactive)
REMARK    1  A    between atoms: N_6  and  C_7
REMARK    2  A    between atoms: C_7  and  C_8
REMARK    3  A    between atoms: C_8  and  N_9
REMARK    4  A    between atoms: C_10  and  C_12
REMARK    5  A    between atoms: C_27  and  N_28
REMARK    6  A    between atoms: N_28  and  C_29
REMARK    7  A    between atoms: C_35  and  N_36
REMARK    8  A    between atoms: C_37  and  C_39
REMARK                            x       y       z     vdW  Elec       q    Type
REMARK                         _______ _______ _______ _____ _____    ______ ____
ROOT
ATOM      8  C   UNL     1      20.142   5.855 -26.439  0.00  0.00    +0.037 A 
ATOM      9  C   UNL     1      19.181   6.453 -25.622  0.00  0.00    +0.013 A 
ATOM     10  C   UNL     1      18.320   5.630 -24.853  0.00  0.00    +0.008 A 
ATOM     11  C   UNL     1      18.418   4.235 -24.908  0.00  0.00    +0.001 A 
ATOM     12  C   UNL     1      17.554   3.491 -24.066  0.00  0.00    +0.265 C 
ATOM     13  O   UNL     1      18.427   2.986 -22.965  0.00  0.00    -0.487 OA
ATOM     14  C   UNL     1      19.214   1.897 -23.268  0.00  0.00    +0.134 A 
ATOM     15  C   UNL     1      19.696   1.499 -24.526  0.00  0.00    +0.064 A 
ATOM     16  C   UNL     1      20.378   0.259 -24.535  0.00  0.00    +0.017 A 
ATOM     17  C   UNL     1      20.663  -0.487 -23.392  0.00  0.00    +0.024 A 
ATOM     18  C   UNL     1      20.240  -0.023 -22.155  0.00  0.00    +0.035 A 
ATOM     38  C   UNL     1      19.577   2.230 -25.732  0.00  0.00    +0.197 C 
ATOM     39  O   UNL     1      19.883   1.749 -26.825  0.00  0.00    -0.286 OA
ATOM     40  C   UNL     1      19.490   1.174 -22.130  0.00  0.00    +0.069 A 
ATOM     41  C   UNL     1      19.388   3.632 -25.689  0.00  0.00    +0.029 A 
ATOM     42  C   UNL     1      20.245   4.440 -26.461  0.00  0.00    +0.025 A 
ENDROOT
BRANCH   8   7
ATOM      5  N   UNL     1      21.290   7.890 -26.879  0.00  0.00    -0.310 N 
ATOM      6  H   UNL     1      20.799   8.279 -26.012  0.00  0.00    +0.149 HD
ATOM      7  C   UNL     1      21.060   6.646 -27.244  0.00  0.00    +0.244 C 
ATOM     43  O   UNL     1      21.669   6.181 -28.210  0.00  0.00    -0.270 OA
BRANCH   5   4
ATOM      4  C   UNL     1      22.221   8.771 -27.649  0.00  0.00    +0.120 C 
BRANCH   4   3
ATOM      3  C   UNL     1      21.850  10.233 -27.398  0.00  0.00    +0.103 C 
BRANCH   3   2
ATOM      1  C   UNL     1      20.318  12.019 -27.263  0.00  0.00    +0.112 C 
ATOM      2  N   UNL     1      20.417  10.570 -27.599  0.00  0.00    -0.296 NA
ATOM     44  C   UNL     1      19.779  10.081 -28.868  0.00  0.00    +0.112 C 
ATOM     45  C   UNL     1      20.038  11.090 -29.979  0.00  0.00    +0.175 C 
ATOM     46  O   UNL     1      19.375  12.294 -29.543  0.00  0.00    -0.377 OA
ATOM     47  C   UNL     1      19.543  12.865 -28.183  0.00  0.00    +0.175 C 
ENDBRANCH   3   2
ENDBRANCH   4   3
ENDBRANCH   5   4
ENDBRANCH   8   7
BRANCH  18  19
ATOM     19  N   UNL     1      20.436  -0.661 -20.939  0.00  0.00    -0.314 N 
ATOM     20  H   UNL     1      19.982  -0.196 -20.089  0.00  0.00    +0.152 HD
BRANCH  19  21
ATOM     21  C   UNL     1      21.144  -1.823 -20.686  0.00  0.00    +0.033 A 
ATOM     22  C   UNL     1      22.421  -2.127 -21.226  0.00  0.00    +0.026 A 
ATOM     23  C   UNL     1      23.080  -3.305 -20.864  0.00  0.00    +0.042 A 
ATOM     24  C   UNL     1      22.505  -4.159 -19.970  0.00  0.00    +0.145 A 
ATOM     25  C   UNL     1      21.215  -3.897 -19.416  0.00  0.00    +0.071 A 
ATOM     36  F   UNL     1      23.127  -5.245 -19.653  0.00  0.00    -0.203 F 
ATOM     37  C   UNL     1      20.561  -2.763 -19.784  0.00  0.00    +0.049 A 
BRANCH  25  26
ATOM     26  N   UNL     1      20.752  -4.764 -18.497  0.00  0.00    -0.279 N 
ATOM     27  H   UNL     1      21.421  -5.124 -17.743  0.00  0.00    +0.155 HD
ATOM     28  C   UNL     1      19.450  -5.203 -18.494  0.00  0.00    +0.248 C 
ATOM     35  O   UNL     1      18.610  -4.873 -19.321  0.00  0.00    -0.270 OA
BRANCH  28  29
ATOM     29  C   UNL     1      19.038  -6.063 -17.467  0.00  0.00    +0.037 A 
ATOM     30  C   UNL     1      18.304  -7.217 -17.791  0.00  0.00    +0.013 A 
ATOM     31  C   UNL     1      17.886  -8.075 -16.738  0.00  0.00    +0.001 A 
ATOM     32  C   UNL     1      18.151  -7.753 -15.383  0.00  0.00    +0.000 A 
ATOM     33  C   UNL     1      18.876  -6.602 -15.094  0.00  0.00    +0.001 A 
ATOM     34  C   UNL     1      19.303  -5.784 -16.143  0.00  0.00    +0.013 A 
ENDBRANCH  28  29
ENDBRANCH  25  26
ENDBRANCH  19  21
ENDBRANCH  18  19
TORSDOF 8
