REMARK  Name = 2j6m_ligand
REMARK  8 active torsions:
REMARK  status: ('A' for Active; 'I' for Inactive)
REMARK    1  A    between atoms: NBF_3  and  CAN_4
REMARK    2  A    between atoms: CAN_4  and  CAA_5
REMARK    3  A    between atoms: NBG_8  and  CAS_9
REMARK    4  A    between atoms: CAS_9  and  CAX_10
REMARK    5  A    between atoms: CAY_15  and  CBA_16
REMARK    6  A    between atoms: NAV_25  and  CBE_26
REMARK    7  A    between atoms: CBE_26  and  CAB_27
REMARK    8  A    between atoms: CBE_26  and  CAZ_28
REMARK                            x       y       z     vdW  Elec       q    Type
REMARK                         _______ _______ _______ _____ _____    ______ ____
ROOT
ATOM      9  C   UNL     1     -52.328   0.373 -19.696  0.00  0.00    +0.063 A 
ATOM     10  C   UNL     1     -51.957  -0.218 -20.822  0.00  0.00    -0.011 A 
ATOM     11  C   UNL     1     -52.763   0.189 -21.783  0.00  0.00    +0.047 A 
ATOM     12  C   UNL     1     -52.863  -0.078 -23.129  0.00  0.00    +0.122 A 
ATOM     13  N   UNL     1     -52.034  -0.909 -23.725  0.00  0.00    -0.288 N 
ATOM     14  H   UNL     1     -51.192  -1.254 -23.242  0.00  0.00    +0.189 HD
ATOM     23  N   UNL     1     -53.817   0.509 -23.843  0.00  0.00    -0.273 NA
ATOM     24  C   UNL     1     -54.659   1.343 -23.276  0.00  0.00    +0.148 A 
ATOM     25  N   UNL     1     -54.587   1.623 -21.992  0.00  0.00    -0.277 NA
ATOM     26  C   UNL     1     -53.653   1.065 -21.225  0.00  0.00    +0.136 A 
ATOM     27  N   UNL     1     -53.366   1.159 -19.940  0.00  0.00    -0.262 N 
ATOM     28  H   UNL     1     -53.861   1.741 -19.249  0.00  0.00    +0.228 HD
ENDROOT
BRANCH   9   8
ATOM      5  C   UNL     1     -50.505  -0.085 -15.990  0.00  0.00    +0.002 A 
ATOM      6  C   UNL     1     -50.077  -0.831 -17.069  0.00  0.00    +0.001 A 
ATOM      7  C   UNL     1     -50.679  -0.680 -18.307  0.00  0.00    +0.002 A 
ATOM      8  C   UNL     1     -51.722   0.209 -18.463  0.00  0.00    -0.002 A 
ATOM     29  C   UNL     1     -52.151   0.955 -17.383  0.00  0.00    +0.002 A 
ATOM     30  C   UNL     1     -51.545   0.807 -16.147  0.00  0.00    +0.001 A 
BRANCH   5   4
ATOM      4  C   UNL     1     -49.846  -0.252 -14.626  0.00  0.00    +0.199 C 
BRANCH   4   2
ATOM      1  C   UNL     1     -50.782  -0.692 -12.413  0.00  0.00    +0.185 C 
ATOM      2  N   UNL     1     -50.695  -1.126 -13.811  0.00  0.00    +0.255 N 
ATOM      3  H   UNL     1     -51.626  -1.057 -14.192  0.00  0.00    +0.205 HD
ATOM     31  C   UNL     1     -50.300  -2.534 -13.918  0.00  0.00    +0.185 C 
ATOM     32  C   UNL     1     -48.997  -2.772 -13.170  0.00  0.00    +0.183 C 
ATOM     33  N   UNL     1     -49.186  -2.434 -11.762  0.00  0.00    +0.242 N 
ATOM     34  H   UNL     1     -48.343  -2.638 -11.248  0.00  0.00    +0.204 HD
ATOM     37  C   UNL     1     -49.483  -1.004 -11.676  0.00  0.00    +0.183 C 
BRANCH  33  35
ATOM     35  C   UNL     1     -50.295  -3.212 -11.202  0.00  0.00    +0.128 C 
ATOM     36  C   UNL     1     -50.325  -3.034  -9.685  0.00  0.00    +0.060 C 
ENDBRANCH  33  35
ENDBRANCH   4   2
ENDBRANCH   5   4
ENDBRANCH   9   8
BRANCH  13  15
ATOM     15  C   UNL     1     -52.341  -1.327 -25.089  0.00  0.00    +0.145 C 
ATOM     22  C   UNL     1     -51.287  -2.308 -25.573  0.00  0.00    +0.051 C 
BRANCH  15  16
ATOM     16  C   UNL     1     -52.344  -0.122 -26.001  0.00  0.00    -0.018 A 
ATOM     17  C   UNL     1     -52.467  -0.292 -27.368  0.00  0.00    -0.002 A 
ATOM     18  C   UNL     1     -52.472   0.811 -28.203  0.00  0.00    -0.009 A 
ATOM     19  C   UNL     1     -52.355   2.079 -27.671  0.00  0.00    -0.013 A 
ATOM     20  C   UNL     1     -52.230   2.245 -26.305  0.00  0.00    -0.009 A 
ATOM     21  C   UNL     1     -52.224   1.144 -25.467  0.00  0.00    -0.002 A 
ENDBRANCH  15  16
ENDBRANCH  13  15
TORSDOF 6
