REMARK  Name = 6FD
REMARK  0 active torsions:
REMARK  status: ('A' for Active; 'I' for Inactive)
REMARK                            x       y       z     vdW  Elec       q    Type
REMARK                         _______ _______ _______ _____ _____    ______ ____
ROOT
ATOM      1  C   UNL     1      -5.980  26.339  -8.171  0.00  0.00    +0.004 A 
ATOM      2  C   UNL     1      -5.936  27.700  -7.868  0.00  0.00    +0.054 A 
ATOM      3  C   UNL     1      -5.817  28.324  -6.612  0.00  0.00    +0.249 C 
ATOM      4  N   UNL     1      -5.802  29.624  -6.411  0.00  0.00    -0.088 NA
ATOM      5  C   UNL     1      -5.905  30.390  -7.494  0.00  0.00    +0.478 C 
ATOM      6  N   UNL     1      -5.835  31.720  -7.305  0.00  0.00    +0.147 NA
ATOM      7  N   UNL     1      -6.024  29.955  -8.742  0.00  0.00    -0.034 NA
ATOM      8  C   UNL     1      -6.029  28.620  -8.939  0.00  0.00    +0.164 A 
ATOM      9  C   UNL     1      -6.147  28.149 -10.282  0.00  0.00    +0.121 A 
ATOM     10  C   UNL     1      -6.136  26.775 -10.550  0.00  0.00    +0.022 A 
ATOM     11  C   UNL     1      -6.149  26.244 -11.859  0.00  0.00    +0.022 A 
ATOM     12  C   UNL     1      -6.114  24.898 -12.037  0.00  0.00    +0.099 A 
ATOM     13  N   UNL     1      -6.059  24.012 -11.043  0.00  0.00    -0.242 NA
ATOM     14  C   UNL     1      -6.029  24.487  -9.800  0.00  0.00    +0.099 A 
ATOM     15  N   UNL     1      -6.227  29.009 -11.292  0.00  0.00    -0.125 NA
ATOM     16  C   UNL     1      -6.070  25.861  -9.476  0.00  0.00    +0.021 A 
ENDROOT
TORSDOF 0
