REMARK  Name = 5DHJ
REMARK  2 active torsions:
REMARK  status: ('A' for Active; 'I' for Inactive)
REMARK    1  A    between atoms: C_2  and  C_6
REMARK    2  A    between atoms: C_9  and  C_11
REMARK                            x       y       z     vdW  Elec       q    Type
REMARK                         _______ _______ _______ _____ _____    ______ ____
ROOT
ATOM      1  C   UNL     1      22.575  35.448   0.375  0.00  0.00    +0.040 A 
ATOM      2  C   UNL     1      22.303  34.344   1.193  0.00  0.00    +0.073 A 
ATOM      9  N   UNL     1      22.471  34.402   2.511  0.00  0.00    -0.253 NA
ATOM     10  C   UNL     1      22.890  35.489   3.117  0.00  0.00    +0.139 A 
ATOM     11  C   UNL     1      23.193  36.639   2.397  0.00  0.00    +0.084 A 
ATOM     12  N   UNL     1      23.651  37.883   2.757  0.00  0.00    -0.275 N 
ATOM     13  H   UNL     1      23.865  38.212   3.752  0.00  0.00    +0.189 HD
ATOM     14  N   UNL     1      23.788  38.647   1.585  0.00  0.00    -0.178 NA
ATOM     15  C   UNL     1      23.427  37.940   0.544  0.00  0.00    +0.068 A 
ATOM     16  C   UNL     1      23.471  38.453  -0.882  0.00  0.00    +0.068 C 
ATOM     17  C   UNL     1      23.033  36.640   0.986  0.00  0.00    +0.026 A 
ENDROOT
BRANCH   2   3
ATOM      3  C   UNL     1      21.829  33.045   0.655  0.00  0.00    +0.018 A 
ATOM      4  C   UNL     1      21.310  32.089   1.539  0.00  0.00    +0.120 A 
ATOM      5  N   UNL     1      20.895  30.917   1.091  0.00  0.00    -0.263 NA
ATOM      6  C   UNL     1      20.950  30.606  -0.198  0.00  0.00    +0.111 A 
ATOM      7  C   UNL     1      21.463  31.495  -1.135  0.00  0.00    +0.020 A 
ATOM      8  C   UNL     1      21.914  32.744  -0.713  0.00  0.00    +0.013 A 
ENDBRANCH   2   3
TORSDOF 1
