REMARK  Name = 2VZ6
REMARK  7 active torsions:
REMARK  status: ('A' for Active; 'I' for Inactive)
REMARK    1  A    between atoms: N_20  and  O_21
REMARK    2  A    between atoms: O_21  and  C_22
REMARK    3  A    between atoms: C_22  and  C_23
REMARK    4  A    between atoms: C_23  and  C_24
REMARK    5  A    between atoms: C_24  and  O_25
REMARK    6  A    between atoms: C_24  and  C_26
REMARK    7  A    between atoms: C_26  and  O_27
REMARK                            x       y       z     vdW  Elec       q    Type
REMARK                         _______ _______ _______ _____ _____    ______ ____
ROOT
ATOM      1  O   UNL     1      53.592  58.873  20.647  0.00  0.00    -0.270 OA
ATOM      2  C   UNL     1      53.146  60.082  20.575  0.00  0.00    +0.251 C 
ATOM      3  N   UNL     1      53.103  60.855  21.657  0.00  0.00    -0.281 N 
ATOM      4  H   UNL     1      53.385  60.579  22.651  0.00  0.00    +0.155 HD
ATOM      5  C   UNL     1      52.634  62.055  21.256  0.00  0.00    +0.042 A 
ATOM      6  C   UNL     1      52.429  63.212  22.004  0.00  0.00    +0.024 A 
ATOM      7  C   UNL     1      51.966  64.372  21.409  0.00  0.00    +0.002 A 
ATOM      8  C   UNL     1      51.728  64.386  20.045  0.00  0.00    +0.001 A 
ATOM      9  C   UNL     1      51.943  63.255  19.286  0.00  0.00    +0.010 A 
ATOM     10  C   UNL     1      52.398  62.053  19.870  0.00  0.00    +0.010 A 
ATOM     11  C   UNL     1      52.744  60.753  19.411  0.00  0.00    +0.069 C 
ATOM     12  C   UNL     1      52.707  60.107  18.182  0.00  0.00    +0.074 C 
ATOM     13  N   UNL     1      53.101  58.823  18.108  0.00  0.00    -0.312 N 
ATOM     14  H   UNL     1      53.466  58.246  18.932  0.00  0.00    +0.152 HD
ATOM     15  C   UNL     1      52.969  58.367  16.842  0.00  0.00    +0.041 A 
ATOM     16  C   UNL     1      53.231  57.109  16.293  0.00  0.00    +0.024 A 
ATOM     17  C   UNL     1      53.034  56.904  14.930  0.00  0.00    +0.002 A 
ATOM     18  C   UNL     1      52.555  57.939  14.122  0.00  0.00    +0.001 A 
ATOM     19  C   UNL     1      52.274  59.189  14.675  0.00  0.00    +0.012 A 
ATOM     20  C   UNL     1      52.486  59.401  16.039  0.00  0.00    +0.026 A 
ATOM     21  C   UNL     1      52.322  60.492  16.893  0.00  0.00    +0.133 C 
ATOM     22  N   UNL     1      51.884  61.721  16.538  0.00  0.00    -0.083 NA
ENDROOT
BRANCH  22  23
ATOM     23  O   UNL     1      51.572  62.185  15.213  0.00  0.00    -0.393 OA
BRANCH  23  24
ATOM     24  C   UNL     1      51.384  63.595  15.010  0.00  0.00    +0.265 C 
BRANCH  24  25
ATOM     25  C   UNL     1      49.955  64.006  15.369  0.00  0.00    +0.077 C 
BRANCH  25  26
ATOM     26  C   UNL     1      49.843  65.290  16.208  0.00  0.00    +0.143 C 
BRANCH  26  30
ATOM     30  O   UNL     1      51.059  66.052  16.165  0.00  0.00    -0.389 OA
ATOM     31  H   UNL     1      51.849  65.474  16.545  0.00  0.00    +0.210 HD
ENDBRANCH  26  30
BRANCH  26  27
ATOM     27  C   UNL     1      48.677  66.132  15.674  0.00  0.00    +0.187 C 
BRANCH  27  28
ATOM     28  O   UNL     1      48.292  67.208  16.550  0.00  0.00    -0.393 OA
ATOM     29  H   UNL     1      47.995  66.816  17.478  0.00  0.00    +0.209 HD
ENDBRANCH  27  28
ENDBRANCH  26  27
ENDBRANCH  25  26
ENDBRANCH  24  25
ENDBRANCH  23  24
ENDBRANCH  22  23
TORSDOF 7
