REMARK  Name = 3mw1_ligand
REMARK  4 active torsions:
REMARK  status: ('A' for Active; 'I' for Inactive)
REMARK    1  A    between atoms: CAD_4  and  CAI_9
REMARK    2  A    between atoms: CAM_13  and  CBB_28
REMARK    3  A    between atoms: NAQ_17  and  OBA_27
REMARK    4  A    between atoms: CAR_18  and  CAS_19
REMARK                            x       y       z     vdW  Elec       q    Type
REMARK                         _______ _______ _______ _____ _____    ______ ____
ROOT
ATOM      7  C   UNL     1      20.180  12.158  31.227  0.00  0.00    +0.048 A 
ATOM      8  C   UNL     1      20.832  13.294  31.714  0.00  0.00    +0.103 A 
ATOM      9  C   UNL     1      22.198  13.245  31.996  0.00  0.00    +0.075 A 
ATOM     18  N   UNL     1      22.878  12.095  31.789  0.00  0.00    -0.241 NA
ATOM     19  C   UNL     1      22.270  10.971  31.336  0.00  0.00    +0.121 A 
ATOM     20  C   UNL     1      23.027   9.812  31.142  0.00  0.00    +0.139 A 
ATOM     29  N   UNL     1      22.430   8.682  30.707  0.00  0.00    -0.191 N 
ATOM     32  C   UNL     1      21.124   8.658  30.436  0.00  0.00    +0.163 A 
ATOM     33  C   UNL     1      20.331   9.792  30.593  0.00  0.00    +0.112 A 
ATOM     34  C   UNL     1      20.903  10.976  31.051  0.00  0.00    +0.064 A 
ENDROOT
BRANCH   7   6
ATOM      1  C   UNL     1      15.966  12.287  30.797  0.00  0.00    +0.153 A 
ATOM      2  F   UNL     1      14.632  12.273  30.731  0.00  0.00    -0.167 F 
ATOM      3  C   UNL     1      16.556  11.561  31.799  0.00  0.00    +0.091 A 
ATOM      4  C   UNL     1      17.926  11.550  31.887  0.00  0.00    +0.167 A 
ATOM      5  F   UNL     1      18.477  10.832  32.867  0.00  0.00    -0.167 F 
ATOM      6  C   UNL     1      18.723  12.239  30.993  0.00  0.00    +0.059 A 
ATOM     35  C   UNL     1      18.139  12.989  29.989  0.00  0.00    +0.039 A 
ATOM     36  C   UNL     1      16.749  13.001  29.889  0.00  0.00    +0.053 A 
ENDBRANCH   7   6
BRANCH   9  10
ATOM     10  C   UNL     1      22.927  14.441  32.469  0.00  0.00    +0.083 C 
ATOM     11  C   UNL     1      23.110  15.311  31.229  0.00  0.00    +0.075 C 
ATOM     12  C   UNL     1      24.052  16.489  31.434  0.00  0.00    +0.132 C 
ATOM     13  N   UNL     1      25.257  16.094  32.137  0.00  0.00    +0.227 N 
ATOM     14  H   UNL     1      25.654  16.972  32.473  0.00  0.00    +0.201 HD
ATOM     15  H   UNL     1      25.769  15.525  31.463  0.00  0.00    +0.201 HD
ATOM     16  C   UNL     1      25.171  15.260  33.322  0.00  0.00    +0.132 C 
ATOM     17  C   UNL     1      24.277  14.046  33.075  0.00  0.00    +0.075 C 
ENDBRANCH   9  10
BRANCH  20  21
ATOM     21  C   UNL     1      24.474   9.839  31.508  0.00  0.00    +0.070 A 
ATOM     22  C   UNL     1      24.805   9.259  32.727  0.00  0.00    +0.076 A 
ATOM     23 CL   UNL     1      23.527   8.504  33.750  0.00  0.00    -0.053 Cl
ATOM     24  C   UNL     1      26.121   9.243  33.168  0.00  0.00    +0.041 A 
ATOM     25  C   UNL     1      27.114   9.823  32.397  0.00  0.00    +0.035 A 
ATOM     26  C   UNL     1      26.781  10.415  31.186  0.00  0.00    +0.041 A 
ATOM     27  C   UNL     1      25.464  10.426  30.756  0.00  0.00    +0.076 A 
ATOM     28 CL   UNL     1      25.063  11.193  29.206  0.00  0.00    -0.053 Cl
ENDBRANCH  20  21
BRANCH  29  30
ATOM     30  O   UNL     1      23.169   7.481  30.501  0.00  0.00    -0.255 OA
ATOM     31  H   UNL     1      22.577   6.791  30.193  0.00  0.00    +0.276 HD
ENDBRANCH  29  30
TORSDOF 4
