REMARK  Name = 6R4B
REMARK  2 active torsions:
REMARK  status: ('A' for Active; 'I' for Inactive)
REMARK    1  A    between atoms: C4_3  and  C3_12
REMARK    2  A    between atoms: C7_6  and  C8_7
REMARK                            x       y       z     vdW  Elec       q    Type
REMARK                         _______ _______ _______ _____ _____    ______ ____
ROOT
ATOM      1  N   UNL     1      -9.715  11.161 -21.126  0.00  0.00    -0.100 NA
ATOM      2  C   UNL     1      -9.512  10.306 -20.079  0.00  0.00    +0.650 A 
ATOM      3  O   UNL     1      -9.311   9.115 -20.280  0.00  0.00    -0.550 OA
ATOM      4  N   UNL     1      -9.534  10.840 -18.859  0.00  0.00    -0.400 NA
ATOM      5  C   UNL     1      -9.738  12.253 -18.527  0.00  0.00    +0.100 A 
ATOM      6  C   UNL     1     -10.068  13.085 -19.761  0.00  0.00    +0.000 A 
ATOM     20  C   UNL     1      -9.991  12.512 -20.998  0.00  0.00    +0.050 A 
ATOM     21  C   UNL     1     -10.137  13.188 -22.326  0.00  0.00    -0.150 C 
ENDROOT
BRANCH   5  12
ATOM     12  C   UNL     1     -10.722  12.404 -17.368  0.00  0.00    +0.000 A 
ATOM     13  C   UNL     1     -12.021  12.853 -17.572  0.00  0.00    -0.130 A 
ATOM     14  C   UNL     1     -12.877  13.009 -16.498  0.00  0.00    -0.130 A 
ATOM     15  C   UNL     1     -12.426  12.698 -15.245  0.00  0.00    +0.300 A 
ATOM     16  C   UNL     1     -11.156  12.242 -15.008  0.00  0.00    -0.130 A 
ATOM     17  F   UNL     1     -13.261  12.846 -14.186  0.00  0.00    -0.300 F 
ATOM     18  C   UNL     1     -10.314  12.108 -16.081  0.00  0.00    +0.300 A 
ATOM     19  F   UNL     1      -9.060  11.659 -15.853  0.00  0.00    -0.300 F 
ENDBRANCH   5  12
BRANCH   6   7
ATOM      7  C   UNL     1     -10.506  14.506 -19.583  0.00  0.00    +0.600 C 
ATOM      8  O   UNL     1     -11.381  14.961 -20.326  0.00  0.00    -0.550 OA
ATOM      9  N   UNL     1      -9.995  15.317 -18.632  0.00  0.00    -0.250 N 
ATOM     10  C   UNL     1      -8.802  15.184 -17.805  0.00  0.00    -0.050 C 
ATOM     11  C   UNL     1     -10.687  16.579 -18.408  0.00  0.00    -0.050 C 
ENDBRANCH   6   7
TORSDOF 2
