REMARK  Name = GJ7
REMARK  6 active torsions:
REMARK  status: ('A' for Active; 'I' for Inactive)
REMARK    1  A    between atoms: C2_2  and  C4_24
REMARK    2  A    between atoms: C21_13  and  O18_30
REMARK    3  A    between atoms: C24_15  and  O28_18
REMARK    4  A    between atoms: C27_17  and  C32_21
REMARK    5  A    between atoms: O28_18  and  C33_22
REMARK    6  A    between atoms: C17_29  and  O18_30
REMARK                            x       y       z     vdW  Elec       q    Type
REMARK                         _______ _______ _______ _____ _____    ______ ____
ROOT
ATOM      3  C   UNL     1     -12.248  11.271   1.547  0.00  0.00    +0.226 C 
ATOM      4  N   UNL     1     -12.649  10.095   2.125  0.00  0.00    -0.278 N 
ATOM      5  C   UNL     1     -13.745   9.881   3.091  0.00  0.00    +0.113 C 
ATOM      6  C   UNL     1     -13.753   8.347   3.280  0.00  0.00    +0.096 C 
ATOM      7  C   UNL     1     -12.251   8.077   3.171  0.00  0.00    +0.043 C 
ATOM      8  N   UNL     1     -14.148   7.782   2.006  0.00  0.00    -0.291 N 
ATOM      9  C   UNL     1     -15.328   7.026   1.779  0.00  0.00    +0.135 A 
ATOM     10  N   UNL     1     -16.098   6.655   2.855  0.00  0.00    -0.196 NA
ATOM     11  C   UNL     1     -17.250   5.948   2.659  0.00  0.00    +0.235 A 
ATOM     26  C   UNL     1     -17.680   5.572   1.286  0.00  0.00    +0.110 A 
ATOM     30  C   UNL     1     -16.871   5.965   0.212  0.00  0.00    +0.012 A 
ATOM     31  C   UNL     1     -15.687   6.676   0.459  0.00  0.00    +0.035 A 
ATOM     32  C   UNL     1     -13.153   8.107   0.973  0.00  0.00    +0.112 C 
ATOM     33  C   UNL     1     -12.066   8.756   1.832  0.00  0.00    +0.097 C 
ATOM     34  O   UNL     1     -11.377  11.297   0.691  0.00  0.00    -0.275 OA
ENDROOT
BRANCH  26  27
ATOM     27  C   UNL     1     -18.973   4.822   1.012  0.00  0.00    +0.289 C 
ATOM     28  N   UNL     1     -20.091   4.862   1.886  0.00  0.00    -0.084 NA
ATOM     29  O   UNL     1     -19.043   4.201  -0.087  0.00  0.00    -0.267 OA
ENDBRANCH  26  27
BRANCH   3   2
ATOM      1  C   UNL     1     -12.782  13.726   0.770  0.00  0.00    +0.010 C 
ATOM      2  C   UNL     1     -12.867  12.639   1.918  0.00  0.00    +0.085 C 
ENDBRANCH   3   2
BRANCH  11  12
ATOM     12  O   UNL     1     -18.043   5.484   3.702  0.00  0.00    -0.436 OA
BRANCH  12  13
ATOM     13  C   UNL     1     -18.040   5.788   5.067  0.00  0.00    +0.147 A 
ATOM     14  C   UNL     1     -18.347   4.771   5.989  0.00  0.00    +0.041 A 
ATOM     15  C   UNL     1     -18.453   5.059   7.375  0.00  0.00    +0.041 A 
ATOM     16  C   UNL     1     -18.287   6.377   7.828  0.00  0.00    +0.145 A 
ATOM     24  C   UNL     1     -17.981   7.382   6.897  0.00  0.00    +0.041 A 
ATOM     25  C   UNL     1     -17.871   7.098   5.514  0.00  0.00    +0.041 A 
BRANCH  16  17
ATOM     17  O   UNL     1     -18.399   6.664   9.212  0.00  0.00    -0.454 OA
BRANCH  17  18
ATOM     18  C   UNL     1     -19.562   7.286   9.690  0.00  0.00    +0.145 A 
ATOM     19  C   UNL     1     -19.609   7.706  11.025  0.00  0.00    +0.037 A 
ATOM     20  C   UNL     1     -20.737   8.358  11.564  0.00  0.00    +0.003 A 
ATOM     21  C   UNL     1     -21.867   8.608  10.767  0.00  0.00    +0.000 A 
ATOM     22  C   UNL     1     -21.855   8.181   9.424  0.00  0.00    +0.003 A 
ATOM     23  C   UNL     1     -20.693   7.527   8.890  0.00  0.00    +0.037 A 
ENDBRANCH  17  18
ENDBRANCH  16  17
ENDBRANCH  12  13
ENDBRANCH  11  12
TORSDOF 6
