REMARK  Name = 2og8_ligand
REMARK  13 active torsions:
REMARK  status: ('A' for Active; 'I' for Inactive)
REMARK    1  A    between atoms: C11_3  and  C14_4
REMARK    2  A    between atoms: N3_5  and  C15_6
REMARK    3  A    between atoms: C20_7  and  N4_21
REMARK    4  A    between atoms: C17_10  and  C21_12
REMARK    5  A    between atoms: C13_18  and  C8_36
REMARK    6  A    between atoms: C24_19  and  C25_20
REMARK    7  A    between atoms: C26_22  and  C27_23
REMARK    8  A    between atoms: C27_23  and  N6_24
REMARK    9  A    between atoms: N6_24  and  C28_25
REMARK   10  A    between atoms: N6_24  and  C29_26
REMARK   11  A    between atoms: C28_25  and  C30_27
REMARK   12  A    between atoms: C29_26  and  C5_28
REMARK   13  A    between atoms: N2_39  and  C1_40
REMARK                            x       y       z     vdW  Elec       q    Type
REMARK                         _______ _______ _______ _____ _____    ______ ____
ROOT
ATOM     20  C   UNL     1       5.268  28.883  55.986  0.00  0.00    +0.227 C 
ATOM     21  O   UNL     1       6.364  28.802  55.464  0.00  0.00    -0.377 OA
ATOM     22  N   UNL     1       4.443  29.909  55.655  0.00  0.00    -0.229 N 
ATOM     23  H   UNL     1       3.692  30.113  56.283  0.00  0.00    +0.224 HD
ENDROOT
BRANCH  20  19
ATOM      1  C   UNL     1       3.017  26.631  58.143  0.00  0.00    +0.003 A 
ATOM      2  C   UNL     1       4.061  25.794  58.734  0.00  0.00    -0.033 A 
ATOM      3  C   UNL     1       3.559  24.713  59.599  0.00  0.00    +0.094 C 
ATOM      4  C   UNL     1       5.458  25.953  58.494  0.00  0.00    -0.009 A 
ATOM     18  C   UNL     1       5.810  27.033  57.585  0.00  0.00    +0.026 A 
ATOM     19  C   UNL     1       4.799  27.872  56.970  0.00  0.00    +0.049 A 
ATOM     45  C   UNL     1       3.395  27.688  57.244  0.00  0.00    +0.017 A 
BRANCH   4   5
ATOM      5  C   UNL     1       6.572  25.122  59.053  0.00  0.00    -0.014 A 
ATOM      6  C   UNL     1       7.232  25.371  60.350  0.00  0.00    +0.018 A 
ATOM      7  C   UNL     1       8.380  24.549  60.778  0.00  0.00    +0.021 A 
ATOM      8  C   UNL     1       8.884  23.472  59.924  0.00  0.00    +0.041 A 
ATOM      9  N   UNL     1       9.981  22.665  60.240  0.00  0.00    -0.267 NA
ATOM     10  C   UNL     1      10.407  21.684  59.383  0.00  0.00    +0.188 A 
ATOM     11  N   UNL     1      11.440  20.879  59.703  0.00  0.00    -0.292 N 
ATOM     12  H   UNL     1      11.679  20.119  59.051  0.00  0.00    +0.187 HD
ATOM     13  C   UNL     1      12.242  21.018  60.918  0.00  0.00    +0.167 C 
ATOM     14  N   UNL     1       9.790  21.452  58.190  0.00  0.00    -0.243 NA
ATOM     15  C   UNL     1       8.719  22.174  57.786  0.00  0.00    +0.133 A 
ATOM     16  C   UNL     1       8.196  23.217  58.601  0.00  0.00    +0.022 A 
ATOM     17  C   UNL     1       7.085  24.031  58.220  0.00  0.00    +0.029 A 
ENDBRANCH   4   5
ENDBRANCH  20  19
BRANCH  22  24
ATOM     24  C   UNL     1       4.550  30.675  54.555  0.00  0.00    +0.127 A 
ATOM     25  C   UNL     1       4.813  30.102  53.292  0.00  0.00    +0.030 A 
ATOM     26  C   UNL     1       4.915  31.006  52.152  0.00  0.00    -0.000 A 
ATOM     31  C   UNL     1       4.751  32.463  52.302  0.00  0.00    +0.021 A 
ATOM     32  C   UNL     1       4.485  33.019  53.583  0.00  0.00    +0.054 A 
ATOM     33  C   UNL     1       4.392  32.077  54.692  0.00  0.00    +0.143 A 
BRANCH  26  27
ATOM     27  C   UNL     1       5.201  30.394  50.740  0.00  0.00    +0.338 C 
ATOM     28  F   UNL     1       4.557  31.059  49.828  0.00  0.00    -0.253 F 
ATOM     29  F   UNL     1       6.470  30.409  50.452  0.00  0.00    -0.253 F 
ATOM     30  F   UNL     1       4.794  29.149  50.558  0.00  0.00    -0.253 F 
ENDBRANCH  26  27
BRANCH  33  34
ATOM     34  N   UNL     1       4.144  32.469  55.970  0.00  0.00    -0.202 N 
ATOM     35  H   UNL     1       4.450  31.861  56.702  0.00  0.00    +0.249 HD
ATOM     36  C   UNL     1       3.514  33.620  56.339  0.00  0.00    +0.267 C 
ATOM     37  O   UNL     1       2.802  34.288  55.587  0.00  0.00    -0.369 OA
BRANCH  36  38
ATOM     38  C   UNL     1       3.776  34.015  57.781  0.00  0.00    +0.282 C 
BRANCH  38  39
ATOM     39  N   UNL     1       3.797  35.493  57.891  0.00  0.00    +0.252 N 
ATOM     40  H   UNL     1       3.910  35.860  56.959  0.00  0.00    +0.205 HD
BRANCH  39  41
ATOM     41  C   UNL     1       2.563  36.072  58.444  0.00  0.00    +0.130 C 
ATOM     42  C   UNL     1       1.826  35.118  59.377  0.00  0.00    +0.060 C 
ENDBRANCH  39  41
BRANCH  39  43
ATOM     43  C   UNL     1       4.952  35.932  58.701  0.00  0.00    +0.130 C 
ATOM     44  C   UNL     1       5.542  37.155  58.027  0.00  0.00    +0.060 C 
ENDBRANCH  39  43
ENDBRANCH  38  39
ENDBRANCH  36  38
ENDBRANCH  33  34
ENDBRANCH  22  24
TORSDOF 9
