REMARK  Name = 3fzr_ligand
REMARK  9 active torsions:
REMARK  status: ('A' for Active; 'I' for Inactive)
REMARK    1  A    between atoms: C35_1  and  N30_16
REMARK    2  A    between atoms: C34_2  and  S31_14
REMARK    3  A    between atoms: C6_5  and  C8_9
REMARK    4  A    between atoms: C13_6  and  C12_19
REMARK    5  A    between atoms: C20_7  and  N30_16
REMARK    6  A    between atoms: S31_14  and  N30_16
REMARK    7  A    between atoms: C12_19  and  N10_20
REMARK    8  A    between atoms: N10_20  and  C5_21
REMARK    9  A    between atoms: N9_27  and  C11_28
REMARK                            x       y       z     vdW  Elec       q    Type
REMARK                         _______ _______ _______ _____ _____    ______ ____
ROOT
ATOM     16  C   UNL     1      25.435  68.386  18.623  0.00  0.00    +0.150 A 
ATOM     17  N   UNL     1      24.635  68.032  17.606  0.00  0.00    -0.209 NA
ATOM     18  C   UNL     1      25.014  68.435  16.344  0.00  0.00    +0.226 A 
ATOM     19  N   UNL     1      24.249  67.998  15.389  0.00  0.00    -0.236 N 
ATOM     20  H   UNL     1      24.375  68.364  14.445  0.00  0.00    +0.227 HD
ATOM     32  N   UNL     1      25.961  69.274  15.940  0.00  0.00    -0.228 NA
ATOM     33  C   UNL     1      26.821  69.604  16.938  0.00  0.00    +0.147 A 
ATOM     34  C   UNL     1      26.519  69.145  18.257  0.00  0.00    +0.097 A 
ENDROOT
BRANCH  19  21
ATOM     21  C   UNL     1      23.202  66.985  15.635  0.00  0.00    +0.056 A 
ATOM     22  C   UNL     1      22.199  66.937  14.681  0.00  0.00    +0.004 A 
ATOM     23  C   UNL     1      21.185  66.052  14.750  0.00  0.00    -0.007 A 
ATOM     24  C   UNL     1      20.012  65.875  13.771  0.00  0.00    +0.199 C 
ATOM     25  C   UNL     1      19.255  64.722  14.400  0.00  0.00    +0.207 C 
ATOM     26  O   UNL     1      18.173  64.224  13.921  0.00  0.00    -0.390 OA
ATOM     27  N   UNL     1      19.994  64.355  15.565  0.00  0.00    -0.239 N 
ATOM     28  H   UNL     1      19.727  63.596  16.192  0.00  0.00    +0.223 HD
ATOM     29  C   UNL     1      21.113  65.146  15.746  0.00  0.00    +0.065 A 
ATOM     30  C   UNL     1      22.094  65.128  16.704  0.00  0.00    -0.005 A 
ATOM     31  C   UNL     1      23.148  66.026  16.637  0.00  0.00    -0.005 A 
ENDBRANCH  19  21
BRANCH  34  35
ATOM     35  C   UNL     1      27.449  69.579  19.308  0.00  0.00    +0.361 C 
ATOM     36  F   UNL     1      28.451  70.296  18.560  0.00  0.00    -0.243 F 
ATOM     37  F   UNL     1      26.725  70.179  20.268  0.00  0.00    -0.243 F 
ATOM     38  F   UNL     1      28.071  68.449  20.001  0.00  0.00    -0.243 F 
ENDBRANCH  34  35
BRANCH  16  14
ATOM     14  N   UNL     1      24.996  68.017  19.948  0.00  0.00    -0.277 N 
ATOM     15  H   UNL     1      25.547  68.190  20.789  0.00  0.00    +0.200 HD
BRANCH  14  13
ATOM     13  C   UNL     1      23.620  67.339  19.968  0.00  0.00    +0.200 C 
BRANCH  13  12
ATOM      7  C   UNL     1      22.884  65.048  20.441  0.00  0.00    +0.069 A 
ATOM      8  C   UNL     1      23.159  63.611  20.590  0.00  0.00    -0.006 A 
ATOM      9  C   UNL     1      24.406  63.067  20.378  0.00  0.00    -0.033 A 
ATOM     10  C   UNL     1      25.398  63.907  20.015  0.00  0.00    -0.041 A 
ATOM     11  C   UNL     1      25.191  65.288  19.832  0.00  0.00    -0.023 A 
ATOM     12  C   UNL     1      23.920  65.899  20.081  0.00  0.00    -0.001 A 
BRANCH   7   2
ATOM      1  C   UNL     1      20.636  65.561  19.551  0.00  0.00    +0.197 C 
ATOM      2  N   UNL     1      21.544  65.513  20.653  0.00  0.00    -0.184 N 
BRANCH   2   3
ATOM      3  S   UNL     1      21.106  65.773  22.275  0.00  0.00    +0.058 S 
ATOM      4  O   UNL     1      20.642  64.489  22.757  0.00  0.00    -0.150 OA
ATOM      5  O   UNL     1      22.111  66.353  23.002  0.00  0.00    -0.150 OA
ATOM      6  C   UNL     1      19.964  66.955  21.893  0.00  0.00    +0.225 C 
ENDBRANCH   2   3
ENDBRANCH   7   2
ENDBRANCH  13  12
ENDBRANCH  14  13
ENDBRANCH  16  14
TORSDOF 7
