REMARK  Name = 2wmw_ligand
REMARK  3 active torsions:
REMARK  status: ('A' for Active; 'I' for Inactive)
REMARK    1  A    between atoms: CAN_10  and  NAQ_11
REMARK    2  A    between atoms: CAR_16  and  CAE_17
REMARK    3  A    between atoms: CAE_17  and  NAA_18
REMARK                            x       y       z     vdW  Elec       q    Type
REMARK                         _______ _______ _______ _____ _____    ______ ____
ROOT
ATOM      1 BR   UNL     1      19.646  -2.334   9.656  0.00  0.00    -0.063 Br
ATOM      2  C   UNL     1      17.908  -1.617   9.588  0.00  0.00    +0.046 A 
ATOM      3  C   UNL     1      16.853  -2.235  10.235  0.00  0.00    +0.073 A 
ATOM     15  C   UNL     1      15.608  -1.640  10.129  0.00  0.00    +0.059 A 
ATOM     16  C   UNL     1      14.408  -1.927  10.593  0.00  0.00    +0.097 A 
ATOM     17  N   UNL     1      13.577  -0.980  10.175  0.00  0.00    -0.207 NA
ATOM     18  N   UNL     1      14.173  -0.146   9.498  0.00  0.00    -0.204 N 
ATOM     19  H   UNL     1      13.748   0.675   9.067  0.00  0.00    +0.248 HD
ATOM     20  C   UNL     1      15.449  -0.475   9.414  0.00  0.00    +0.146 A 
ATOM     21  N   UNL     1      16.490   0.096   8.804  0.00  0.00    -0.297 NA
ATOM     22  C   UNL     1      17.689  -0.445   8.880  0.00  0.00    +0.070 A 
ENDROOT
BRANCH   3   4
ATOM      4  N   UNL     1      17.015  -3.424  10.959  0.00  0.00    -0.292 N 
ATOM      5  C   UNL     1      16.082  -4.536  10.704  0.00  0.00    +0.165 C 
ATOM      6  C   UNL     1      15.763  -5.309  11.982  0.00  0.00    +0.185 C 
ATOM      7  O   UNL     1      16.953  -5.535  12.721  0.00  0.00    -0.367 OA
ATOM      8  C   UNL     1      17.383  -4.283  13.218  0.00  0.00    +0.186 C 
ATOM     14  C   UNL     1      18.054  -3.609  12.000  0.00  0.00    +0.174 C 
BRANCH   8   9
ATOM      9  C   UNL     1      18.148  -4.535  14.546  0.00  0.00    +0.161 C 
BRANCH   9  10
ATOM     10  N   UNL     1      19.607  -4.545  14.367  0.00  0.00    +0.220 N 
ATOM     11  H   UNL     1      19.909  -3.644  13.998  0.00  0.00    +0.200 HD
ATOM     12  H   UNL     1      19.863  -5.285  13.713  0.00  0.00    +0.200 HD
ATOM     13  H   UNL     1      20.058  -4.714  15.266  0.00  0.00    +0.200 HD
ENDBRANCH   9  10
ENDBRANCH   8   9
ENDBRANCH   3   4
TORSDOF 3
