REMARK  Name = 4rj8_ligand
REMARK  4 active torsions:
REMARK  status: ('A' for Active; 'I' for Inactive)
REMARK    1  A    between atoms: C3_9  and  O2_11
REMARK    2  A    between atoms: C1_10  and  O2_11
REMARK    3  A    between atoms: N15_15  and  C16_16
REMARK    4  A    between atoms: N22_22  and  C23_23
REMARK                            x       y       z     vdW  Elec       q    Type
REMARK                         _______ _______ _______ _____ _____    ______ ____
ROOT
ATOM      1  C   UNL     1     -51.850  -2.506 -28.105  0.00  0.00    +0.056 C 
ATOM      2  C   UNL     1     -50.653  -1.906 -27.352  0.00  0.00    +0.122 C 
ATOM      5  C   UNL     1     -50.832  -2.014 -25.830  0.00  0.00    +0.056 C 
ATOM      6  C   UNL     1     -52.157  -1.378 -25.374  0.00  0.00    +0.141 C 
ATOM      7  N   UNL     1     -53.331  -1.526 -26.292  0.00  0.00    -0.278 N 
ATOM      8  C   UNL     1     -54.322  -0.582 -25.992  0.00  0.00    +0.177 A 
ATOM      9  N   UNL     1     -54.164   0.210 -24.930  0.00  0.00    -0.238 NA
ATOM     10  C   UNL     1     -55.076   1.107 -24.571  0.00  0.00    +0.134 A 
ATOM     11  N   UNL     1     -54.873   1.940 -23.481  0.00  0.00    -0.249 N 
ATOM     12  H   UNL     1     -55.245   2.897 -23.562  0.00  0.00    +0.217 HD
ATOM     27  C   UNL     1     -56.234   1.234 -25.354  0.00  0.00    +0.056 A 
ATOM     28  C   UNL     1     -56.387   0.403 -26.460  0.00  0.00    +0.085 A 
ATOM     29  N   UNL     1     -55.430  -0.475 -26.738  0.00  0.00    -0.273 NA
ATOM     30  C   UNL     1     -53.067  -1.634 -27.762  0.00  0.00    +0.141 C 
ENDROOT
BRANCH  11  13
ATOM     13  C   UNL     1     -54.219   1.627 -22.281  0.00  0.00    +0.120 A 
ATOM     14  N   UNL     1     -54.573   2.332 -21.205  0.00  0.00    -0.296 NA
ATOM     15  C   UNL     1     -54.004   2.160 -20.021  0.00  0.00    +0.063 A 
ATOM     16  C   UNL     1     -53.018   1.189 -19.836  0.00  0.00    -0.010 A 
ATOM     17  C   UNL     1     -52.224   0.739 -18.691  0.00  0.00    -0.033 A 
ATOM     18  C   UNL     1     -51.432  -0.239 -19.143  0.00  0.00    +0.117 A 
ATOM     19  N   UNL     1     -51.630  -0.453 -20.498  0.00  0.00    -0.260 N 
ATOM     25  C   UNL     1     -52.599   0.412 -20.953  0.00  0.00    +0.074 A 
ATOM     26  C   UNL     1     -53.206   0.666 -22.194  0.00  0.00    +0.057 A 
BRANCH  19  20
ATOM     20  C   UNL     1     -50.910  -1.439 -21.338  0.00  0.00    +0.128 C 
ATOM     21  C   UNL     1     -49.996  -2.385 -20.534  0.00  0.00    +0.035 C 
ATOM     22  C   UNL     1     -48.575  -1.769 -20.554  0.00  0.00    +0.003 C 
ATOM     23  C   UNL     1     -48.688  -0.461 -21.377  0.00  0.00    +0.003 C 
ATOM     24  C   UNL     1     -49.918  -0.726 -22.273  0.00  0.00    +0.035 C 
ENDBRANCH  19  20
ENDBRANCH  11  13
BRANCH   2   3
ATOM      3  O   UNL     1     -49.362  -2.320 -27.822  0.00  0.00    -0.380 OA
ATOM      4  C   UNL     1     -48.937  -3.688 -27.663  0.00  0.00    +0.194 C 
ENDBRANCH   2   3
TORSDOF 3
