REMARK  Name = A1K0
REMARK  5 active torsions:
REMARK  status: ('A' for Active; 'I' for Inactive)
REMARK    1  A    between atoms: O1_1  and  C2_3
REMARK    2  A    between atoms: C2_3  and  C3_4
REMARK    3  A    between atoms: C4_5  and  O2_8
REMARK    4  A    between atoms: C4_5  and  C6_9
REMARK    5  A    between atoms: C6_9  and  C7_12
REMARK                            x       y       z     vdW  Elec       q    Type
REMARK                         _______ _______ _______ _____ _____    ______ ____
ROOT
ATOM      4  C   UNL     1     -10.700  -5.215  -0.843  0.00  0.00    +0.039 C 
ATOM      5  C   UNL     1     -12.008  -4.984  -0.440  0.00  0.00    +0.126 C 
ENDROOT
BRANCH   5  13
ATOM     13  O   UNL     1     -12.777  -4.012  -0.940  0.00  0.00    -0.475 OA
ATOM     14  C   UNL     1     -12.170  -3.051  -1.863  0.00  0.00    +0.252 C 
ENDBRANCH   5  13
BRANCH   4   3
ATOM      3  C   UNL     1      -9.878  -6.169  -0.179  0.00  0.00    +0.171 C 
BRANCH   3   1
ATOM      1  O   UNL     1      -8.654  -6.266  -0.722  0.00  0.00    -0.346 OA
ATOM      2  C   UNL     1      -7.744  -7.174  -0.129  0.00  0.00    +0.175 C 
ENDBRANCH   3   1
ENDBRANCH   4   3
BRANCH   5   6
ATOM      6  C   UNL     1     -12.534  -5.712   0.660  0.00  0.00    +0.180 C 
BRANCH   6   7
ATOM      7  C   UNL     1     -13.885  -5.553   1.199  0.00  0.00    +0.360 C 
ATOM      8  N   UNL     1     -14.214  -6.291   2.299  0.00  0.00    +0.032 NA
ATOM      9  C   UNL     1     -13.329  -7.153   2.895  0.00  0.00    +0.398 C 
ATOM     10  C   UNL     1     -13.615  -7.865   4.113  0.00  0.00    +0.139 C 
ATOM     11  N   UNL     1     -12.140  -7.374   2.400  0.00  0.00    +0.192 NA
ATOM     12  O   UNL     1     -14.785  -4.834   0.672  0.00  0.00    -0.242 OA
ENDBRANCH   6   7
ENDBRANCH   5   6
TORSDOF 5
