REMARK  Name = 4RC2
REMARK  12 active torsions:
REMARK  status: ('A' for Active; 'I' for Inactive)
REMARK    1  A    between atoms: O_1  and  C_2
REMARK    2  A    between atoms: C_2  and  C_3
REMARK    3  A    between atoms: C_3  and  N_4
REMARK    4  A    between atoms: N_4  and  C_5
REMARK    5  A    between atoms: C_5  and  C_6
REMARK    6  A    between atoms: C_6  and  N_7
REMARK    7  A    between atoms: N_7  and  C_8
REMARK    8  A    between atoms: C_12  and  O_13
REMARK    9  A    between atoms: C_16  and  N_20
REMARK   10  A    between atoms: C_17  and  O_18
REMARK   11  A    between atoms: C_19  and  O_21
REMARK   12  A    between atoms: C_24  and  O_25
REMARK                            x       y       z     vdW  Elec       q    Type
REMARK                         _______ _______ _______ _____ _____    ______ ____
ROOT
ATOM     11  C   UNL     1      23.558 -37.540   3.924  0.00  0.00    +0.039 A 
ATOM     12  C   UNL     1      23.295 -36.927   2.630  0.00  0.00    +0.050 A 
ATOM     13  C   UNL     1      22.714 -35.614   2.572  0.00  0.00    +0.050 A 
ATOM     14  C   UNL     1      22.472 -34.945   1.298  0.00  0.00    +0.138 A 
ATOM     15  C   UNL     1      22.819 -35.619   0.048  0.00  0.00    +0.073 A 
ATOM     16  C   UNL     1      22.596 -34.943  -1.120  0.00  0.00    +0.128 A 
ATOM     19  C   UNL     1      22.902 -35.550  -2.280  0.00  0.00    +0.050 A 
ATOM     20  C   UNL     1      23.404 -36.775  -2.298  0.00  0.00    +0.050 A 
ATOM     21  C   UNL     1      23.615 -37.460  -1.161  0.00  0.00    +0.128 A 
ATOM     24  C   UNL     1      23.329 -36.894   0.032  0.00  0.00    +0.073 A 
ATOM     27  C   UNL     1      22.399 -34.918   3.758  0.00  0.00    +0.036 A 
ATOM     31  C   UNL     1      22.659 -35.578   4.931  0.00  0.00    +0.025 A 
ATOM     32  C   UNL     1      23.613 -37.585   1.317  0.00  0.00    +0.138 A 
ATOM     35  C   UNL     1      23.205 -36.815   5.023  0.00  0.00    +0.025 A 
ENDROOT
BRANCH  27  28
ATOM     28  N   UNL     1      21.868 -33.596   3.746  0.00  0.00    -0.357 N 
ATOM     29  H   UNL     1      21.675 -33.105   2.815  0.00  0.00    +0.142 HD
ATOM     30  H   UNL     1      21.662 -33.094   4.668  0.00  0.00    +0.142 HD
ENDBRANCH  27  28
BRANCH  11   9
ATOM      9  N   UNL     1      24.117 -38.890   4.134  0.00  0.00    -0.342 N 
ATOM     10  H   UNL     1      23.823 -39.471   3.284  0.00  0.00    +0.146 HD
BRANCH   9   8
ATOM      8  C   UNL     1      23.778 -39.717   5.346  0.00  0.00    +0.116 C 
BRANCH   8   7
ATOM      7  C   UNL     1      24.633 -40.994   5.588  0.00  0.00    +0.099 C 
BRANCH   7   5
ATOM      5  N   UNL     1      24.932 -41.218   7.043  0.00  0.00    -0.312 NA
ATOM      6  H   UNL     1      24.038 -41.021   7.597  0.00  0.00    +0.122 HD
BRANCH   5   4
ATOM      4  C   UNL     1      26.025 -40.371   7.615  0.00  0.00    +0.108 C 
BRANCH   4   3
ATOM      3  C   UNL     1      25.594 -39.002   8.174  0.00  0.00    +0.171 C 
BRANCH   3   1
ATOM      1  O   UNL     1      26.170 -37.880   7.521  0.00  0.00    -0.394 OA
ATOM      2  H   UNL     1      27.216 -37.924   7.606  0.00  0.00    +0.209 HD
ENDBRANCH   3   1
ENDBRANCH   4   3
ENDBRANCH   5   4
ENDBRANCH   7   5
ENDBRANCH   8   7
ENDBRANCH   9   8
ENDBRANCH  11   9
BRANCH  16  17
ATOM     17  O   UNL     1      22.060 -33.671  -0.918  0.00  0.00    -0.506 OA
ATOM     18  H   UNL     1      22.709 -32.950  -1.319  0.00  0.00    +0.292 HD
ENDBRANCH  16  17
BRANCH  21  22
ATOM     22  O   UNL     1      24.188 -38.695  -1.097  0.00  0.00    -0.506 OA
ATOM     23  H   UNL     1      25.095 -38.634  -0.571  0.00  0.00    +0.292 HD
ENDBRANCH  21  22
BRANCH  14  25
ATOM     25  O   UNL     1      21.957 -33.672   1.238  0.00  0.00    -0.505 OA
ATOM     26  H   UNL     1      21.014 -33.654   1.699  0.00  0.00    +0.292 HD
ENDBRANCH  14  25
BRANCH  32  33
ATOM     33  O   UNL     1      24.169 -38.810   1.261  0.00  0.00    -0.505 OA
ATOM     34  H   UNL     1      25.097 -38.797   1.753  0.00  0.00    +0.292 HD
ENDBRANCH  32  33
TORSDOF 12
