REMARK  Name = 3POO
REMARK  10 active torsions:
REMARK  status: ('A' for Active; 'I' for Inactive)
REMARK    1  A    between atoms: C_1  and  C_2
REMARK    2  A    between atoms: C_2  and  C_3
REMARK    3  A    between atoms: N_5  and  N_6
REMARK    4  A    between atoms: N_6  and  C_7
REMARK    5  A    between atoms: C_7  and  C_8
REMARK    6  A    between atoms: C_12  and  O_13
REMARK    7  A    between atoms: O_13  and  C_14
REMARK    8  A    between atoms: C_16  and  C_17
REMARK    9  A    between atoms: C_19  and  O_20
REMARK   10  A    between atoms: C_22  and  O_23
REMARK                            x       y       z     vdW  Elec       q    Type
REMARK                         _______ _______ _______ _____ _____    ______ ____
ROOT
ATOM     13  N   UNL     1      27.640  10.118  -1.196  0.00  0.00    -0.236 NA
ATOM     14  H   UNL     1      27.963   9.175  -0.808  0.00  0.00    +0.145 HD
ENDROOT
BRANCH  13  11
ATOM     10  C   UNL     1      25.566  10.243  -0.031  0.00  0.00    +0.231 C 
ATOM     11  N   UNL     1      26.308  10.160  -1.273  0.00  0.00    -0.250 N 
ATOM     12  H   UNL     1      25.806  10.133  -2.218  0.00  0.00    +0.169 HD
ATOM     27  O   UNL     1      26.194  10.274   1.060  0.00  0.00    -0.274 OA
BRANCH  10   9
ATOM      9  C   UNL     1      24.061  10.292  -0.100  0.00  0.00    +0.132 C 
BRANCH   9   1
ATOM      1  C   UNL     1      23.497  11.624   0.141  0.00  0.00    -0.035 A 
ATOM      2  C   UNL     1      22.485  11.804   1.042  0.00  0.00    +0.049 A 
ATOM      3  C   UNL     1      21.972  13.108   1.237  0.00  0.00    +0.120 A 
ATOM      6  C   UNL     1      22.473  14.173   0.565  0.00  0.00    +0.045 A 
ATOM      7  C   UNL     1      23.495  13.983  -0.334  0.00  0.00    +0.004 A 
ATOM      8  C   UNL     1      24.013  12.697  -0.545  0.00  0.00    +0.004 A 
BRANCH   3   4
ATOM      4  O   UNL     1      20.941  13.337   2.126  0.00  0.00    -0.495 OA
ATOM      5  C   UNL     1      20.378  12.236   2.821  0.00  0.00    +0.277 C 
ENDBRANCH   3   4
ENDBRANCH   9   1
ENDBRANCH  10   9
ENDBRANCH  13  11
BRANCH  13  15
ATOM     15  C   UNL     1      28.094  10.289  -2.520  0.00  0.00    +0.141 C 
BRANCH  15  16
ATOM     16  C   UNL     1      29.608  10.283  -2.685  0.00  0.00    +0.013 A 
ATOM     17  C   UNL     1      30.454  10.205  -1.612  0.00  0.00    +0.125 A 
ATOM     20  C   UNL     1      31.872  10.215  -1.834  0.00  0.00    +0.091 A 
ATOM     21  C   UNL     1      32.354  10.307  -3.155  0.00  0.00    +0.121 A 
ATOM     24  C   UNL     1      31.494  10.390  -4.237  0.00  0.00    +0.049 A 
ATOM     25  C   UNL     1      30.103  10.378  -4.014  0.00  0.00    -0.039 A 
ATOM     26  C   UNL     1      29.133  10.475  -5.205  0.00  0.00    +0.044 C 
BRANCH  17  18
ATOM     18  O   UNL     1      29.998  10.131  -0.335  0.00  0.00    -0.506 OA
ATOM     19  H   UNL     1      29.425  10.984  -0.117  0.00  0.00    +0.292 HD
ENDBRANCH  17  18
BRANCH  21  22
ATOM     22  O   UNL     1      33.700  10.312  -3.394  0.00  0.00    -0.507 OA
ATOM     23  H   UNL     1      33.951   9.493  -4.001  0.00  0.00    +0.292 HD
ENDBRANCH  21  22
ENDBRANCH  15  16
ENDBRANCH  13  15
TORSDOF 8
