REMARK  Name = 3FLN
REMARK  4 active torsions:
REMARK  status: ('A' for Active; 'I' for Inactive)
REMARK    1  A    between atoms: C_10  and  N_28
REMARK    2  A    between atoms: C_18  and  O_23
REMARK    3  A    between atoms: C_19  and  O_23
REMARK    4  A    between atoms: C_20  and  N_26
REMARK                            x       y       z     vdW  Elec       q    Type
REMARK                         _______ _______ _______ _____ _____    ______ ____
ROOT
ATOM      3  N   UNL     1      25.010   7.795  31.153  0.00  0.00    -0.247 NA
ATOM      4  C   UNL     1      23.812   8.428  31.027  0.00  0.00    +0.225 A 
ATOM      5  N   UNL     1      23.744   9.763  31.259  0.00  0.00    -0.310 N 
ATOM      6  H   UNL     1      24.632  10.291  31.539  0.00  0.00    +0.170 HD
ATOM      7  C   UNL     1      22.580  10.442  31.144  0.00  0.00    +0.125 A 
ATOM      8  N   UNL     1      22.554  11.838  31.386  0.00  0.00    -0.294 N 
ATOM      9  C   UNL     1      23.782  12.559  31.763  0.00  0.00    +0.154 C 
ATOM     10  C   UNL     1      21.331  12.534  31.260  0.00  0.00    +0.295 C 
ATOM     11  O   UNL     1      21.255  13.765  31.468  0.00  0.00    -0.264 OA
ATOM     12  C   UNL     1      20.109  11.781  30.881  0.00  0.00    +0.193 C 
ATOM     22  C   UNL     1      20.198  10.405  30.650  0.00  0.00    +0.065 C 
ATOM     23  C   UNL     1      21.424   9.743  30.780  0.00  0.00    +0.037 A 
ATOM     24  C   UNL     1      21.518   8.369  30.543  0.00  0.00    +0.126 A 
ATOM     25  N   UNL     1      22.697   7.737  30.668  0.00  0.00    -0.220 NA
ENDROOT
BRANCH   3   2
ATOM      1  C   UNL     1      26.892   9.031  30.267  0.00  0.00    +0.055 C 
ATOM      2  C   UNL     1      26.209   8.535  31.541  0.00  0.00    +0.113 C 
ATOM     26  C   UNL     1      27.135   7.549  32.262  0.00  0.00    +0.055 C 
ATOM     27  C   UNL     1      28.480   8.216  32.554  0.00  0.00    +0.162 C 
ATOM     28  O   UNL     1      29.054   8.731  31.342  0.00  0.00    -0.380 OA
ATOM     29  C   UNL     1      28.227   9.677  30.646  0.00  0.00    +0.162 C 
ENDBRANCH   3   2
BRANCH  12  13
ATOM     13  O   UNL     1      18.932  12.488  30.779  0.00  0.00    -0.448 OA
BRANCH  13  14
ATOM     14  C   UNL     1      17.685  11.909  30.750  0.00  0.00    +0.164 A 
ATOM     15  C   UNL     1      16.887  12.126  29.633  0.00  0.00    +0.052 A 
ATOM     16  C   UNL     1      15.618  11.558  29.560  0.00  0.00    +0.042 A 
ATOM     17  C   UNL     1      15.145  10.787  30.616  0.00  0.00    +0.126 A 
ATOM     18  F   UNL     1      13.921  10.241  30.536  0.00  0.00    -0.205 F 
ATOM     19  C   UNL     1      15.937  10.572  31.744  0.00  0.00    +0.080 A 
ATOM     20  C   UNL     1      17.210  11.134  31.808  0.00  0.00    +0.168 A 
ATOM     21  F   UNL     1      17.968  10.919  32.894  0.00  0.00    -0.202 F 
ENDBRANCH  13  14
ENDBRANCH  12  13
TORSDOF 3
