REMARK  Name = 3CR0
REMARK  5 active torsions:
REMARK  status: ('A' for Active; 'I' for Inactive)
REMARK    1  A    between atoms: C_9  and  C_10
REMARK    2  A    between atoms: C_10  and  C_11
REMARK    3  A    between atoms: C_11  and  O_12
REMARK    4  A    between atoms: N_14  and  C_15
REMARK    5  A    between atoms: C_18  and  C_19
REMARK                            x       y       z     vdW  Elec       q    Type
REMARK                         _______ _______ _______ _____ _____    ______ ____
ROOT
ATOM      1  O   UNL     1       7.154  55.296  26.658  0.00  0.00    -0.267 OA
ATOM      2  C   UNL     1       6.130  54.990  27.356  0.00  0.00    +0.260 A 
ATOM      3  C   UNL     1       4.821  54.653  26.907  0.00  0.00    +0.062 A 
ATOM      4  C   UNL     1       4.212  54.495  25.629  0.00  0.00    +0.016 A 
ATOM      5  C   UNL     1       2.897  54.117  25.455  0.00  0.00    +0.050 A 
ATOM      6  C   UNL     1       2.136  53.906  26.601  0.00  0.00    +0.035 A 
ATOM      7  C   UNL     1       2.679  54.095  27.849  0.00  0.00    -0.002 A 
ATOM     15  N   UNL     1       2.632  54.033  24.133  0.00  0.00    -0.349 N 
ATOM     16  C   UNL     1       1.311  53.686  23.496  0.00  0.00    +0.149 C 
ATOM     17  C   UNL     1       3.769  54.314  23.499  0.00  0.00    +0.090 A 
ATOM     18  C   UNL     1       4.774  54.627  24.412  0.00  0.00    -0.019 A 
ATOM     23  C   UNL     1       4.037  54.442  28.039  0.00  0.00    +0.060 A 
ATOM     24  C   UNL     1       4.976  54.663  29.097  0.00  0.00    +0.260 A 
ATOM     25  O   UNL     1       4.658  54.582  30.331  0.00  0.00    -0.267 OA
ATOM     26  N   UNL     1       6.219  55.046  28.707  0.00  0.00    -0.289 N 
ATOM     27  H   UNL     1       7.057  55.322  29.313  0.00  0.00    +0.172 HD
ENDROOT
BRANCH   7   8
ATOM      8  C   UNL     1       1.766  53.861  28.981  0.00  0.00    +0.001 A 
ATOM      9  C   UNL     1       1.467  54.897  29.886  0.00  0.00    +0.049 A 
ATOM     10  C   UNL     1       0.614  54.678  30.974  0.00  0.00    +0.020 A 
ATOM     11  C   UNL     1       0.029  53.432  31.115  0.00  0.00    +0.002 A 
ATOM     12  C   UNL     1       0.294  52.452  30.193  0.00  0.00    +0.001 A 
ATOM     13 CL   UNL     1       2.113  56.539  29.797  0.00  0.00    -0.083 Cl
ATOM     14  C   UNL     1       1.146  52.617  29.093  0.00  0.00    +0.010 A 
ENDBRANCH   7   8
BRANCH  18  19
ATOM     19  C   UNL     1       6.179  55.023  24.107  0.00  0.00    +0.065 C 
BRANCH  19  20
ATOM     20  C   UNL     1       6.919  53.947  23.386  0.00  0.00    +0.160 C 
BRANCH  20  21
ATOM     21  O   UNL     1       7.882  54.853  22.802  0.00  0.00    -0.395 OA
ATOM     22  H   UNL     1       7.383  55.558  22.205  0.00  0.00    +0.209 HD
ENDBRANCH  20  21
ENDBRANCH  19  20
ENDBRANCH  18  19
TORSDOF 4
