REMARK  Name = K82
REMARK  16 active torsions:
REMARK  status: ('A' for Active; 'I' for Inactive)
REMARK    1  A    between atoms: C6_4  and  C7_5
REMARK    2  A    between atoms: C3_9  and  O_10
REMARK    3  A    between atoms: O_10  and  C2_11
REMARK    4  A    between atoms: C2_11  and  C1_12
REMARK    5  A    between atoms: C6_17  and  C7_18
REMARK    6  A    between atoms: C3_22  and  O_23
REMARK    7  A    between atoms: O_23  and  C2_24
REMARK    8  A    between atoms: C2_24  and  C1_25
REMARK    9  A    between atoms: C6_30  and  C7_31
REMARK   10  A    between atoms: C3_35  and  O_36
REMARK   11  A    between atoms: O_36  and  C2_37
REMARK   12  A    between atoms: C2_37  and  C1_38
REMARK   13  A    between atoms: C6_43  and  C7_44
REMARK   14  A    between atoms: C3_48  and  O_49
REMARK   15  A    between atoms: O_49  and  C2_50
REMARK   16  A    between atoms: C2_50  and  C1_51
REMARK                            x       y       z     vdW  Elec       q    Type
REMARK                         _______ _______ _______ _____ _____    ______ ____
ROOT
ATOM      1 CL   UNL     1      34.848 152.352 337.799  0.00  0.00    -0.079 Cl
ATOM      2  C   UNL     1      33.665 153.600 337.583  0.00  0.00    +0.091 A 
ATOM      3  C   UNL     1      33.771 154.760 338.322  0.00  0.00    +0.012 A 
ATOM      4  C   UNL     1      32.837 155.776 338.170  0.00  0.00    -0.002 A 
ATOM      7  C   UNL     1      31.801 155.589 337.265  0.00  0.00    +0.000 A 
ATOM      8  C   UNL     1      31.692 154.427 336.523  0.00  0.00    +0.037 A 
ATOM      9  C   UNL     1      32.629 153.419 336.676  0.00  0.00    +0.149 A 
ENDROOT
BRANCH   4   5
ATOM      5  C   UNL     1      32.977 157.033 338.972  0.00  0.00    +0.136 C 
ATOM      6  N   UNL     1      34.018 157.862 338.361  0.00  0.00    -0.126 NA
ENDBRANCH   4   5
BRANCH   9  10
ATOM     10  O   UNL     1      32.615 152.229 335.998  0.00  0.00    -0.475 OA
BRANCH  10  11
ATOM     11  C   UNL     1      31.788 152.132 334.830  0.00  0.00    +0.205 C 
BRANCH  11  12
ATOM     12  C   UNL     1      31.440 150.698 334.593  0.00  0.00    +0.047 C 
ATOM     13  C   UNL     1      30.176 150.545 333.792  0.00  0.00    +0.004 C 
ENDBRANCH  11  12
ENDBRANCH  10  11
ENDBRANCH   9  10
TORSDOF 4
