REMARK  Name = 4dfn_ligand
REMARK  7 active torsions:
REMARK  status: ('A' for Active; 'I' for Inactive)
REMARK    1  A    between atoms: C1_1  and  C12_11
REMARK    2  A    between atoms: C4_4  and  C17_13
REMARK    3  A    between atoms: C7_7  and  N13_12
REMARK    4  A    between atoms: C8_8  and  C14_23
REMARK    5  A    between atoms: C23_16  and  N16_24
REMARK    6  A    between atoms: C30_19  and  O33_26
REMARK    7  A    between atoms: N20_32  and  C22_33
REMARK                            x       y       z     vdW  Elec       q    Type
REMARK                         _______ _______ _______ _____ _____    ______ ____
ROOT
ATOM      2  C   UNL     1       2.156  -0.899  14.796  0.00  0.00    +0.073 A 
ATOM      3  C   UNL     1       2.895  -1.672  15.689  0.00  0.00    +0.130 A 
ATOM      4  N   UNL     1       4.215  -1.356  15.979  0.00  0.00    -0.253 NA
ATOM      5  C   UNL     1       4.831  -0.272  15.380  0.00  0.00    +0.161 A 
ATOM      9  C   UNL     1       4.120   0.507  14.482  0.00  0.00    +0.169 A 
ATOM     26  N   UNL     1       2.794   0.192  14.217  0.00  0.00    -0.261 NA
ENDROOT
BRANCH   2   1
ATOM      1  C   UNL     1       0.711  -1.171  14.468  0.00  0.00    -0.005 A 
ATOM     27  C   UNL     1       0.050  -2.328  14.885  0.00  0.00    +0.002 A 
ATOM     28  C   UNL     1      -1.285  -2.536  14.578  0.00  0.00    -0.005 A 
ATOM     29  C   UNL     1      -1.996  -1.591  13.859  0.00  0.00    -0.004 A 
ATOM     30  C   UNL     1      -1.363  -0.429  13.437  0.00  0.00    -0.034 A 
ATOM     37  C   UNL     1      -0.017  -0.223  13.753  0.00  0.00    +0.006 A 
BRANCH  30  31
ATOM     31  C   UNL     1      -2.122   0.595  12.683  0.00  0.00    +0.001 A 
ATOM     32  C   UNL     1      -3.486   0.713  12.560  0.00  0.00    +0.074 A 
ATOM     33  N   UNL     1      -3.758   1.791  11.799  0.00  0.00    -0.214 NA
ATOM     34  N   UNL     1      -2.672   2.335  11.475  0.00  0.00    -0.206 N 
ATOM     35  C   UNL     1      -2.561   3.542  10.651  0.00  0.00    +0.244 C 
ATOM     36  C   UNL     1      -1.626   1.660  11.979  0.00  0.00    +0.168 A 
ENDBRANCH  30  31
ENDBRANCH   2   1
BRANCH   9  10
ATOM     10  C   UNL     1       4.717   1.703  13.830  0.00  0.00    +0.225 C 
ATOM     11  N   UNL     1       3.908   2.427  12.979  0.00  0.00    -0.281 N 
ATOM     12  H   UNL     1       2.988   2.048  12.880  0.00  0.00    +0.185 HD
ATOM     25  O   UNL     1       5.846   2.055  14.055  0.00  0.00    -0.383 OA
BRANCH  11  13
ATOM     13  C   UNL     1       4.135   3.659  12.181  0.00  0.00    +0.103 C 
ATOM     14  C   UNL     1       3.329   3.656  10.848  0.00  0.00    +0.017 C 
ATOM     15  C   UNL     1       1.817   3.583  11.106  0.00  0.00    +0.040 C 
ATOM     16  C   UNL     1       1.377   4.741  12.027  0.00  0.00    +0.067 C 
ATOM     17  C   UNL     1       2.186   4.765  13.335  0.00  0.00    +0.040 C 
ATOM     20  C   UNL     1       1.636   6.057  11.263  0.00  0.00    +0.038 C 
ATOM     21  C   UNL     1       3.142   6.169  10.929  0.00  0.00    -0.008 C 
ATOM     22  C   UNL     1       3.923   6.178  12.242  0.00  0.00    +0.009 C 
ATOM     23  C   UNL     1       3.613   4.969  10.087  0.00  0.00    +0.009 C 
ATOM     24  C   UNL     1       3.687   4.871  13.020  0.00  0.00    +0.017 C 
BRANCH  16  18
ATOM     18  O   UNL     1      -0.001   4.596  12.352  0.00  0.00    -0.389 OA
ATOM     19  H   UNL     1      -0.131   3.780  12.820  0.00  0.00    +0.210 HD
ENDBRANCH  16  18
ENDBRANCH  11  13
ENDBRANCH   9  10
BRANCH   5   6
ATOM      6  N   UNL     1       6.169   0.020  15.684  0.00  0.00    -0.311 N 
ATOM      7  H   UNL     1       6.635   0.823  15.238  0.00  0.00    +0.182 HD
ATOM      8  H   UNL     1       6.685  -0.568  16.354  0.00  0.00    +0.182 HD
ENDBRANCH   5   6
TORSDOF 6
