REMARK  Name = 4FK3
REMARK  6 active torsions:
REMARK  status: ('A' for Active; 'I' for Inactive)
REMARK    1  A    between atoms: C_2  and  C_3
REMARK    2  A    between atoms: C_2  and  C_17
REMARK    3  A    between atoms: N_7  and  S_8
REMARK    4  A    between atoms: S_8  and  C_9
REMARK    5  A    between atoms: C_9  and  C_10
REMARK    6  A    between atoms: C_25  and  C_26
REMARK                            x       y       z     vdW  Elec       q    Type
REMARK                         _______ _______ _______ _____ _____    ______ ____
ROOT
ATOM      1  O   UNL     1      -2.146  49.984  21.929  0.00  0.00    -0.286 OA
ATOM      2  C   UNL     1      -1.687  50.503  20.917  0.00  0.00    +0.201 C 
ENDROOT
BRANCH   2   3
ATOM      3  C   UNL     1      -2.565  50.834  19.788  0.00  0.00    +0.051 A 
ATOM      4  C   UNL     1      -2.102  51.400  18.626  0.00  0.00    +0.125 A 
ATOM      5  N   UNL     1      -3.060  51.609  17.758  0.00  0.00    -0.235 NA
ATOM      6  C   UNL     1      -4.174  51.203  18.279  0.00  0.00    +0.161 A 
ATOM      7  N   UNL     1      -5.441  51.215  17.754  0.00  0.00    -0.235 NA
ATOM      8  C   UNL     1      -6.527  50.723  18.482  0.00  0.00    +0.121 A 
ATOM      9  C   UNL     1      -6.346  50.205  19.783  0.00  0.00    +0.002 A 
ATOM     16  C   UNL     1      -5.053  50.180  20.347  0.00  0.00    +0.022 A 
ATOM     17  C   UNL     1      -3.943  50.678  19.611  0.00  0.00    +0.032 A 
BRANCH   9  10
ATOM     10  C   UNL     1      -7.511  49.688  20.531  0.00  0.00    +0.002 A 
ATOM     11  C   UNL     1      -7.488  48.434  21.160  0.00  0.00    +0.011 A 
ATOM     12  C   UNL     1      -8.598  47.960  21.856  0.00  0.00    +0.020 A 
ATOM     13  C   UNL     1      -9.724  48.761  21.902  0.00  0.00    +0.111 A 
ATOM     14  N   UNL     1      -9.806  49.973  21.313  0.00  0.00    -0.263 NA
ATOM     15  C   UNL     1      -8.706  50.401  20.645  0.00  0.00    +0.119 A 
ENDBRANCH   9  10
ENDBRANCH   2   3
BRANCH   2  18
ATOM     18  C   UNL     1      -0.245  50.795  20.844  0.00  0.00    +0.094 C 
ATOM     19  C   UNL     1       0.194  52.105  20.995  0.00  0.00    +0.134 C 
ATOM     20  F   UNL     1      -0.673  53.103  21.210  0.00  0.00    -0.205 F 
ATOM     21  C   UNL     1       1.546  52.399  20.921  0.00  0.00    +0.018 C 
ATOM     22  C   UNL     1       2.470  51.372  20.698  0.00  0.00    +0.090 C 
ATOM     23  C   UNL     1       2.077  50.026  20.535  0.00  0.00    +0.102 C 
ATOM     24  N   UNL     1       2.897  48.966  20.311  0.00  0.00    -0.135 NA
ATOM     30  C   UNL     1       0.691  49.779  20.616  0.00  0.00    +0.160 C 
ATOM     31  F   UNL     1       0.249  48.518  20.471  0.00  0.00    -0.203 F 
BRANCH  24  25
ATOM     25  S   UNL     1       4.484  49.046  20.191  0.00  0.00    +0.070 S 
ATOM     26  O   UNL     1       5.148  49.928  21.146  0.00  0.00    -0.152 OA
ATOM     27  O   UNL     1       5.153  47.770  19.955  0.00  0.00    -0.152 OA
BRANCH  25  28
ATOM     28  C   UNL     1       4.648  49.875  18.608  0.00  0.00    +0.189 C 
ATOM     29  C   UNL     1       4.692  48.893  17.452  0.00  0.00    +0.030 C 
ENDBRANCH  25  28
ENDBRANCH  24  25
ENDBRANCH   2  18
TORSDOF 5
