REMARK  Name = DXV
REMARK  4 active torsions:
REMARK  status: ('A' for Active; 'I' for Inactive)
REMARK    1  A    between atoms: C6_4  and  C1_17
REMARK    2  A    between atoms: C11_5  and  C9_8
REMARK    3  A    between atoms: C8_7  and  C13_11
REMARK    4  A    between atoms: C18_22  and  C20_24
REMARK                            x       y       z     vdW  Elec       q    Type
REMARK                         _______ _______ _______ _____ _____    ______ ____
ROOT
ATOM     12  C   UNL     1     -15.881  -0.644 -58.075  0.00  0.00    +0.054 C 
ATOM     13  C   UNL     1     -14.659  -1.003 -58.570  0.00  0.00    +0.236 C 
ATOM     14  N   UNL     1     -14.677  -1.036 -59.944  0.00  0.00    -0.030 NA
ATOM     15  C   UNL     1     -15.927  -0.710 -60.369  0.00  0.00    +0.375 C 
ATOM     16  N   UNL     1     -16.335  -0.642 -61.645  0.00  0.00    -0.035 NA
ATOM     17  C   UNL     1     -17.604  -0.298 -61.835  0.00  0.00    +0.218 C 
ATOM     18  C   UNL     1     -18.511  -0.008 -60.780  0.00  0.00    +0.114 C 
ATOM     19  C   UNL     1     -18.053  -0.091 -59.468  0.00  0.00    -0.006 C 
ATOM     26  C   UNL     1     -16.728  -0.445 -59.230  0.00  0.00    +0.089 C 
ENDROOT
BRANCH  12  11
ATOM      4  C   UNL     1     -17.976  -0.494 -54.944  0.00  0.00    -0.016 A 
ATOM      5  C   UNL     1     -17.008  -0.183 -53.974  0.00  0.00    +0.076 A 
ATOM      9  C   UNL     1     -15.670  -0.039 -54.369  0.00  0.00    +0.006 A 
ATOM     10  C   UNL     1     -15.304  -0.191 -55.695  0.00  0.00    +0.000 A 
ATOM     11  C   UNL     1     -16.257  -0.496 -56.658  0.00  0.00    +0.004 A 
ATOM     27  C   UNL     1     -17.584  -0.642 -56.265  0.00  0.00    -0.004 A 
BRANCH   4   3
ATOM      1  C   UNL     1     -21.622  -0.302 -55.609  0.00  0.00    +0.000 C 
ATOM      2  C   UNL     1     -20.354   0.413 -55.177  0.00  0.00    +0.004 C 
ATOM      3  C   UNL     1     -19.445  -0.673 -54.614  0.00  0.00    +0.022 C 
ATOM     28  C   UNL     1     -20.071  -1.991 -55.084  0.00  0.00    +0.004 C 
ATOM     29  C   UNL     1     -21.164  -1.606 -56.069  0.00  0.00    +0.000 C 
ENDBRANCH   4   3
BRANCH   5   6
ATOM      6  C   UNL     1     -17.330  -0.013 -52.524  0.00  0.00    +0.387 C 
ATOM      7  O   UNL     1     -16.639  -0.641 -51.716  0.00  0.00    -0.241 OA
ATOM      8  O   UNL     1     -18.253   0.762 -52.206  0.00  0.00    -0.241 OA
ENDBRANCH   5   6
ENDBRANCH  12  11
BRANCH  18  20
ATOM     20  C   UNL     1     -19.935   0.344 -61.055  0.00  0.00    -0.011 A 
ATOM     21  C   UNL     1     -20.898   0.308 -60.042  0.00  0.00    -0.004 A 
ATOM     22  C   UNL     1     -22.224   0.627 -60.298  0.00  0.00    -0.000 A 
ATOM     23  C   UNL     1     -22.625   0.940 -61.575  0.00  0.00    -0.000 A 
ATOM     24  C   UNL     1     -21.699   0.971 -62.595  0.00  0.00    -0.000 A 
ATOM     25  C   UNL     1     -20.370   0.667 -62.343  0.00  0.00    -0.004 A 
ENDBRANCH  18  20
TORSDOF 4
