REMARK  Name = 3QZF
REMARK  2 active torsions:
REMARK  status: ('A' for Active; 'I' for Inactive)
REMARK    1  A    between atoms: C_2  and  N_3
REMARK    2  A    between atoms: C_7  and  O_8
REMARK                            x       y       z     vdW  Elec       q    Type
REMARK                         _______ _______ _______ _____ _____    ______ ____
ROOT
ATOM      1  N   UNL     1      89.065 117.313 -44.731  0.00  0.00    -0.299 N 
ATOM      2  H   UNL     1      88.308 117.424 -43.983  0.00  0.00    +0.171 HD
ATOM      3  C   UNL     1      88.999 118.047 -45.898  0.00  0.00    +0.202 C 
ATOM      4  N   UNL     1      88.031 118.869 -46.112  0.00  0.00    -0.268 NA
ATOM      5  H   UNL     1      87.997 119.430 -47.023  0.00  0.00    +0.190 HD
ATOM      6  N   UNL     1      89.966 117.894 -46.837  0.00  0.00    -0.311 N 
ATOM      7  H   UNL     1      89.907 118.467 -47.739  0.00  0.00    +0.170 HD
ATOM      8  C   UNL     1      91.019 117.028 -46.668  0.00  0.00    +0.144 C 
ATOM      9  C   UNL     1      91.987 116.881 -47.645  0.00  0.00    +0.043 C 
ATOM     10  C   UNL     1      93.083 115.954 -47.438  0.00  0.00    +0.117 C 
ATOM     11  C   UNL     1      94.112 115.760 -48.434  0.00  0.00    +0.142 C 
ATOM     12  O   UNL     1      95.070 114.970 -48.274  0.00  0.00    -0.297 OA
ATOM     13  C   UNL     1      94.046 116.494 -49.652  0.00  0.00    +0.105 C 
ATOM     14  C   UNL     1      92.988 117.412 -49.890  0.00  0.00    +0.026 C 
ATOM     15  C   UNL     1      91.957 117.630 -48.916  0.00  0.00    +0.120 C 
ATOM     18  N   UNL     1      91.076 116.300 -45.498  0.00  0.00    -0.199 NA
ATOM     19  C   UNL     1      90.110 116.437 -44.532  0.00  0.00    +0.195 C 
ENDROOT
BRANCH  19  20
ATOM     20  N   UNL     1      90.187 115.743 -43.450  0.00  0.00    -0.329 NA
ATOM     21  H   UNL     1      91.003 115.066 -43.306  0.00  0.00    +0.145 HD
ATOM     22  H   UNL     1      89.435 115.844 -42.695  0.00  0.00    +0.145 HD
ENDBRANCH  19  20
BRANCH  15  16
ATOM     16  O   UNL     1      90.938 118.542 -49.187  0.00  0.00    -0.507 OA
ATOM     17  H   UNL     1      90.012 118.047 -49.173  0.00  0.00    +0.292 HD
ENDBRANCH  15  16
TORSDOF 2
