REMARK  Name = 5HKM
REMARK  4 active torsions:
REMARK  status: ('A' for Active; 'I' for Inactive)
REMARK    1  A    between atoms: C_1  and  C_12
REMARK    2  A    between atoms: C_5  and  C_6
REMARK    3  A    between atoms: C_8  and  C_23
REMARK    4  A    between atoms: C_10  and  C_23
REMARK                            x       y       z     vdW  Elec       q    Type
REMARK                         _______ _______ _______ _____ _____    ______ ____
ROOT
ATOM      1  C   UNL     1      32.709 -25.988 -13.024  0.00  0.00    +0.004 A 
ATOM      2  C   UNL     1      33.796 -26.789 -12.702  0.00  0.00    +0.022 A 
ATOM      3  C   UNL     1      33.541 -28.089 -12.314  0.00  0.00    +0.030 A 
ATOM      4  C   UNL     1      34.361 -29.217 -11.907  0.00  0.00    +0.029 A 
ATOM     16  C   UNL     1      33.520 -30.221 -11.668  0.00  0.00    +0.124 A 
ATOM     17  N   UNL     1      32.266 -29.827 -11.882  0.00  0.00    -0.235 NA
ATOM     18  C   UNL     1      32.226 -28.537 -12.277  0.00  0.00    +0.160 A 
ATOM     19  N   UNL     1      31.237 -27.734 -12.603  0.00  0.00    -0.235 NA
ATOM     26  C   UNL     1      31.430 -26.515 -12.951  0.00  0.00    +0.121 A 
ENDROOT
BRANCH   4   5
ATOM      5  C   UNL     1      35.822 -29.340 -11.811  0.00  0.00    +0.078 A 
ATOM      6  N   UNL     1      36.297 -30.462 -11.346  0.00  0.00    -0.215 NA
ATOM      7  C   UNL     1      37.571 -30.662 -11.261  0.00  0.00    +0.213 A 
ATOM      8  N   UNL     1      37.999 -31.850 -10.737  0.00  0.00    -0.328 N 
ATOM      9  H   UNL     1      39.047 -32.050 -10.651  0.00  0.00    +0.145 HD
ATOM     10  H   UNL     1      37.286 -32.579 -10.413  0.00  0.00    +0.145 HD
ATOM     11  N   UNL     1      38.455 -29.778 -11.638  0.00  0.00    -0.220 NA
ATOM     12  C   UNL     1      38.063 -28.634 -12.139  0.00  0.00    +0.047 A 
ATOM     15  C   UNL     1      36.715 -28.368 -12.241  0.00  0.00    +0.051 A 
BRANCH  12  13
ATOM     13  C   UNL     1      39.096 -27.630 -12.561  0.00  0.00    +0.052 C 
ATOM     14  C   UNL     1      39.843 -27.123 -11.344  0.00  0.00    +0.010 C 
ENDBRANCH  12  13
ENDBRANCH   4   5
BRANCH   1  20
ATOM     20  C   UNL     1      32.882 -24.587 -13.442  0.00  0.00    +0.021 A 
ATOM     21  C   UNL     1      34.011 -23.804 -13.259  0.00  0.00    +0.142 A 
ATOM     22  N   UNL     1      33.794 -22.633 -13.741  0.00  0.00    -0.182 NA
ATOM     23  N   UNL     1      32.520 -22.632 -14.255  0.00  0.00    -0.284 N 
ATOM     24  H   UNL     1      32.045 -21.802 -14.735  0.00  0.00    +0.188 HD
ATOM     25  C   UNL     1      31.973 -23.827 -14.061  0.00  0.00    +0.113 A 
ENDBRANCH   1  20
TORSDOF 3
