REMARK  Name = 4anu_ligand
REMARK  4 active torsions:
REMARK  status: ('A' for Active; 'I' for Inactive)
REMARK    1  A    between atoms: C13_1  and  N7_2
REMARK    2  A    between atoms: C12_3  and  C5_5
REMARK    3  A    between atoms: C2_11  and  C7_12
REMARK    4  A    between atoms: C9_17  and  C1_18
REMARK                            x       y       z     vdW  Elec       q    Type
REMARK                         _______ _______ _______ _____ _____    ______ ____
ROOT
ATOM      5  C   UNL     1      47.487  12.611  30.419  0.00  0.00    +0.169 A 
ATOM      6  C   UNL     1      48.153  11.582  29.728  0.00  0.00    +0.161 A 
ATOM      7  N   UNL     1      47.504  10.464  29.362  0.00  0.00    -0.253 NA
ATOM      8  C   UNL     1      46.228  10.313  29.667  0.00  0.00    +0.130 A 
ATOM      9  C   UNL     1      45.547  11.323  30.358  0.00  0.00    +0.075 A 
ATOM     22  N   UNL     1      49.431  11.687  29.401  0.00  0.00    -0.311 N 
ATOM     23  H   UNL     1      49.957  12.521  29.662  0.00  0.00    +0.182 HD
ATOM     24  H   UNL     1      49.890  10.934  28.888  0.00  0.00    +0.182 HD
ATOM     25  N   UNL     1      46.204  12.427  30.716  0.00  0.00    -0.260 NA
ENDROOT
BRANCH   9  10
ATOM     10  C   UNL     1      44.207  11.243  30.734  0.00  0.00    +0.005 A 
ATOM     11  C   UNL     1      43.280  10.436  30.086  0.00  0.00    +0.017 A 
ATOM     12  C   UNL     1      41.951  10.404  30.543  0.00  0.00    +0.007 A 
ATOM     13  C   UNL     1      41.526  11.161  31.637  0.00  0.00    +0.023 A 
ATOM     14  C   UNL     1      42.462  11.958  32.283  0.00  0.00    +0.042 A 
ATOM     21  C   UNL     1      43.784  11.990  31.833  0.00  0.00    +0.033 A 
BRANCH  14  15
ATOM     15  C   UNL     1      42.105  12.750  33.370  0.00  0.00    +0.186 A 
ATOM     16  N   UNL     1      42.100  14.080  33.420  0.00  0.00    -0.207 NA
ATOM     17  N   UNL     1      41.740  14.421  34.548  0.00  0.00    -0.138 NA
ATOM     18  N   UNL     1      41.514  13.407  35.228  0.00  0.00    -0.064 NA
ATOM     19  N   UNL     1      41.713  12.373  34.577  0.00  0.00    -0.151 N 
ATOM     20  H   UNL     1      41.597  11.415  34.907  0.00  0.00    +0.271 HD
ENDBRANCH  14  15
ENDBRANCH   9  10
BRANCH   5   4
ATOM      1  C   UNL     1      47.875  16.104  31.960  0.00  0.00    +0.164 C 
ATOM      2  N   UNL     1      47.316  14.827  31.476  0.00  0.00    -0.288 N 
ATOM      3  H   UNL     1      46.322  14.623  31.578  0.00  0.00    +0.184 HD
ATOM      4  C   UNL     1      48.141  13.938  30.898  0.00  0.00    +0.224 C 
ATOM     26  O   UNL     1      49.348  14.133  30.778  0.00  0.00    -0.383 OA
ENDBRANCH   5   4
TORSDOF 3
