REMARK  Name = GUB
REMARK  6 active torsions:
REMARK  status: ('A' for Active; 'I' for Inactive)
REMARK    1  A    between atoms: C2_1  and  C3_2
REMARK    2  A    between atoms: C2_1  and  C1_22
REMARK    3  A    between atoms: C3_2  and  N4_21
REMARK    4  A    between atoms: C5_3  and  N4_21
REMARK    5  A    between atoms: C17_5  and  C16_6
REMARK    6  A    between atoms: C14_10  and  N13_13
REMARK                            x       y       z     vdW  Elec       q    Type
REMARK                         _______ _______ _______ _____ _____    ______ ____
ROOT
ATOM     10  C   UNL     1     -25.680   5.541 -10.036  0.00  0.00    +0.170 A 
ATOM     11  C   UNL     1     -24.899   4.563 -10.665  0.00  0.00    +0.150 A 
ATOM     12  N   UNL     1     -23.759   3.885 -10.363  0.00  0.00    -0.219 NA
ATOM     13  C   UNL     1     -23.508   3.032 -11.384  0.00  0.00    +0.182 A 
ATOM     14  N   UNL     1     -24.460   3.179 -12.335  0.00  0.00    -0.269 N 
ATOM     24  C   UNL     1     -25.319   4.102 -11.913  0.00  0.00    +0.169 A 
ATOM     25  N   UNL     1     -26.428   4.593 -12.514  0.00  0.00    -0.205 NA
ATOM     26  C   UNL     1     -27.159   5.534 -11.893  0.00  0.00    +0.202 A 
ATOM     27  N   UNL     1     -26.777   6.013 -10.692  0.00  0.00    -0.206 NA
ENDROOT
BRANCH  14  15
ATOM     15  C1* UNL     1     -24.598   2.489 -13.663  0.00  0.00    +0.241 C 
ATOM     16  O4* UNL     1     -23.962   1.229 -13.585  0.00  0.00    -0.331 OA
ATOM     17  C4* UNL     1     -22.595   1.518 -13.833  0.00  0.00    +0.183 C 
ATOM     20  C3* UNL     1     -22.414   2.804 -14.660  0.00  0.00    +0.216 C 
ATOM     21  O3* UNL     1     -21.614   2.751 -15.859  0.00  0.00    -0.218 OA
ATOM     22  C2* UNL     1     -23.862   3.255 -14.780  0.00  0.00    +0.234 C 
ATOM     23  O2* UNL     1     -24.374   2.831 -16.043  0.00  0.00    -0.216 OA
BRANCH  17  18
ATOM     18  C5* UNL     1     -21.575   0.427 -13.768  0.00  0.00    +0.214 C 
ATOM     19  O5* UNL     1     -21.049   1.049 -12.580  0.00  0.00    -0.218 OA
ENDBRANCH  17  18
ENDBRANCH  14  15
BRANCH  10   9
ATOM      9  N   UNL     1     -25.392   6.108  -8.830  0.00  0.00    -0.219 NA
BRANCH   9   8
ATOM      8  C   UNL     1     -24.263   5.714  -7.984  0.00  0.00    +0.118 C 
BRANCH   8   1
ATOM      1  C   UNL     1     -24.777   5.626  -6.550  0.00  0.00    +0.050 C 
BRANCH   1   2
ATOM      2  C   UNL     1     -23.727   5.102  -5.581  0.00  0.00    -0.020 A 
ATOM      3  C   UNL     1     -23.057   5.991  -4.739  0.00  0.00    -0.004 A 
ATOM      4  C   UNL     1     -22.091   5.519  -3.855  0.00  0.00    -0.000 A 
ATOM      5  C   UNL     1     -21.821   4.159  -3.774  0.00  0.00    -0.000 A 
ATOM      6  C   UNL     1     -22.507   3.261  -4.610  0.00  0.00    -0.000 A 
ATOM      7  C   UNL     1     -23.465   3.737  -5.510  0.00  0.00    -0.004 A 
ENDBRANCH   1   2
ENDBRANCH   8   1
ENDBRANCH   9   8
ENDBRANCH  10   9
TORSDOF 6
