REMARK  Name = JQ1
REMARK  5 active torsions:
REMARK  status: ('A' for Active; 'I' for Inactive)
REMARK    1  A    between atoms: CAM_13  and  CAS_19
REMARK    2  A    between atoms: CAM_13  and  CBC_29
REMARK    3  A    between atoms: OAQ_17  and  CAS_19
REMARK    4  A    between atoms: OAQ_17  and  CBE_31
REMARK    5  A    between atoms: CAT_20  and  CAW_23
REMARK                            x       y       z     vdW  Elec       q    Type
REMARK                         _______ _______ _______ _____ _____    ______ ____
ROOT
ATOM      1  C   UNL     1      26.873  22.272  15.190  0.00  0.00    +0.074 C 
ATOM      2  C   UNL     1      27.475  23.623  15.325  0.00  0.00    +0.148 A 
ATOM      3  N   UNL     1      28.432  23.942  16.193  0.00  0.00    -0.274 N 
ATOM      4  C   UNL     1      29.040  23.244  17.201  0.00  0.00    +0.097 A 
ATOM      5  S   UNL     1      28.197  22.146  18.247  0.00  0.00    -0.074 S 
ATOM      6  C   UNL     1      29.565  21.856  19.222  0.00  0.00    +0.005 A 
ATOM      7  C   UNL     1      29.494  20.889  20.417  0.00  0.00    +0.038 C 
ATOM      8  C   UNL     1      30.685  22.587  18.785  0.00  0.00    -0.016 A 
ATOM      9  C   UNL     1      32.035  22.547  19.536  0.00  0.00    +0.031 C 
ATOM     10  C   UNL     1      30.397  23.377  17.636  0.00  0.00    +0.036 A 
ATOM     11  C   UNL     1      31.345  24.202  16.927  0.00  0.00    +0.078 C 
ATOM     18  N   UNL     1      31.043  25.389  16.393  0.00  0.00    -0.264 NA
ATOM     19  C   UNL     1      29.756  26.042  16.714  0.00  0.00    +0.173 C 
ATOM     28  C   UNL     1      28.671  25.233  15.979  0.00  0.00    +0.170 A 
ATOM     29  N   UNL     1      27.900  25.668  14.982  0.00  0.00    -0.131 NA
ATOM     30  N   UNL     1      27.172  24.683  14.581  0.00  0.00    -0.133 NA
ENDROOT
BRANCH  11  12
ATOM     12  C   UNL     1      32.634  23.665  16.651  0.00  0.00    +0.017 A 
ATOM     13  C   UNL     1      32.840  22.286  16.533  0.00  0.00    +0.001 A 
ATOM     14  C   UNL     1      34.089  21.741  16.317  0.00  0.00    +0.000 A 
ATOM     15  C   UNL     1      35.167  22.584  16.179  0.00  0.00    +0.000 A 
ATOM     16  C   UNL     1      34.997  23.956  16.302  0.00  0.00    +0.000 A 
ATOM     17  C   UNL     1      33.741  24.470  16.498  0.00  0.00    +0.001 A 
ENDBRANCH  11  12
BRANCH  19  20
ATOM     20  C   UNL     1      29.790  27.512  16.349  0.00  0.00    +0.142 C 
BRANCH  20  21
ATOM     21  C   UNL     1      30.917  28.231  17.029  0.00  0.00    +0.319 C 
ATOM     27  O   UNL     1      31.186  29.395  16.774  0.00  0.00    -0.250 OA
BRANCH  21  22
ATOM     22  O   UNL     1      31.447  27.652  18.091  0.00  0.00    -0.456 OA
BRANCH  22  23
ATOM     23  C   UNL     1      32.650  28.151  18.751  0.00  0.00    +0.136 C 
ATOM     24  C   UNL     1      32.299  29.291  19.680  0.00  0.00    +0.044 C 
ATOM     25  C   UNL     1      33.120  26.943  19.585  0.00  0.00    +0.044 C 
ATOM     26  C   UNL     1      33.786  28.503  17.804  0.00  0.00    +0.044 C 
ENDBRANCH  22  23
ENDBRANCH  21  22
ENDBRANCH  20  21
ENDBRANCH  19  20
TORSDOF 5
