REMARK  Name = EU4
REMARK  5 active torsions:
REMARK  status: ('A' for Active; 'I' for Inactive)
REMARK    1  A    between atoms: C13_3  and  C19_21
REMARK    2  A    between atoms: C21_7  and  C25_23
REMARK    3  A    between atoms: C02_11  and  N04_31
REMARK    4  A    between atoms: C06_13  and  C07_14
REMARK    5  A    between atoms: C08_15  and  C09_16
REMARK                            x       y       z     vdW  Elec       q    Type
REMARK                         _______ _______ _______ _____ _____    ______ ____
ROOT
ATOM      1  C   UNL     1     -31.269  26.343   3.500  0.00  0.00    +0.027 A 
ATOM      2  C   UNL     1     -31.995  25.958   4.665  0.00  0.00    +0.099 A 
ATOM      3  N   UNL     1     -31.511  26.240   5.892  0.00  0.00    -0.244 NA
ATOM      4  C   UNL     1     -30.332  26.890   6.033  0.00  0.00    +0.081 A 
ATOM     15  C   UNL     1     -29.609  27.278   4.918  0.00  0.00    +0.019 A 
ATOM     16  C   UNL     1     -30.090  26.995   3.629  0.00  0.00    +0.004 A 
ATOM     17  C   UNL     1     -29.355  27.387   2.471  0.00  0.00    +0.000 A 
ATOM     18  C   UNL     1     -29.847  27.099   1.206  0.00  0.00    +0.001 A 
ATOM     19  C   UNL     1     -31.059  26.428   1.071  0.00  0.00    +0.008 A 
ATOM     20  C   UNL     1     -31.776  26.047   2.196  0.00  0.00    +0.043 A 
ENDROOT
BRANCH   4   5
ATOM      5  C   UNL     1     -29.789  27.209   7.419  0.00  0.00    +0.018 A 
ATOM      6  C   UNL     1     -29.822  26.248   8.418  0.00  0.00    +0.005 A 
ATOM      7  C   UNL     1     -29.324  26.542   9.677  0.00  0.00    +0.071 A 
ATOM     12  C   UNL     1     -28.796  27.792   9.936  0.00  0.00    +0.004 A 
ATOM     13  C   UNL     1     -28.761  28.752   8.936  0.00  0.00    -0.000 A 
ATOM     14  C   UNL     1     -29.257  28.458   7.677  0.00  0.00    +0.002 A 
BRANCH   7   8
ATOM      8  C   UNL     1     -29.363  25.486  10.785  0.00  0.00    +0.419 C 
ATOM      9  F   UNL     1     -28.702  25.955  11.882  0.00  0.00    -0.166 F 
ATOM     10  F   UNL     1     -30.662  25.216  11.115  0.00  0.00    -0.166 F 
ATOM     11  F   UNL     1     -28.761  24.342  10.347  0.00  0.00    -0.166 F 
ENDBRANCH   7   8
ENDBRANCH   4   5
BRANCH  20  21
ATOM     21  C   UNL     1     -33.106  25.310   2.019  0.00  0.00    -0.058 C 
ATOM     22  C   UNL     1     -34.137  24.737   1.852  0.00  0.00    -0.039 C 
BRANCH  22  23
ATOM     23  C   UNL     1     -35.458  23.994   1.629  0.00  0.00    +0.148 A 
ATOM     24  N   UNL     1     -36.666  24.510   1.752  0.00  0.00    -0.160 NA
ATOM     25  N   UNL     1     -37.565  23.552   1.476  0.00  0.00    -0.235 N 
ATOM     29  C   UNL     1     -36.954  22.389   1.170  0.00  0.00    +0.166 A 
ATOM     30  N   UNL     1     -37.420  21.159   0.829  0.00  0.00    -0.205 NA
ATOM     31  C   UNL     1     -36.582  20.170   0.573  0.00  0.00    +0.202 A 
ATOM     32  N   UNL     1     -35.261  20.335   0.637  0.00  0.00    -0.205 NA
ATOM     33  C   UNL     1     -34.742  21.518   0.967  0.00  0.00    +0.176 A 
ATOM     34  N   UNL     1     -33.310  21.683   1.035  0.00  0.00    -0.107 NA
ATOM     35  C   UNL     1     -35.596  22.609   1.250  0.00  0.00    +0.097 A 
BRANCH  25  26
ATOM     26  C   UNL     1     -38.995  23.740   1.509  0.00  0.00    +0.107 C 
ATOM     27  C   UNL     1     -39.489  23.671   2.950  0.00  0.00    +0.026 C 
ATOM     28  C   UNL     1     -39.356  25.063   0.843  0.00  0.00    +0.026 C 
ENDBRANCH  25  26
ENDBRANCH  22  23
ENDBRANCH  20  21
TORSDOF 5
