REMARK  Name = 4FKP
REMARK  4 active torsions:
REMARK  status: ('A' for Active; 'I' for Inactive)
REMARK    1  A    between atoms: C_3  and  C_11
REMARK    2  A    between atoms: N_12  and  C_13
REMARK    3  A    between atoms: C_16  and  S_19
REMARK    4  A    between atoms: S_19  and  N_22
REMARK                            x       y       z     vdW  Elec       q    Type
REMARK                         _______ _______ _______ _____ _____    ______ ____
ROOT
ATOM     10  C   UNL     1      -3.549   7.623 -28.700  0.00  0.00    +0.064 A 
ATOM     11  C   UNL     1      -4.412   7.763 -29.797  0.00  0.00    +0.029 A 
ATOM     12  C   UNL     1      -5.417   8.740 -29.847  0.00  0.00    +0.032 A 
ATOM     13  C   UNL     1      -5.563   9.580 -28.729  0.00  0.00    +0.124 A 
ATOM     25  C   UNL     1      -4.741   9.436 -27.605  0.00  0.00    +0.032 A 
ATOM     26  C   UNL     1      -3.750   8.438 -27.566  0.00  0.00    +0.029 A 
ENDROOT
BRANCH  13  14
ATOM     14  S   UNL     1      -6.806  10.782 -28.659  0.00  0.00    +0.120 S 
ATOM     23  O   UNL     1      -7.666  10.437 -27.490  0.00  0.00    -0.135 OA
ATOM     24  O   UNL     1      -7.544  10.768 -29.966  0.00  0.00    -0.135 OA
BRANCH  14  15
ATOM     15  N   UNL     1      -5.988  12.145 -28.374  0.00  0.00    -0.137 N 
ATOM     16  H   UNL     1      -6.098  12.623 -27.423  0.00  0.00    +0.291 HD
ATOM     17  C   UNL     1      -5.172  12.703 -29.291  0.00  0.00    +0.399 C 
ATOM     18  N   UNL     1      -5.088  12.247 -30.545  0.00  0.00    -0.288 N 
ATOM     19  H   UNL     1      -4.428  12.718 -31.243  0.00  0.00    +0.255 HD
ATOM     20  H   UNL     1      -5.681  11.411 -30.851  0.00  0.00    +0.255 HD
ATOM     21  N   UNL     1      -4.450  13.767 -28.959  0.00  0.00    -0.128 NA
ATOM     22  H   UNL     1      -3.799  14.218 -29.679  0.00  0.00    +0.306 HD
ENDBRANCH  14  15
ENDBRANCH  13  14
BRANCH  10   9
ATOM      8  C   UNL     1      -1.535   6.630 -27.902  0.00  0.00    +0.125 C 
ATOM      9  N   UNL     1      -2.620   6.647 -28.696  0.00  0.00    -0.255 NA
BRANCH   8   7
ATOM      1  N   UNL     1       0.024   3.414 -28.123  0.00  0.00    -0.176 NA
ATOM      2  C   UNL     1       0.844   3.999 -27.191  0.00  0.00    +0.065 A 
ATOM      3  C   UNL     1       0.421   5.322 -26.972  0.00  0.00    +0.012 A 
ATOM      4  C   UNL     1       1.132   6.157 -26.096  0.00  0.00    +0.010 A 
ATOM      5  C   UNL     1       2.207   5.622 -25.371  0.00  0.00    +0.001 A 
ATOM      6  C   UNL     1       2.642   4.298 -25.581  0.00  0.00    +0.002 A 
ATOM      7  C   UNL     1      -0.657   5.539 -27.859  0.00  0.00    +0.066 C 
ATOM     27  C   UNL     1       1.919   3.474 -26.469  0.00  0.00    +0.026 A 
ATOM     28  C   UNL     1      -0.883   4.320 -28.503  0.00  0.00    +0.270 C 
ATOM     29  O   UNL     1      -1.773   4.160 -29.350  0.00  0.00    -0.268 OA
ENDBRANCH   8   7
ENDBRANCH  10   9
TORSDOF 4
