REMARK  Name = 3c4f_ligand
REMARK  4 active torsions:
REMARK  status: ('A' for Active; 'I' for Inactive)
REMARK    1  A    between atoms: C15_1  and  O14_2
REMARK    2  A    between atoms: O14_2  and  C13_3
REMARK    3  A    between atoms: C11_8  and  C10_9
REMARK    4  A    between atoms: C10_9  and  C9_10
REMARK                            x       y       z     vdW  Elec       q    Type
REMARK                         _______ _______ _______ _____ _____    ______ ____
ROOT
ATOM      7  C   UNL     1       6.541   3.514  19.160  0.00  0.00    -0.027 A 
ATOM      8  C   UNL     1       5.618   2.563  18.992  0.00  0.00    +0.108 A 
ATOM      9  N   UNL     1       5.537   1.758  19.997  0.00  0.00    -0.274 N 
ATOM     10  H   UNL     1       4.905   0.947  20.060  0.00  0.00    +0.226 HD
ATOM     11  C   UNL     1       6.402   2.139  20.946  0.00  0.00    +0.132 A 
ATOM     12  N   UNL     1       6.624   1.597  22.143  0.00  0.00    -0.287 NA
ATOM     13  C   UNL     1       7.577   2.138  22.912  0.00  0.00    +0.068 A 
ATOM     14  C   UNL     1       8.300   3.262  22.495  0.00  0.00    +0.008 A 
ATOM     15  C   UNL     1       8.043   3.848  21.263  0.00  0.00    +0.012 A 
ATOM     16  C   UNL     1       7.087   3.221  20.503  0.00  0.00    +0.007 A 
ENDROOT
BRANCH   7   6
ATOM      6  C   UNL     1       6.940   4.649  18.215  0.00  0.00    +0.098 C 
BRANCH   6   5
ATOM      3  C   UNL     1       5.831   3.437  14.817  0.00  0.00    +0.084 A 
ATOM      4  C   UNL     1       6.554   3.605  15.986  0.00  0.00    +0.017 A 
ATOM      5  C   UNL     1       6.125   4.496  16.951  0.00  0.00    -0.047 A 
ATOM     17  C   UNL     1       4.950   5.200  16.758  0.00  0.00    -0.024 A 
ATOM     18  C   UNL     1       4.206   5.021  15.599  0.00  0.00    -0.020 A 
ATOM     19  C   UNL     1       4.652   4.138  14.625  0.00  0.00    +0.008 A 
BRANCH   3   2
ATOM      1  C   UNL     1       5.400   2.021  12.880  0.00  0.00    +0.232 C 
ATOM      2  O   UNL     1       6.285   2.513  13.896  0.00  0.00    -0.323 OA
ENDBRANCH   3   2
ENDBRANCH   6   5
ENDBRANCH   7   6
TORSDOF 3
