REMARK  Name = 3tnh_ligand
REMARK  4 active torsions:
REMARK  status: ('A' for Active; 'I' for Inactive)
REMARK    1  A    between atoms: C3_1  and  O3_4
REMARK    2  A    between atoms: C5_5  and  N9_8
REMARK    3  A    between atoms: N13_9  and  C14_10
REMARK    4  A    between atoms: C19_11  and  N16_12
REMARK                            x       y       z     vdW  Elec       q    Type
REMARK                         _______ _______ _______ _____ _____    ______ ____
ROOT
ATOM      7  C   UNL     1      53.768 -14.978 -12.745  0.00  0.00    +0.138 A 
ATOM      8  C   UNL     1      54.253 -13.667 -12.924  0.00  0.00    +0.101 A 
ATOM      9  N   UNL     1      53.433 -12.548 -13.042  0.00  0.00    -0.336 N 
ATOM     10  H   UNL     1      52.409 -12.653 -13.000  0.00  0.00    +0.170 HD
ATOM     11  H   UNL     1      53.850 -11.615 -13.171  0.00  0.00    +0.170 HD
ATOM     12  N   UNL     1      55.560 -13.708 -12.979  0.00  0.00    -0.235 NA
ATOM     13  N   UNL     1      55.977 -15.027 -12.844  0.00  0.00    -0.207 N 
ATOM     14  H   UNL     1      56.953 -15.357 -12.851  0.00  0.00    +0.246 HD
ATOM     15  C   UNL     1      54.879 -15.800 -12.702  0.00  0.00    +0.193 A 
ENDROOT
BRANCH  15  16
ATOM     16  N   UNL     1      54.835 -17.169 -12.550  0.00  0.00    -0.297 N 
ATOM     17  H   UNL     1      53.928 -17.648 -12.459  0.00  0.00    +0.186 HD
ATOM     18  H   UNL     1      55.709 -17.713 -12.527  0.00  0.00    +0.186 HD
ENDBRANCH  15  16
BRANCH   7   6
ATOM      5  N   UNL     1      51.556 -14.412 -12.563  0.00  0.00    -0.223 NA
ATOM      6  N   UNL     1      52.458 -15.341 -12.642  0.00  0.00    -0.217 NA
BRANCH   5   4
ATOM      1  C   UNL     1      47.524 -15.259 -12.274  0.00  0.00    +0.090 A 
ATOM      2  C   UNL     1      48.395 -16.296 -12.575  0.00  0.00    +0.025 A 
ATOM      3  C   UNL     1      49.745 -16.008 -12.663  0.00  0.00    +0.012 A 
ATOM      4  C   UNL     1      50.224 -14.704 -12.455  0.00  0.00    +0.044 A 
ATOM     19  C   UNL     1      49.331 -13.678 -12.150  0.00  0.00    +0.012 A 
ATOM     22  C   UNL     1      47.987 -13.967 -12.062  0.00  0.00    +0.025 A 
BRANCH   1  20
ATOM     20  O   UNL     1      46.200 -15.496 -12.181  0.00  0.00    -0.332 OA
ATOM     21  H   UNL     1      46.032 -16.416 -12.349  0.00  0.00    +0.249 HD
ENDBRANCH   1  20
ENDBRANCH   5   4
ENDBRANCH   7   6
TORSDOF 4
