REMARK  Name = 1XB
REMARK  3 active torsions:
REMARK  status: ('A' for Active; 'I' for Inactive)
REMARK    1  A    between atoms: C22_6  and  C21_14
REMARK    2  A    between atoms: C17_15  and  C16_20
REMARK    3  A    between atoms: C14_16  and  C16_20
REMARK                            x       y       z     vdW  Elec       q    Type
REMARK                         _______ _______ _______ _____ _____    ______ ____
ROOT
ATOM      3  C   UNL     1       7.756 -16.130  -2.591  0.00  0.00    +0.077 C 
ATOM      4  C   UNL     1       8.409 -16.089  -1.284  0.00  0.00    +0.020 A 
ATOM      5  C   UNL     1       7.824 -16.610  -0.141  0.00  0.00    +0.034 A 
ATOM      6  S   UNL     1       8.811 -16.452   1.248  0.00  0.00    -0.091 S 
ATOM      7  C   UNL     1      10.047 -15.684   0.333  0.00  0.00    +0.004 A 
ATOM      8  C   UNL     1      11.281 -15.264   1.028  0.00  0.00    +0.038 C 
ATOM      9  C   UNL     1       6.527 -17.106  -0.105  0.00  0.00    +0.058 A 
ATOM     10  C   UNL     1       5.874 -18.158   0.585  0.00  0.00    +0.101 A 
ATOM     11  C   UNL     1       6.421 -19.157   1.520  0.00  0.00    +0.056 C 
ATOM     12  N   UNL     1       4.570 -18.153   0.272  0.00  0.00    -0.082 NA
ATOM     13  O   UNL     1       4.368 -17.098  -0.625  0.00  0.00    -0.356 OA
ATOM     14  C   UNL     1       5.559 -16.464  -0.833  0.00  0.00    +0.177 A 
ATOM     15  C   UNL     1       5.714 -15.300  -1.737  0.00  0.00    +0.172 C 
ATOM     20  C   UNL     1       9.712 -15.561  -1.005  0.00  0.00    -0.018 A 
ATOM     21  C   UNL     1      10.596 -14.916  -1.997  0.00  0.00    +0.031 C 
ATOM     22  N   UNL     1       6.519 -15.802  -2.851  0.00  0.00    -0.264 NA
ENDROOT
BRANCH   3   2
ATOM      1  C   UNL     1       9.525 -17.652  -3.380  0.00  0.00    +0.002 A 
ATOM      2  C   UNL     1       8.558 -16.709  -3.686  0.00  0.00    +0.017 A 
ATOM     23  C   UNL     1       8.328 -16.345  -4.996  0.00  0.00    +0.002 A 
ATOM     24  C   UNL     1       9.093 -16.934  -5.986  0.00  0.00    +0.011 A 
ATOM     25  C   UNL     1      10.068 -17.865  -5.675  0.00  0.00    +0.058 A 
ATOM     26 CL   UNL     1      11.025 -18.591  -6.923  0.00  0.00    -0.082 Cl
ATOM     27  C   UNL     1      10.296 -18.236  -4.366  0.00  0.00    +0.011 A 
ENDBRANCH   3   2
BRANCH  15  16
ATOM     16  C   UNL     1       4.406 -14.797  -2.298  0.00  0.00    +0.121 C 
BRANCH  16  17
ATOM     17  C   UNL     1       4.665 -13.646  -3.221  0.00  0.00    +0.263 C 
ATOM     18  O   UNL     1       5.651 -12.923  -3.160  0.00  0.00    -0.272 OA
ATOM     19  N   UNL     1       3.655 -13.494  -4.135  0.00  0.00    -0.088 NA
ENDBRANCH  16  17
ENDBRANCH  15  16
TORSDOF 3
