REMARK  Name = GJD
REMARK  3 active torsions:
REMARK  status: ('A' for Active; 'I' for Inactive)
REMARK    1  A    between atoms: C5_3  and  CAG_18
REMARK    2  A    between atoms: CAS_6  and  CAQ_7
REMARK    3  A    between atoms: NAN_9  and  CAL_10
REMARK                            x       y       z     vdW  Elec       q    Type
REMARK                         _______ _______ _______ _____ _____    ______ ____
ROOT
ATOM      1  C   UNL     1     -14.732  -6.710  -1.798  0.00  0.00    +0.222 A 
ATOM      2  N   UNL     1     -14.940  -6.348  -0.532  0.00  0.00    -0.195 NA
ATOM      3  C   UNL     1     -16.130  -5.714  -0.240  0.00  0.00    +0.178 A 
ATOM      4  N   UNL     1     -16.373  -5.447   1.032  0.00  0.00    -0.107 NA
ATOM      5  C   UNL     1     -16.995  -5.450  -1.290  0.00  0.00    +0.111 A 
ATOM      9  C   UNL     1     -16.624  -5.810  -2.595  0.00  0.00    +0.109 A 
ATOM     10  N   UNL     1     -13.603  -7.346  -2.071  0.00  0.00    -0.276 N 
ATOM     11  C   UNL     1     -12.629  -7.721  -1.013  0.00  0.00    +0.115 C 
ATOM     12  C   UNL     1     -11.588  -8.606  -1.784  0.00  0.00    +0.117 C 
ATOM     18  C   UNL     1     -11.634  -8.063  -3.243  0.00  0.00    +0.045 C 
ATOM     19  C   UNL     1     -13.164  -7.758  -3.479  0.00  0.00    +0.096 C 
ATOM     20  N   UNL     1     -15.442  -6.436  -2.800  0.00  0.00    -0.212 NA
ENDROOT
BRANCH   5   6
ATOM      6  C   UNL     1     -18.344  -4.747  -1.104  0.00  0.00    +0.288 C 
ATOM      7  O   UNL     1     -18.469  -4.145  -0.058  0.00  0.00    -0.267 OA
ATOM      8  N   UNL     1     -19.202  -4.840  -2.083  0.00  0.00    -0.084 NA
ENDBRANCH   5   6
BRANCH  12  13
ATOM     13  N   UNL     1     -12.048 -10.006  -1.814  0.00  0.00    -0.205 NA
ATOM     14  C   UNL     1     -11.455 -10.966  -1.091  0.00  0.00    +0.241 C 
ATOM     15  O   UNL     1     -10.442 -10.712  -0.382  0.00  0.00    -0.273 OA
BRANCH  14  16
ATOM     16  C   UNL     1     -11.860 -12.336  -1.235  0.00  0.00    +0.087 C 
ATOM     17  C   UNL     1     -11.895 -13.421  -0.306  0.00  0.00    +0.010 C 
ENDBRANCH  14  16
ENDBRANCH  12  13
TORSDOF 3
