REMARK  Name = 84R
REMARK  1 active torsions:
REMARK  status: ('A' for Active; 'I' for Inactive)
REMARK    1  A    between atoms: C26_3  and  C19_15
REMARK                            x       y       z     vdW  Elec       q    Type
REMARK                         _______ _______ _______ _____ _____    ______ ____
ROOT
ATOM      5  C   UNL     1      31.804  45.399  40.683  0.00  0.00    +0.164 A 
ATOM      6  N   UNL     1      31.125  45.402  41.851  0.00  0.00    -0.211 NA
ATOM      7  C   UNL     1      31.498  46.120  42.959  0.00  0.00    +0.141 A 
ATOM      8  N   UNL     1      30.689  46.015  44.099  0.00  0.00    -0.288 N 
ATOM      9  C   UNL     1      30.508  47.071  45.095  0.00  0.00    +0.124 C 
ATOM     10  C   UNL     1      30.464  46.413  46.468  0.00  0.00    +0.164 C 
ATOM     11  O   UNL     1      29.341  45.532  46.529  0.00  0.00    -0.350 OA
ATOM     12  C   UNL     1      29.464  44.466  45.576  0.00  0.00    +0.164 C 
ATOM     13  C   UNL     1      29.621  44.996  44.156  0.00  0.00    +0.124 C 
ATOM     14  C   UNL     1      32.691  46.888  42.765  0.00  0.00    +0.079 A 
ATOM     15  S   UNL     1      33.570  47.943  43.824  0.00  0.00    -0.082 S 
ATOM     16  C   UNL     1      34.757  48.308  42.663  0.00  0.00    +0.037 A 
ATOM     17  C   UNL     1      34.531  47.656  41.480  0.00  0.00    +0.027 A 
ATOM     18  C   UNL     1      33.357  46.843  41.520  0.00  0.00    +0.092 A 
ATOM     19  N   UNL     1      32.931  46.099  40.461  0.00  0.00    -0.226 NA
ENDROOT
BRANCH   5   4
ATOM      1  C   UNL     1      30.172  42.810  37.621  0.00  0.00    +0.060 A 
ATOM      2  C   UNL     1      29.806  42.665  38.957  0.00  0.00    +0.197 A 
ATOM      3  C   UNL     1      30.338  43.502  39.934  0.00  0.00    +0.045 A 
ATOM      4  C   UNL     1      31.250  44.536  39.614  0.00  0.00    +0.040 A 
ATOM     20  C   UNL     1      31.612  44.660  38.249  0.00  0.00    +0.021 A 
ATOM     21  O   UNL     1      28.932  41.710  39.398  0.00  0.00    -0.286 OA
ATOM     22  C   UNL     1      31.079  43.811  37.257  0.00  0.00    +0.092 A 
ATOM     23  N   UNL     1      31.449  43.965  35.930  0.00  0.00    -0.128 NA
ENDBRANCH   5   4
TORSDOF 1
