REMARK  Name = 5FED
REMARK  6 active torsions:
REMARK  status: ('A' for Active; 'I' for Inactive)
REMARK    1  A    between atoms: C_1  and  C_2
REMARK    2  A    between atoms: C_6  and  C_7
REMARK    3  A    between atoms: C_9  and  N_22
REMARK    4  A    between atoms: C_14  and  C_31
REMARK    5  A    between atoms: C_15  and  C_16
REMARK    6  A    between atoms: C_31  and  C_32
REMARK                            x       y       z     vdW  Elec       q    Type
REMARK                         _______ _______ _______ _____ _____    ______ ____
ROOT
ATOM      1  C   UNL     1       1.420  53.308 -21.150  0.00  0.00    +0.250 C 
ATOM      2  O   UNL     1       2.295  54.007 -20.643  0.00  0.00    -0.270 OA
ATOM      3  N   UNL     1       0.781  52.388 -20.349  0.00  0.00    -0.252 N 
ATOM      4  H   UNL     1       0.039  51.780 -20.824  0.00  0.00    +0.158 HD
ATOM      5  C   UNL     1       0.990  52.159 -18.993  0.00  0.00    +0.203 A 
ATOM      6  N   UNL     1       1.862  52.796 -18.188  0.00  0.00    -0.214 NA
ATOM      7  C   UNL     1       1.705  52.256 -16.876  0.00  0.00    +0.091 A 
ATOM      8  C   UNL     1       0.691  51.260 -16.882  0.00  0.00    +0.073 A 
ATOM      9  C   UNL     1       0.372  50.584 -15.659  0.00  0.00    -0.025 A 
ATOM     10  C   UNL     1       1.076  50.936 -14.501  0.00  0.00    +0.005 A 
ATOM     11  C   UNL     1       2.077  51.918 -14.505  0.00  0.00    +0.002 A 
ATOM     12  C   UNL     1      -0.663  49.519 -15.532  0.00  0.00    +0.046 C 
ATOM     13  C   UNL     1       2.400  52.581 -15.678  0.00  0.00    +0.030 A 
ATOM     14  N   UNL     1       0.238  51.200 -18.272  0.00  0.00    -0.307 N 
ENDROOT
BRANCH  14  15
ATOM     15  C   UNL     1      -0.845  50.326 -18.794  0.00  0.00    +0.108 C 
ATOM     16  C   UNL     1      -2.067  51.192 -19.023  0.00  0.00    +0.133 C 
ATOM     17  N   UNL     1      -3.258  50.496 -19.454  0.00  0.00    -0.299 N 
ATOM     18  C   UNL     1      -4.230  50.244 -18.503  0.00  0.00    +0.215 C 
ATOM     19  O   UNL     1      -4.007  50.631 -17.348  0.00  0.00    -0.276 OA
ATOM     22  C   UNL     1      -3.471  50.062 -20.832  0.00  0.00    +0.107 C 
ATOM     23  C   UNL     1      -2.670  48.797 -21.219  0.00  0.00    +0.019 C 
ATOM     24  C   UNL     1      -1.459  48.452 -20.324  0.00  0.00    +0.003 C 
ATOM     25  C   UNL     1      -0.474  49.584 -20.069  0.00  0.00    +0.027 C 
BRANCH  18  20
ATOM     20  C   UNL     1      -5.496  49.542 -18.862  0.00  0.00    +0.092 C 
ATOM     21  C   UNL     1      -6.762  50.281 -18.453  0.00  0.00    +0.013 C 
ENDBRANCH  18  20
ENDBRANCH  14  15
BRANCH   1  26
ATOM     26  C   UNL     1       1.087  53.505 -22.576  0.00  0.00    +0.038 A 
ATOM     27  C   UNL     1       0.230  52.593 -23.203  0.00  0.00    +0.025 A 
ATOM     28  C   UNL     1      -0.141  52.723 -24.532  0.00  0.00    +0.056 A 
ATOM     33  C   UNL     1       0.332  53.791 -25.291  0.00  0.00    +0.012 A 
ATOM     34  C   UNL     1       1.172  54.714 -24.680  0.00  0.00    +0.001 A 
ATOM     35  C   UNL     1       1.544  54.574 -23.345  0.00  0.00    +0.013 A 
BRANCH  28  29
ATOM     29  C   UNL     1      -1.061  51.716 -25.194  0.00  0.00    +0.417 C 
ATOM     30  F   UNL     1      -2.298  52.194 -25.493  0.00  0.00    -0.166 F 
ATOM     31  F   UNL     1      -1.314  50.624 -24.425  0.00  0.00    -0.166 F 
ATOM     32  F   UNL     1      -0.618  51.238 -26.379  0.00  0.00    -0.166 F 
ENDBRANCH  28  29
ENDBRANCH   1  26
TORSDOF 4
