REMARK  Name = 4f64_ligand
REMARK  8 active torsions:
REMARK  status: ('A' for Active; 'I' for Inactive)
REMARK    1  A    between atoms: C1_1  and  O2_2
REMARK    2  A    between atoms: O2_2  and  C3_3
REMARK    3  A    between atoms: C3_3  and  C4_4
REMARK    4  A    between atoms: C4_4  and  C5_5
REMARK    5  A    between atoms: C5_5  and  C6_6
REMARK    6  A    between atoms: N13_13  and  C14_14
REMARK    7  A    between atoms: C14_14  and  C15_15
REMARK    8  A    between atoms: C17_17  and  C18_18
REMARK                            x       y       z     vdW  Elec       q    Type
REMARK                         _______ _______ _______ _____ _____    ______ ____
ROOT
ATOM      6  C   UNL     1      88.499   0.459  11.124  0.00  0.00    +0.059 A 
ATOM      7  N   UNL     1      88.848  -0.676  10.603  0.00  0.00    -0.233 N 
ATOM      8  H   UNL     1      89.531  -1.331  10.984  0.00  0.00    +0.245 HD
ATOM      9  N   UNL     1      88.126  -0.834   9.439  0.00  0.00    -0.228 NA
ATOM     10  C   UNL     1      87.343   0.208   9.240  0.00  0.00    +0.098 A 
ATOM     11  N   UNL     1      86.507   0.272   8.146  0.00  0.00    -0.257 N 
ATOM     12  H   UNL     1      86.508  -0.506   7.486  0.00  0.00    +0.214 HD
ATOM     13  C   UNL     1      85.668   1.341   7.902  0.00  0.00    +0.140 A 
ATOM     14  C   UNL     1      84.875   1.307   6.756  0.00  0.00    +0.070 A 
ATOM     15 BR   UNL     1      84.967  -0.176   5.554  0.00  0.00    -0.055 Br
ATOM     16  C   UNL     1      84.038   2.389   6.495  0.00  0.00    +0.097 A 
ATOM     17  N   UNL     1      84.025   3.413   7.342  0.00  0.00    -0.269 NA
ATOM     18  C   UNL     1      84.793   3.424   8.415  0.00  0.00    +0.179 A 
ATOM     19  N   UNL     1      84.710   4.544   9.242  0.00  0.00    -0.274 N 
ATOM     20  H   UNL     1      83.947   5.205   9.092  0.00  0.00    +0.190 HD
ATOM     28  N   UNL     1      85.612   2.402   8.695  0.00  0.00    -0.236 NA
ATOM     29  C   UNL     1      87.545   1.055  10.282  0.00  0.00    -0.003 A 
ENDROOT
BRANCH   6   5
ATOM      5  C   UNL     1      89.093   1.000  12.396  0.00  0.00    +0.105 C 
BRANCH   5   4
ATOM      4  C   UNL     1      88.061   1.567  13.370  0.00  0.00    +0.047 C 
BRANCH   4   3
ATOM      3  C   UNL     1      88.824   2.583  14.234  0.00  0.00    +0.162 C 
BRANCH   3   2
ATOM      1  C   UNL     1      90.528   2.721  15.822  0.00  0.00    +0.193 C 
ATOM      2  O   UNL     1      89.419   1.915  15.364  0.00  0.00    -0.383 OA
ENDBRANCH   3   2
ENDBRANCH   4   3
ENDBRANCH   5   4
ENDBRANCH   6   5
BRANCH  19  21
ATOM     21  C   UNL     1      85.669   4.814  10.316  0.00  0.00    +0.253 C 
BRANCH  21  22
ATOM     22  C   UNL     1      85.161   4.183  11.582  0.00  0.00    +0.154 A 
ATOM     23  O   UNL     1      85.730   4.285  12.784  0.00  0.00    -0.179 OA
ATOM     24  N   UNL     1      85.131   3.648  13.647  0.00  0.00    -0.174 NA
ATOM     25  C   UNL     1      84.088   3.050  13.157  0.00  0.00    +0.008 A 
ATOM     26  C   UNL     1      83.113   2.198  13.928  0.00  0.00    +0.083 C 
ATOM     27  C   UNL     1      84.073   3.377  11.763  0.00  0.00    -0.005 A 
ENDBRANCH  21  22
ENDBRANCH  19  21
TORSDOF 6
