REMARK  Name = 2r3m_ligand
REMARK  6 active torsions:
REMARK  status: ('A' for Active; 'I' for Inactive)
REMARK    1  A    between atoms: C01_1  and  C24_24
REMARK    2  A    between atoms: C07_7  and  C11_11
REMARK    3  A    between atoms: C09_9  and  N10_10
REMARK    4  A    between atoms: N10_10  and  C12_12
REMARK    5  A    between atoms: C12_12  and  C13_13
REMARK    6  A    between atoms: C24_24  and  C26_26
REMARK                            x       y       z     vdW  Elec       q    Type
REMARK                         _______ _______ _______ _____ _____    ______ ____
ROOT
ATOM      1  C   UNL     1      -0.675  31.157   8.222  0.00  0.00    -0.026 A 
ATOM      4  C   UNL     1       0.294  31.754   7.365  0.00  0.00    +0.040 A 
ATOM      5  N   UNL     1       1.377  30.991   7.194  0.00  0.00    -0.221 NA
ATOM      6  N   UNL     1       1.127  29.880   7.975  0.00  0.00    -0.121 N 
ATOM      7  C   UNL     1       1.996  28.782   8.199  0.00  0.00    +0.217 A 
ATOM     20  C   UNL     1       1.552  27.778   8.991  0.00  0.00    +0.056 A 
ATOM     21  C   UNL     1       0.211  27.949   9.625  0.00  0.00    +0.024 A 
ATOM     30  N   UNL     1      -0.564  28.969   9.452  0.00  0.00    -0.302 NA
ATOM     31  C   UNL     1      -0.109  29.957   8.607  0.00  0.00    +0.145 A 
ENDROOT
BRANCH  21  22
ATOM     22  C   UNL     1      -0.218  26.867  10.541  0.00  0.00    +0.067 A 
ATOM     23  C   UNL     1      -0.511  25.575  10.105  0.00  0.00    +0.147 A 
ATOM     24  F   UNL     1      -0.414  25.242   8.807  0.00  0.00    -0.179 F 
ATOM     25  C   UNL     1      -0.913  24.577  11.008  0.00  0.00    +0.031 A 
ATOM     26  C   UNL     1      -1.038  24.876  12.364  0.00  0.00    +0.001 A 
ATOM     27  C   UNL     1      -0.756  26.169  12.810  0.00  0.00    +0.031 A 
ATOM     28  C   UNL     1      -0.336  27.144  11.900  0.00  0.00    +0.147 A 
ATOM     29  F   UNL     1      -0.079  28.354  12.372  0.00  0.00    -0.179 F 
ENDBRANCH  21  22
BRANCH   1   2
ATOM      2  C   UNL     1      -1.994  31.700   8.633  0.00  0.00    +0.022 C 
ATOM      3  C   UNL     1      -3.135  30.752   8.312  0.00  0.00    +0.010 C 
ENDBRANCH   1   2
BRANCH   7   8
ATOM      8  N   UNL     1       3.240  28.830   7.586  0.00  0.00    -0.261 N 
ATOM      9  H   UNL     1       3.322  29.501   6.809  0.00  0.00    +0.196 HD
BRANCH   8  10
ATOM     10  C   UNL     1       4.441  28.074   7.879  0.00  0.00    +0.213 C 
BRANCH  10  11
ATOM     11  C   UNL     1       4.540  26.880   7.005  0.00  0.00    +0.019 A 
ATOM     12  C   UNL     1       4.606  26.953   5.618  0.00  0.00    +0.102 A 
ATOM     13  N   UNL     1       4.671  25.880   4.819  0.00  0.00    -0.261 NA
ATOM     14  C   UNL     1       4.632  24.684   5.428  0.00  0.00    +0.184 A 
ATOM     15  N   UNL     1       4.668  23.582   4.642  0.00  0.00    -0.306 N 
ATOM     16  H   UNL     1       4.723  23.681   3.618  0.00  0.00    +0.180 HD
ATOM     17  H   UNL     1       4.640  22.645   5.068  0.00  0.00    +0.180 HD
ATOM     18  N   UNL     1       4.557  24.496   6.758  0.00  0.00    -0.261 NA
ATOM     19  C   UNL     1       4.503  25.606   7.517  0.00  0.00    +0.102 A 
ENDBRANCH  10  11
ENDBRANCH   8  10
ENDBRANCH   7   8
TORSDOF 5
