REMARK  Name = 4YFF
REMARK  6 active torsions:
REMARK  status: ('A' for Active; 'I' for Inactive)
REMARK    1  A    between atoms: C_1  and  N_16
REMARK    2  A    between atoms: C_4  and  N_20
REMARK    3  A    between atoms: C_8  and  N_9
REMARK    4  A    between atoms: N_9  and  S_10
REMARK    5  A    between atoms: S_10  and  C_13
REMARK    6  A    between atoms: N_20  and  C_21
REMARK                            x       y       z     vdW  Elec       q    Type
REMARK                         _______ _______ _______ _____ _____    ______ ____
ROOT
ATOM      1  C   UNL     1      46.632   9.465  84.296  0.00  0.00    +0.051 A 
ATOM      8  C   UNL     1      46.401  10.712  83.736  0.00  0.00    +0.027 A 
ATOM      9  C   UNL     1      47.244  11.773  84.001  0.00  0.00    +0.030 A 
ATOM     10  C   UNL     1      48.309  11.562  84.838  0.00  0.00    +0.107 A 
ATOM     11  C   UNL     1      48.566  10.338  85.407  0.00  0.00    +0.053 A 
ATOM     18  C   UNL     1      47.724   9.273  85.138  0.00  0.00    +0.056 A 
ENDROOT
BRANCH   1   2
ATOM      2  N   UNL     1      45.757   8.386  84.014  0.00  0.00    -0.324 N 
ATOM      3  C   UNL     1      45.040   8.578  82.756  0.00  0.00    +0.133 C 
ATOM      4  C   UNL     1      44.135   7.374  82.538  0.00  0.00    +0.178 C 
ATOM      5  O   UNL     1      43.225   7.262  83.640  0.00  0.00    -0.377 OA
ATOM      6  C   UNL     1      43.944   7.017  84.853  0.00  0.00    +0.178 C 
ATOM      7  C   UNL     1      44.861   8.189  85.154  0.00  0.00    +0.133 C 
ENDBRANCH   1   2
BRANCH  10  12
ATOM     12  S   UNL     1      49.367  12.925  85.201  0.00  0.00    +0.058 S 
ATOM     13  O   UNL     1      49.243  13.857  84.081  0.00  0.00    -0.153 OA
ATOM     14  O   UNL     1      49.006  13.305  86.558  0.00  0.00    -0.153 OA
BRANCH  12  15
ATOM     15  N   UNL     1      50.921  12.184  85.289  0.00  0.00    -0.193 NA
ATOM     16  H   UNL     1      51.428  12.575  86.146  0.00  0.00    +0.148 HD
ATOM     17  C   UNL     1      51.781  12.403  84.108  0.00  0.00    +0.127 C 
ENDBRANCH  12  15
ENDBRANCH  10  12
BRANCH  18  19
ATOM     19  N   UNL     1      47.938   7.989  85.686  0.00  0.00    -0.297 N 
ATOM     20  H   UNL     1      47.407   7.187  85.217  0.00  0.00    +0.154 HD
BRANCH  19  21
ATOM     21  C   UNL     1      48.759   7.630  86.768  0.00  0.00    +0.137 A 
ATOM     22  N   UNL     1      49.597   8.500  87.341  0.00  0.00    -0.220 NA
ATOM     23  C   UNL     1      50.343   8.090  88.373  0.00  0.00    +0.225 A 
ATOM     24  N   UNL     1      50.392   6.888  88.959  0.00  0.00    -0.216 NA
ATOM     25  C   UNL     1      49.549   6.046  88.353  0.00  0.00    +0.166 A 
ATOM     26  N   UNL     1      49.364   4.737  88.703  0.00  0.00    -0.234 NA
ATOM     27  C   UNL     1      48.437   4.151  87.888  0.00  0.00    +0.129 A 
ATOM     28  C   UNL     1      48.031   5.116  87.005  0.00  0.00    +0.050 A 
ATOM     29 BR   UNL     1      46.743   4.840  85.634  0.00  0.00    -0.048 Br
ATOM     30  C   UNL     1      48.723   6.333  87.279  0.00  0.00    +0.074 A 
ENDBRANCH  19  21
ENDBRANCH  18  19
TORSDOF 5
