REMARK  Name = 1WVX
REMARK  6 active torsions:
REMARK  status: ('A' for Active; 'I' for Inactive)
REMARK    1  A    between atoms: C_8  and  C_9
REMARK    2  A    between atoms: C_15  and  C_16
REMARK    3  A    between atoms: N_20  and  C_21
REMARK    4  A    between atoms: C_21  and  C_22
REMARK    5  A    between atoms: C_22  and  C_23
REMARK    6  A    between atoms: C_23  and  N_24
REMARK                            x       y       z     vdW  Elec       q    Type
REMARK                         _______ _______ _______ _____ _____    ______ ____
ROOT
ATOM      1  O   UNL     1      24.158  42.007  11.606  0.00  0.00    -0.267 OA
ATOM      2  C   UNL     1      25.040  41.791  10.777  0.00  0.00    +0.260 A 
ATOM      3  C   UNL     1      25.922  40.716  10.767  0.00  0.00    +0.055 A 
ATOM      4  C   UNL     1      26.088  39.598  11.582  0.00  0.00    -0.035 A 
ATOM      5  C   UNL     1      27.117  38.693  11.327  0.00  0.00    +0.030 A 
ATOM      6  C   UNL     1      27.983  38.915  10.260  0.00  0.00    +0.051 A 
ATOM      7  N   UNL     1      29.073  38.325   9.765  0.00  0.00    -0.340 N 
ATOM     14  C   UNL     1      29.648  38.925   8.719  0.00  0.00    +0.050 A 
ATOM     15  C   UNL     1      30.769  38.711   7.927  0.00  0.00    +0.026 A 
ATOM     16  C   UNL     1      31.053  39.626   6.914  0.00  0.00    +0.005 A 
ATOM     17  C   UNL     1      30.231  40.729   6.694  0.00  0.00    -0.050 A 
ATOM     18  C   UNL     1      30.574  41.704   5.564  0.00  0.00    +0.044 C 
ATOM     19  C   UNL     1      29.107  40.946   7.487  0.00  0.00    +0.014 A 
ATOM     20  C   UNL     1      28.832  40.030   8.500  0.00  0.00    +0.009 A 
ATOM     21  C   UNL     1      27.816  40.026   9.441  0.00  0.00    +0.021 A 
ATOM     22  C   UNL     1      25.145  39.357  12.764  0.00  0.00    +0.044 C 
ATOM     23  C   UNL     1      26.779  40.923   9.695  0.00  0.00    +0.062 A 
ATOM     24  C   UNL     1      26.420  42.097   9.045  0.00  0.00    +0.260 A 
ATOM     25  O   UNL     1      26.912  42.605   8.039  0.00  0.00    -0.267 OA
ATOM     26  N   UNL     1      25.382  42.560   9.742  0.00  0.00    -0.289 N 
ATOM     27  H   UNL     1      24.870  43.466   9.494  0.00  0.00    +0.172 HD
ENDROOT
BRANCH   7   8
ATOM      8  C   UNL     1      29.611  37.078  10.331  0.00  0.00    +0.123 C 
BRANCH   8   9
ATOM      9  C   UNL     1      30.923  37.310  11.087  0.00  0.00    +0.036 C 
BRANCH   9  10
ATOM     10  C   UNL     1      30.741  38.182  12.330  0.00  0.00    +0.079 C 
BRANCH  10  11
ATOM     11  N   UNL     1      32.021  38.273  13.049  0.00  0.00    -0.330 NA
ATOM     12  H   UNL     1      32.337  37.293  13.341  0.00  0.00    +0.118 HD
ATOM     13  H   UNL     1      32.760  38.710  12.410  0.00  0.00    +0.118 HD
ENDBRANCH  10  11
ENDBRANCH   9  10
ENDBRANCH   8   9
ENDBRANCH   7   8
TORSDOF 4
