REMARK  Name = 3qc4_ligand
REMARK  8 active torsions:
REMARK  status: ('A' for Active; 'I' for Inactive)
REMARK    1  A    between atoms: C_1  and  C33_37
REMARK    2  A    between atoms: N_3  and  C5_9
REMARK    3  A    between atoms: C5_9  and  C6_10
REMARK    4  A    between atoms: C16_20  and  O21_25
REMARK    5  A    between atoms: O21_25  and  C22_26
REMARK    6  A    between atoms: C22_26  and  C23_27
REMARK    7  A    between atoms: C23_27  and  C24_28
REMARK    8  A    between atoms: C23_27  and  N32_36
REMARK                            x       y       z     vdW  Elec       q    Type
REMARK                         _______ _______ _______ _____ _____    ______ ____
ROOT
ATOM      6  C   UNL     1      13.655  34.842  23.744  0.00  0.00    +0.175 C 
ENDROOT
BRANCH   6   7
ATOM      7  C   UNL     1      13.903  34.544  25.218  0.00  0.00    -0.016 A 
ATOM      8  C   UNL     1      14.323  33.286  25.652  0.00  0.00    -0.002 A 
ATOM      9  C   UNL     1      14.606  33.029  27.017  0.00  0.00    -0.009 A 
ATOM     10  C   UNL     1      14.452  34.038  27.944  0.00  0.00    -0.013 A 
ATOM     11  C   UNL     1      14.038  35.311  27.527  0.00  0.00    -0.009 A 
ATOM     12  C   UNL     1      13.781  35.549  26.184  0.00  0.00    -0.002 A 
ENDBRANCH   6   7
BRANCH   6   4
ATOM      2  C   UNL     1      14.986  33.302  22.422  0.00  0.00    +0.186 C 
ATOM      3  O   UNL     1      16.053  33.795  22.813  0.00  0.00    -0.405 OA
ATOM      4  N   UNL     1      13.789  33.661  22.896  0.00  0.00    -0.276 N 
ATOM      5  H   UNL     1      12.981  33.118  22.669  0.00  0.00    +0.186 HD
BRANCH   2   1
ATOM      1  C   UNL     1      15.104  32.213  21.385  0.00  0.00    +0.094 A 
ATOM     27  C   UNL     1      13.916  31.482  20.902  0.00  0.00    +0.219 A 
ATOM     28  O   UNL     1      12.787  31.707  21.369  0.00  0.00    -0.418 OA
ATOM     29  N   UNL     1      14.079  30.449  19.955  0.00  0.00    -0.190 N 
ATOM     39  C   UNL     1      15.276  30.090  19.444  0.00  0.00    +0.209 A 
ATOM     40  C   UNL     1      16.410  30.795  19.868  0.00  0.00    +0.010 A 
ATOM     41  C   UNL     1      16.327  31.823  20.831  0.00  0.00    +0.021 A 
BRANCH  29  30
ATOM     30  C   UNL     1      12.839  29.790  19.599  0.00  0.00    +0.265 C 
BRANCH  30  31
ATOM     31  C   UNL     1      12.434  28.635  20.475  0.00  0.00    -0.016 A 
ATOM     32  C   UNL     1      11.108  28.301  20.430  0.00  0.00    +0.028 A 
ATOM     33  C   UNL     1      10.625  27.225  21.158  0.00  0.00    +0.159 A 
ATOM     34  C   UNL     1      11.520  26.469  21.906  0.00  0.00    +0.158 A 
ATOM     35  F   UNL     1      11.080  25.454  22.583  0.00  0.00    -0.190 F 
ATOM     36  C   UNL     1      12.880  26.814  21.949  0.00  0.00    +0.021 A 
ATOM     37  F   UNL     1       9.350  26.870  21.099  0.00  0.00    -0.186 F 
ATOM     38  C   UNL     1      13.340  27.901  21.195  0.00  0.00    -0.012 A 
ENDBRANCH  30  31
ENDBRANCH  29  30
ENDBRANCH   2   1
ENDBRANCH   6   4
BRANCH   6  13
ATOM     13  C   UNL     1      12.349  35.561  23.459  0.00  0.00    +0.230 C 
BRANCH  13  14
ATOM     14  O   UNL     1      12.401  35.989  22.085  0.00  0.00    -0.327 OA
BRANCH  14  15
ATOM     15  C   UNL     1      11.420  36.765  21.531  0.00  0.00    +0.063 A 
ATOM     16  C   UNL     1      10.401  37.269  22.397  0.00  0.00    -0.022 A 
ATOM     17  C   UNL     1       9.419  38.088  21.870  0.00  0.00    -0.017 A 
ATOM     18  C   UNL     1       9.479  38.485  20.518  0.00  0.00    +0.081 A 
ATOM     19  N   UNL     1       8.663  39.249  19.767  0.00  0.00    -0.226 N 
ATOM     20  H   UNL     1       7.829  39.721  20.052  0.00  0.00    +0.222 HD
ATOM     21  C   UNL     1       9.235  39.232  18.528  0.00  0.00    +0.304 A 
ATOM     22  O   UNL     1       8.762  39.848  17.485  0.00  0.00    -0.396 OA
ATOM     23  N   UNL     1      10.301  38.483  18.452  0.00  0.00    -0.223 N 
ATOM     24  H   UNL     1      10.852  38.316  17.634  0.00  0.00    +0.225 HD
ATOM     25  C   UNL     1      10.520  37.979  19.673  0.00  0.00    +0.083 A 
ATOM     26  C   UNL     1      11.491  37.122  20.171  0.00  0.00    +0.014 A 
ENDBRANCH  14  15
ENDBRANCH  13  14
ENDBRANCH   6  13
TORSDOF 8
