REMARK  Name = 1yi3_ligand
REMARK  2 active torsions:
REMARK  status: ('A' for Active; 'I' for Inactive)
REMARK    1  A    between atoms: N14_1  and  C11_4
REMARK    2  A    between atoms: C5_14  and  C20_16
REMARK                            x       y       z     vdW  Elec       q    Type
REMARK                         _______ _______ _______ _____ _____    ______ ____
ROOT
ATOM      2  C   UNL     1     -18.362  35.240  -0.950  0.00  0.00    +0.214 A 
ATOM      3  C   UNL     1     -17.643  34.713   0.063  0.00  0.00    +0.020 A 
ATOM      4  C   UNL     1     -17.682  35.335   1.401  0.00  0.00    +0.087 A 
ATOM      5  O   UNL     1     -16.987  34.834   2.277  0.00  0.00    -0.434 OA
ATOM      6  C   UNL     1     -18.558  36.496   1.562  0.00  0.00    +0.055 A 
ATOM      7  C   UNL     1     -19.224  37.014   0.442  0.00  0.00    +0.161 A 
ATOM      8  C   UNL     1     -20.042  38.138   0.544  0.00  0.00    +0.026 A 
ATOM     15  C   UNL     1     -20.200  38.731   1.814  0.00  0.00    +0.008 A 
ATOM     16  C   UNL     1     -19.545  38.214   2.945  0.00  0.00    -0.010 A 
ATOM     17  C   UNL     1     -18.711  37.093   2.824  0.00  0.00    +0.013 A 
ATOM     18  O   UNL     1     -19.087  36.376  -0.778  0.00  0.00    -0.204 OA
ENDROOT
BRANCH   2   1
ATOM      1  N   UNL     1     -18.471  34.638  -2.293  0.00  0.00    -0.258 N 
ATOM     19  C   UNL     1     -17.486  33.642  -2.755  0.00  0.00    +0.172 C 
ATOM     20  C   UNL     1     -18.027  32.974  -4.029  0.00  0.00    +0.185 C 
ATOM     21  O   UNL     1     -18.262  33.963  -5.029  0.00  0.00    -0.376 OA
ATOM     22  C   UNL     1     -19.209  34.942  -4.608  0.00  0.00    +0.185 C 
ATOM     23  C   UNL     1     -18.695  35.645  -3.345  0.00  0.00    +0.172 C 
ENDBRANCH   2   1
BRANCH   8   9
ATOM      9  C   UNL     1     -20.712  38.742  -0.656  0.00  0.00    -0.019 A 
ATOM     10  C   UNL     1     -20.004  38.847  -1.880  0.00  0.00    +0.005 A 
ATOM     11  C   UNL     1     -20.613  39.421  -3.017  0.00  0.00    -0.001 A 
ATOM     12  C   UNL     1     -21.941  39.896  -2.932  0.00  0.00    -0.003 A 
ATOM     13  C   UNL     1     -22.659  39.798  -1.719  0.00  0.00    -0.001 A 
ATOM     14  C   UNL     1     -22.045  39.222  -0.584  0.00  0.00    +0.005 A 
ENDBRANCH   8   9
TORSDOF 2
