REMARK  Name = 4W4Y
REMARK  7 active torsions:
REMARK  status: ('A' for Active; 'I' for Inactive)
REMARK    1  A    between atoms: C_1  and  C_2
REMARK    2  A    between atoms: C_5  and  N_6
REMARK    3  A    between atoms: N_9  and  C_10
REMARK    4  A    between atoms: N_13  and  C_15
REMARK    5  A    between atoms: C_19  and  C_21
REMARK    6  A    between atoms: N_23  and  C_24
REMARK    7  A    between atoms: C_28  and  C_29
REMARK                            x       y       z     vdW  Elec       q    Type
REMARK                         _______ _______ _______ _____ _____    ______ ____
ROOT
ATOM     11  C   UNL     1       5.424 -27.697 -32.644  0.00  0.00    +0.073 A 
ATOM     12  C   UNL     1       4.260 -28.092 -32.022  0.00  0.00    +0.138 A 
ATOM     13  N   UNL     1       4.283 -29.395 -31.872  0.00  0.00    -0.238 N 
ATOM     31  N   UNL     1       5.402 -29.844 -32.458  0.00  0.00    -0.173 NA
ATOM     32  C   UNL     1       6.125 -28.829 -32.919  0.00  0.00    +0.158 A 
ENDROOT
BRANCH  11   9
ATOM      6  N   UNL     1       5.320 -23.955 -33.047  0.00  0.00    -0.269 N 
ATOM      7  H   UNL     1       4.740 -23.116 -32.725  0.00  0.00    +0.156 HD
ATOM      8  C   UNL     1       4.986 -25.266 -32.579  0.00  0.00    +0.308 C 
ATOM      9  N   UNL     1       5.759 -26.396 -32.991  0.00  0.00    -0.267 N 
ATOM     10  H   UNL     1       6.630 -26.232 -33.590  0.00  0.00    +0.157 HD
ATOM     33  O   UNL     1       4.018 -25.387 -31.818  0.00  0.00    -0.252 OA
BRANCH   6   5
ATOM      1  C   UNL     1       9.635 -23.155 -36.645  0.00  0.00    +0.044 C 
ATOM      2  C   UNL     1       8.476 -23.358 -35.678  0.00  0.00    -0.050 A 
ATOM      3  C   UNL     1       8.473 -22.688 -34.447  0.00  0.00    +0.005 A 
ATOM      4  C   UNL     1       7.440 -22.855 -33.562  0.00  0.00    +0.023 A 
ATOM      5  C   UNL     1       6.409 -23.754 -33.931  0.00  0.00    +0.035 A 
ATOM     34  C   UNL     1       6.393 -24.366 -35.153  0.00  0.00    +0.023 A 
ATOM     35  C   UNL     1       7.452 -24.197 -36.044  0.00  0.00    +0.005 A 
ENDBRANCH   6   5
ENDBRANCH  11   9
BRANCH  13  14
ATOM     14  C   UNL     1       3.289 -30.110 -31.330  0.00  0.00    +0.066 A 
ATOM     15  C   UNL     1       2.837 -31.256 -31.965  0.00  0.00    +0.041 A 
ATOM     16  C   UNL     1       1.763 -32.005 -31.446  0.00  0.00    +0.039 A 
ATOM     28  C   UNL     1       1.138 -31.578 -30.289  0.00  0.00    +0.013 A 
ATOM     29  C   UNL     1       1.559 -30.410 -29.662  0.00  0.00    +0.003 A 
ATOM     30  C   UNL     1       2.637 -29.691 -30.161  0.00  0.00    +0.028 A 
BRANCH  16  17
ATOM     17  C   UNL     1       1.345 -33.245 -32.154  0.00  0.00    +0.248 C 
ATOM     18  N   UNL     1       2.341 -33.921 -32.910  0.00  0.00    -0.281 N 
ATOM     19  H   UNL     1       3.318 -33.484 -32.898  0.00  0.00    +0.155 HD
ATOM     27  O   UNL     1       0.208 -33.657 -32.102  0.00  0.00    -0.270 OA
BRANCH  18  20
ATOM     20  C   UNL     1       2.195 -35.122 -33.690  0.00  0.00    +0.037 A 
ATOM     21  C   UNL     1       3.199 -36.079 -33.632  0.00  0.00    +0.046 A 
ATOM     22  C   UNL     1       3.131 -37.214 -34.451  0.00  0.00    +0.040 A 
ATOM     23  C   UNL     1       4.209 -38.286 -34.365  0.00  0.00    +0.065 C 
ATOM     24  N   UNL     1       2.087 -37.366 -35.308  0.00  0.00    -0.260 NA
ATOM     25  C   UNL     1       1.107 -36.431 -35.416  0.00  0.00    +0.113 A 
ATOM     26  C   UNL     1       1.148 -35.283 -34.626  0.00  0.00    +0.043 A 
ENDBRANCH  18  20
ENDBRANCH  16  17
ENDBRANCH  13  14
TORSDOF 5
