REMARK  Name = 6NO9
REMARK  4 active torsions:
REMARK  status: ('A' for Active; 'I' for Inactive)
REMARK    1  A    between atoms: C10_2  and  C8_21
REMARK    2  A    between atoms: C4_3  and  N7_30
REMARK    3  A    between atoms: C13_6  and  C15_7
REMARK    4  A    between atoms: C3_17  and  N24_27
REMARK                            x       y       z     vdW  Elec       q    Type
REMARK                         _______ _______ _______ _____ _____    ______ ____
ROOT
ATOM      5  N   UNL     1     -39.890  -2.176   6.231  0.00  0.00    -0.350 NA
ATOM      6  C   UNL     1     -40.750  -1.992   5.209  0.00  0.00    +0.600 C 
ATOM      7  O   UNL     1     -40.383  -2.001   4.045  0.00  0.00    -0.550 OA
ENDROOT
BRANCH   5   4
ATOM      1  N   UNL     1     -36.392  -2.507   6.713  0.00  0.00    -0.150 N 
ATOM      2  N   UNL     1     -36.441  -2.263   5.342  0.00  0.00    -0.100 NA
ATOM      3  C   UNL     1     -37.693  -2.119   4.974  0.00  0.00    +0.000 A 
ATOM      4  C   UNL     1     -38.493  -2.309   6.106  0.00  0.00    +0.050 A 
ATOM     22  C   UNL     1     -37.675  -2.510   7.175  0.00  0.00    +0.150 A 
ATOM     32  C   UNL     1     -35.177  -2.726   7.510  0.00  0.00    -0.100 C 
BRANCH  22  23
ATOM     23  N   UNL     1     -38.145  -2.738   8.473  0.00  0.00    -0.250 N 
ATOM     24  C   UNL     1     -37.998  -1.625   9.435  0.00  0.00    +0.000 C 
ATOM     25  C   UNL     1     -39.298  -1.350  10.040  0.00  0.00    -0.100 C 
ATOM     26  C   UNL     1     -39.601  -2.342  11.183  0.00  0.00    +0.250 C 
ATOM     27  F   UNL     1     -40.866  -2.071  11.735  0.00  0.00    -0.300 F 
ATOM     28  C   UNL     1     -39.626  -3.768  10.691  0.00  0.00    +0.150 C 
ATOM     29  N   UNL     1     -40.263  -4.630  11.707  0.00  0.00    -0.900 NA
ATOM     30  C   UNL     1     -38.217  -4.337  10.421  0.00  0.00    -0.100 C 
ATOM     31  C   UNL     1     -37.735  -4.025   8.992  0.00  0.00    +0.000 C 
ENDBRANCH  22  23
ENDBRANCH   5   4
BRANCH   6   8
ATOM      8  C   UNL     1     -42.143  -1.749   5.588  0.00  0.00    +0.100 A 
ATOM      9  N   UNL     1     -42.513  -1.760   6.876  0.00  0.00    -0.200 NA
ATOM     10  C   UNL     1     -43.755  -1.506   7.155  0.00  0.00    +0.100 A 
ATOM     11  S   UNL     1     -44.599  -1.141   5.644  0.00  0.00    +0.000 S 
ATOM     20  C   UNL     1     -43.137  -1.392   4.703  0.00  0.00    +0.050 A 
ATOM     21  N   UNL     1     -43.035  -1.279   3.329  0.00  0.00    -0.550 NA
BRANCH  10  12
ATOM     12  C   UNL     1     -44.349  -1.513   8.523  0.00  0.00    +0.000 A 
ATOM     13  C   UNL     1     -45.539  -0.819   8.778  0.00  0.00    +0.300 A 
ATOM     14  F   UNL     1     -46.129  -0.138   7.774  0.00  0.00    -0.300 F 
ATOM     15  C   UNL     1     -46.105  -0.829  10.041  0.00  0.00    -0.130 A 
ATOM     16  C   UNL     1     -45.506  -1.521  11.079  0.00  0.00    -0.130 A 
ATOM     17  C   UNL     1     -44.333  -2.226  10.845  0.00  0.00    -0.130 A 
ATOM     18  C   UNL     1     -43.761  -2.228   9.581  0.00  0.00    +0.300 A 
ATOM     19  F   UNL     1     -42.617  -2.913   9.382  0.00  0.00    -0.300 F 
ENDBRANCH  10  12
ENDBRANCH   6   8
TORSDOF 4
