REMARK  Name = 5NKH
REMARK  18 active torsions:
REMARK  status: ('A' for Active; 'I' for Inactive)
REMARK    1  A    between atoms: C_6  and  N_7
REMARK    2  A    between atoms: C_8  and  O_9
REMARK    3  A    between atoms: C_8  and  C_10
REMARK    4  A    between atoms: C_13  and  C_14
REMARK    5  A    between atoms: C_19  and  N_20
REMARK    6  A    between atoms: C_22  and  N_23
REMARK    7  A    between atoms: C_28  and  C_29
REMARK    8  A    between atoms: N_31  and  C_32
REMARK    9  A    between atoms: C_38  and  C_39
REMARK   10  A    between atoms: C_45  and  N_46
REMARK   11  A    between atoms: C_47  and  O_48
REMARK   12  A    between atoms: C_47  and  C_49
REMARK   13  A    between atoms: C_52  and  C_53
REMARK   14  A    between atoms: C_58  and  N_59
REMARK   15  A    between atoms: C_61  and  N_62
REMARK   16  A    between atoms: C_67  and  C_68
REMARK   17  A    between atoms: N_70  and  C_71
REMARK   18  A    between atoms: C_77  and  C_78
REMARK                            x       y       z     vdW  Elec       q    Type
REMARK                         _______ _______ _______ _____ _____    ______ ____
ROOT
ATOM      5  C   UNL     1     120.242  14.911  44.403  0.00  0.00    +0.038 A 
ATOM      6  C   UNL     1     119.762  15.322  45.608  0.00  0.00    +0.021 A 
ATOM      7  C   UNL     1     120.612  15.515  46.678  0.00  0.00    -0.014 A 
ATOM      8  C   UNL     1     121.967  15.253  46.503  0.00  0.00    +0.032 A 
ATOM      9  C   UNL     1     122.512  14.849  45.305  0.00  0.00    +0.034 A 
ATOM     38  C   UNL     1     121.606  14.684  44.290  0.00  0.00    +0.036 A 
ENDROOT
BRANCH   9  10
ATOM     10  N   UNL     1     123.836  14.598  45.029  0.00  0.00    -0.294 N 
ATOM     11  H   UNL     1     124.055  13.956  44.201  0.00  0.00    +0.154 HD
ATOM     12  C   UNL     1     124.884  15.100  45.724  0.00  0.00    +0.163 A 
ATOM     13  N   UNL     1     126.152  15.108  45.300  0.00  0.00    -0.232 NA
ATOM     14  C   UNL     1     127.076  15.651  46.119  0.00  0.00    +0.133 A 
ATOM     15  C   UNL     1     126.610  16.159  47.272  0.00  0.00    +0.095 A 
ATOM     28  S   UNL     1     124.849  15.891  47.279  0.00  0.00    -0.048 S 
BRANCH  15  16
ATOM     16  C   UNL     1     127.207  16.741  48.314  0.00  0.00    +0.256 C 
ATOM     17  N   UNL     1     128.517  17.049  48.285  0.00  0.00    -0.280 N 
ATOM     18  H   UNL     1     129.091  16.830  47.409  0.00  0.00    +0.155 HD
ATOM     27  O   UNL     1     126.546  16.956  49.287  0.00  0.00    -0.269 OA
BRANCH  17  19
ATOM     19  C   UNL     1     129.131  17.643  49.368  0.00  0.00    +0.055 A 
ATOM     20  C   UNL     1     129.383  19.013  49.366  0.00  0.00    -0.028 A 
ATOM     21  C   UNL     1     129.011  19.908  48.244  0.00  0.00    +0.046 C 
ATOM     22  C   UNL     1     130.011  19.530  50.472  0.00  0.00    +0.005 A 
ATOM     23  C   UNL     1     130.415  18.729  51.520  0.00  0.00    +0.002 A 
ATOM     24  C   UNL     1     130.137  17.391  51.523  0.00  0.00    +0.022 A 
ATOM     25  C   UNL     1     129.516  16.845  50.429  0.00  0.00    +0.062 A 
ATOM     26 CL   UNL     1     129.269  15.136  50.399  0.00  0.00    -0.082 Cl
ENDBRANCH  17  19
ENDBRANCH  15  16
ENDBRANCH   9  10
BRANCH   7  29
ATOM     29  C   UNL     1     120.141  15.994  47.931  0.00  0.00    +0.003 A 
ATOM     30  C   UNL     1     118.971  15.601  48.564  0.00  0.00    +0.032 A 
ATOM     34  C   UNL     1     118.576  16.105  49.760  0.00  0.00    +0.023 A 
ATOM     35  C   UNL     1     119.271  17.051  50.393  0.00  0.00    +0.002 A 
ATOM     36  C   UNL     1     120.422  17.507  49.806  0.00  0.00    +0.001 A 
ATOM     37  C   UNL     1     120.858  17.006  48.590  0.00  0.00    +0.010 A 
BRANCH  30  31
ATOM     31  N   UNL     1     118.246  14.705  47.986  0.00  0.00    -0.357 N 
ATOM     32  H   UNL     1     117.336  14.376  48.443  0.00  0.00    +0.142 HD
ATOM     33  H   UNL     1     118.554  14.290  47.049  0.00  0.00    +0.142 HD
ENDBRANCH  30  31
ENDBRANCH   7  29
BRANCH   5   4
ATOM      3  N   UNL     1     118.934  13.519  43.312  0.00  0.00    -0.247 NA
ATOM      4  C   UNL     1     119.425  14.682  43.284  0.00  0.00    +0.215 C 
BRANCH   3   2
ATOM      1  C   UNL     1     117.002  13.757  42.174  0.00  0.00    +0.042 C 
ATOM      2  C   UNL     1     118.194  12.940  42.297  0.00  0.00    +0.111 C 
ATOM     41  C   UNL     1     117.948  11.657  42.932  0.00  0.00    +0.042 C 
ATOM     42  C   UNL     1     116.914  10.917  42.160  0.00  0.00    +0.083 C 
ATOM     43  N   UNL     1     115.758  11.686  42.375  0.00  0.00    -0.316 NA
ATOM     44  H   UNL     1     114.914  11.425  42.978  0.00  0.00    +0.122 HD
ATOM     45  C   UNL     1     115.945  12.919  41.605  0.00  0.00    +0.083 C 
ENDBRANCH   3   2
BRANCH   4  39
ATOM     39  O   UNL     1     119.456  15.333  42.270  0.00  0.00    -0.492 OA
ATOM     40  H   UNL     1     120.016  14.823  41.543  0.00  0.00    +0.294 HD
ENDBRANCH   4  39
ENDBRANCH   5   4
TORSDOF 8
