REMARK  Name = 5TQ6
REMARK  4 active torsions:
REMARK  status: ('A' for Active; 'I' for Inactive)
REMARK    1  A    between atoms: C_2  and  N_11
REMARK    2  A    between atoms: C_4  and  N_11
REMARK    3  A    between atoms: C_8  and  C_9
REMARK    4  A    between atoms: N_11  and  C_12
REMARK                            x       y       z     vdW  Elec       q    Type
REMARK                         _______ _______ _______ _____ _____    ______ ____
ROOT
ATOM      1  C   UNL     1      -8.464  -1.760  29.296  0.00  0.00    +0.110 C 
ATOM      2  C   UNL     1      -6.978  -1.834  29.643  0.00  0.00    +0.024 C 
ATOM      3  C   UNL     1      -6.608  -0.930  30.822  0.00  0.00    +0.009 C 
ATOM      4  C   UNL     1      -6.433   0.529  30.390  0.00  0.00    +0.009 C 
ATOM      5  C   UNL     1      -7.569  -1.126  32.004  0.00  0.00    +0.095 C 
ATOM     17  C   UNL     1      -8.987  -0.944  31.484  0.00  0.00    +0.132 C 
ATOM     18  N   UNL     1      -9.308  -1.960  30.481  0.00  0.00    -0.284 N 
ATOM     19  C   UNL     1     -10.638  -2.184  30.286  0.00  0.00    +0.305 C 
ATOM     20  N   UNL     1     -10.929  -3.239  29.446  0.00  0.00    -0.285 N 
ATOM     21  C   UNL     1     -10.084  -4.315  28.920  0.00  0.00    +0.109 C 
ATOM     22  C   UNL     1     -11.042  -5.487  28.861  0.00  0.00    +0.020 C 
ATOM     23  C   UNL     1     -12.355  -4.860  28.497  0.00  0.00    +0.020 C 
ATOM     24  C   UNL     1     -12.345  -3.480  29.131  0.00  0.00    +0.109 C 
ATOM     25  O   UNL     1     -11.517  -1.486  30.767  0.00  0.00    -0.252 OA
ENDROOT
BRANCH   5   6
ATOM      6  N   UNL     1      -7.285  -0.268  33.188  0.00  0.00    -0.313 N 
ATOM     16  C   UNL     1      -7.866   1.071  33.195  0.00  0.00    +0.131 C 
BRANCH   6   7
ATOM      7  C   UNL     1      -6.473  -0.650  34.260  0.00  0.00    +0.134 A 
ATOM      8  N   UNL     1      -6.333   0.271  35.224  0.00  0.00    -0.220 NA
ATOM      9  C   UNL     1      -5.450   0.020  36.195  0.00  0.00    +0.225 A 
ATOM     10  N   UNL     1      -4.661  -1.039  36.351  0.00  0.00    -0.216 NA
ATOM     11  C   UNL     1      -4.839  -1.956  35.386  0.00  0.00    +0.165 A 
ATOM     12  N   UNL     1      -4.200  -3.155  35.283  0.00  0.00    -0.235 NA
ATOM     13  C   UNL     1      -4.661  -3.837  34.181  0.00  0.00    +0.114 A 
ATOM     14  C   UNL     1      -5.596  -3.102  33.531  0.00  0.00    +0.035 A 
ATOM     15  C   UNL     1      -5.743  -1.882  34.269  0.00  0.00    +0.060 A 
ENDBRANCH   6   7
ENDBRANCH   5   6
TORSDOF 2
