REMARK  Name = 4bcg_ligand
REMARK  6 active torsions:
REMARK  status: ('A' for Active; 'I' for Inactive)
REMARK    1  A    between atoms: C01_1  and  N02_2
REMARK    2  A    between atoms: C05_5  and  C06_6
REMARK    3  A    between atoms: C07_7  and  C08_8
REMARK    4  A    between atoms: N11_11  and  C12_12
REMARK    5  A    between atoms: C16_16  and  N17_17
REMARK    6  A    between atoms: C27_27  and  C28_28
REMARK                            x       y       z     vdW  Elec       q    Type
REMARK                         _______ _______ _______ _____ _____    ______ ____
ROOT
ATOM      7  C   UNL     1      53.730 -15.427 -12.846  0.00  0.00    +0.069 A 
ATOM      8  C   UNL     1      53.563 -14.016 -12.832  0.00  0.00    +0.120 A 
ATOM     11  C   UNL     1      54.694 -13.209 -12.809  0.00  0.00    +0.132 A 
ATOM     12  N   UNL     1      55.944 -13.777 -12.781  0.00  0.00    -0.253 NA
ATOM     13  C   UNL     1      56.073 -15.142 -12.782  0.00  0.00    +0.203 A 
ATOM     14  N   UNL     1      57.429 -15.686 -12.767  0.00  0.00    -0.243 N 
ATOM     15  H   UNL     1      58.199 -15.060 -13.043  0.00  0.00    +0.220 HD
ATOM     31  N   UNL     1      54.998 -15.956 -12.812  0.00  0.00    -0.258 NA
ENDROOT
BRANCH   7   6
ATOM      1  C   UNL     1      50.574 -19.836 -10.628  0.00  0.00    +0.175 C 
ATOM      2  N   UNL     1      50.222 -19.340 -11.947  0.00  0.00    -0.280 N 
ATOM      3  H   UNL     1      49.486 -19.792 -12.509  0.00  0.00    +0.195 HD
ATOM      4  C   UNL     1      50.937 -18.197 -12.438  0.00  0.00    +0.193 A 
ATOM      5  S   UNL     1      52.470 -17.632 -11.877  0.00  0.00    +0.021 S 
ATOM      6  C   UNL     1      52.646 -16.292 -12.872  0.00  0.00    +0.069 A 
ATOM     32  C   UNL     1      51.473 -16.352 -13.665  0.00  0.00    +0.011 A 
ATOM     33  C   UNL     1      51.106 -15.364 -14.789  0.00  0.00    +0.107 C 
ATOM     34  N   UNL     1      50.605 -17.350 -13.411  0.00  0.00    -0.286 NA
ENDBRANCH   7   6
BRANCH  14  16
ATOM     16  C   UNL     1      57.763 -17.021 -12.398  0.00  0.00    +0.055 A 
ATOM     17  C   UNL     1      56.884 -18.122 -12.428  0.00  0.00    +0.022 A 
ATOM     18  C   UNL     1      57.361 -19.405 -12.026  0.00  0.00    +0.031 A 
ATOM     28  C   UNL     1      58.698 -19.551 -11.623  0.00  0.00    -0.013 A 
ATOM     29  C   UNL     1      59.582 -18.454 -11.609  0.00  0.00    -0.027 A 
ATOM     30  C   UNL     1      59.127 -17.202 -11.992  0.00  0.00    -0.008 A 
BRANCH  18  19
ATOM     19  N   UNL     1      56.516 -20.618 -12.029  0.00  0.00    -0.306 N 
ATOM     20  C   UNL     1      55.427 -20.373 -11.132  0.00  0.00    +0.180 C 
ATOM     21  C   UNL     1      54.233 -21.274 -11.336  0.00  0.00    +0.153 C 
ATOM     22  N   UNL     1      54.508 -22.697 -11.235  0.00  0.00    +0.228 N 
ATOM     23  H   UNL     1      54.757 -23.017 -12.158  0.00  0.00    +0.201 HD
ATOM     24  H   UNL     1      53.653 -23.144 -10.944  0.00  0.00    +0.201 HD
ATOM     25  C   UNL     1      55.546 -23.144 -10.338  0.00  0.00    +0.131 C 
ATOM     26  C   UNL     1      56.944 -22.759 -10.764  0.00  0.00    +0.074 C 
ATOM     27  C   UNL     1      56.988 -21.990 -12.052  0.00  0.00    +0.135 C 
ENDBRANCH  18  19
ENDBRANCH  14  16
BRANCH   8   9
ATOM      9  C   UNL     1      52.211 -13.408 -12.824  0.00  0.00    +0.089 C 
ATOM     10  N   UNL     1      51.165 -12.945 -12.819  0.00  0.00    -0.343 NA
ENDBRANCH   8   9
TORSDOF 4
