REMARK  Name = 4CT1
REMARK  6 active torsions:
REMARK  status: ('A' for Active; 'I' for Inactive)
REMARK    1  A    between atoms: C_2  and  C_8
REMARK    2  A    between atoms: C_8  and  C_9
REMARK    3  A    between atoms: C_9  and  C_10
REMARK    4  A    between atoms: C_10  and  C_15
REMARK    5  A    between atoms: C_11  and  C_12
REMARK    6  A    between atoms: C_18  and  C_21
REMARK                            x       y       z     vdW  Elec       q    Type
REMARK                         _______ _______ _______ _____ _____    ______ ____
ROOT
ATOM     10  C   UNL     1      -4.260  37.950 -32.826  0.00  0.00    -0.038 C 
ATOM     23  C   UNL     1      -2.918  38.121 -32.903  0.00  0.00    +0.028 C 
ENDROOT
BRANCH  10  11
ATOM     11  C   UNL     1      -5.056  36.661 -32.834  0.00  0.00    -0.022 A 
ATOM     12  C   UNL     1      -4.769  35.599 -33.694  0.00  0.00    +0.009 A 
ATOM     13  C   UNL     1      -5.538  34.442 -33.686  0.00  0.00    +0.009 A 
ATOM     14  C   UNL     1      -6.636  34.323 -32.838  0.00  0.00    -0.018 A 
ATOM     21  C   UNL     1      -6.946  35.400 -32.010  0.00  0.00    +0.009 A 
ATOM     22  C   UNL     1      -6.169  36.549 -32.009  0.00  0.00    +0.009 A 
BRANCH  14  15
ATOM     15  C   UNL     1      -7.515  33.105 -32.855  0.00  0.00    -0.018 A 
ATOM     16  C   UNL     1      -8.369  32.809 -31.791  0.00  0.00    +0.008 A 
ATOM     17  C   UNL     1      -9.213  31.705 -31.843  0.00  0.00    +0.001 A 
ATOM     18  C   UNL     1      -9.232  30.878 -32.958  0.00  0.00    +0.000 A 
ATOM     19  C   UNL     1      -8.401  31.163 -34.031  0.00  0.00    +0.001 A 
ATOM     20  C   UNL     1      -7.559  32.274 -33.981  0.00  0.00    +0.008 A 
ENDBRANCH  14  15
ENDBRANCH  10  11
BRANCH  23  24
ATOM     24  C   UNL     1      -1.849  37.099 -32.980  0.00  0.00    +0.065 C 
ATOM     25  O   UNL     1      -2.082  35.885 -32.966  0.00  0.00    -0.545 OA
ATOM     26  O   UNL     1      -0.668  37.486 -33.063  0.00  0.00    -0.545 OA
ENDBRANCH  23  24
BRANCH  10   9
ATOM      9  C   UNL     1      -5.035  39.256 -32.776  0.00  0.00    +0.040 C 
BRANCH   9   8
ATOM      8  C   UNL     1      -5.082  39.884 -34.167  0.00  0.00    +0.040 C 
BRANCH   8   7
ATOM      1  C   UNL     1      -7.557  39.239 -34.456  0.00  0.00    +0.005 A 
ATOM      2  C   UNL     1      -8.779  39.416 -35.109  0.00  0.00    +0.020 A 
ATOM      3  C   UNL     1      -8.910  40.367 -36.119  0.00  0.00    +0.041 A 
ATOM      4 CL   UNL     1     -10.484  40.583 -36.953  0.00  0.00    -0.084 Cl
ATOM      5  C   UNL     1      -7.816  41.145 -36.478  0.00  0.00    +0.020 A 
ATOM      6  C   UNL     1      -6.596  40.966 -35.828  0.00  0.00    +0.005 A 
ATOM      7  C   UNL     1      -6.453  40.019 -34.813  0.00  0.00    -0.047 A 
ENDBRANCH   8   7
ENDBRANCH   9   8
ENDBRANCH  10   9
TORSDOF 6
