REMARK  Name = 1e1v_ligand
REMARK  3 active torsions:
REMARK  status: ('A' for Active; 'I' for Inactive)
REMARK    1  A    between atoms: C6_6  and  O6_7
REMARK    2  A    between atoms: O6_7  and  C9_8
REMARK    3  A    between atoms: C9_8  and  C10_13
REMARK                            x       y       z     vdW  Elec       q    Type
REMARK                         _______ _______ _______ _____ _____    ______ ____
ROOT
ATOM      1  N   UNL     1       2.445  28.991   7.346  0.00  0.00    -0.244 NA
ATOM      2  C   UNL     1       2.981  29.960   6.614  0.00  0.00    +0.156 A 
ATOM      3  N   UNL     1       2.390  31.170   6.609  0.00  0.00    -0.261 NA
ATOM      4  C   UNL     1       1.301  31.419   7.326  0.00  0.00    +0.144 A 
ATOM      5  C   UNL     1       0.749  30.408   8.049  0.00  0.00    +0.103 A 
ATOM      6  N   UNL     1      -0.292  31.001   8.618  0.00  0.00    -0.302 NA
ATOM      7  C   UNL     1      -0.492  32.319   8.278  0.00  0.00    +0.235 A 
ATOM      8  N   UNL     1       0.588  32.528   7.490  0.00  0.00    -0.240 N 
ATOM      9  H   UNL     1       0.828  33.437   7.069  0.00  0.00    +0.238 HD
ATOM     10  N   UNL     1       4.122  29.981   5.880  0.00  0.00    -0.311 N 
ATOM     11  H   UNL     1       4.420  30.851   5.416  0.00  0.00    +0.181 HD
ATOM     12  H   UNL     1       4.690  29.127   5.787  0.00  0.00    +0.181 HD
ATOM     13  C   UNL     1       1.327  29.141   8.057  0.00  0.00    +0.175 A 
ENDROOT
BRANCH  13  14
ATOM     14  O   UNL     1       0.722  28.160   8.841  0.00  0.00    -0.293 OA
BRANCH  14  15
ATOM     15  C   UNL     1       1.706  27.118   9.112  0.00  0.00    +0.206 C 
BRANCH  15  16
ATOM     16  C   UNL     1       0.979  26.303  10.257  0.00  0.00    +0.021 C 
ATOM     17  C   UNL     1      -0.223  25.570   9.570  0.00  0.00    +0.006 C 
ATOM     18  C   UNL     1      -0.778  24.578  10.592  0.00  0.00    +0.000 C 
ATOM     19  C   UNL     1       0.172  23.387  10.321  0.00  0.00    +0.000 C 
ATOM     20  C   UNL     1       1.364  23.999  11.171  0.00  0.00    +0.000 C 
ATOM     21  C   UNL     1       1.848  25.047  10.126  0.00  0.00    +0.006 C 
ENDBRANCH  15  16
ENDBRANCH  14  15
ENDBRANCH  13  14
TORSDOF 3
