REMARK  Name = F5V
REMARK  4 active torsions:
REMARK  status: ('A' for Active; 'I' for Inactive)
REMARK    1  A    between atoms: C11_6  and  C6_7
REMARK    2  A    between atoms: C10_18  and  C19_19
REMARK    3  A    between atoms: C23_24  and  N25_25
REMARK    4  A    between atoms: N25_25  and  S26_26
REMARK                            x       y       z     vdW  Elec       q    Type
REMARK                         _______ _______ _______ _____ _____    ______ ____
ROOT
ATOM      5  C   UNL     1       9.399 -10.377  -9.265  0.00  0.00    +0.003 A 
ATOM      6  C   UNL     1      10.272  -9.708  -8.386  0.00  0.00    +0.000 A 
ATOM      7  C   UNL     1       9.859  -8.827  -7.370  0.00  0.00    +0.005 A 
ATOM      8  C   UNL     1       8.464  -8.521  -7.267  0.00  0.00    +0.056 A 
ATOM      9  C   UNL     1       7.978  -7.620  -6.261  0.00  0.00    +0.261 C 
ATOM     10  O   UNL     1       8.724  -7.023  -5.481  0.00  0.00    -0.267 OA
ATOM     11  N   UNL     1       6.636  -7.347  -6.151  0.00  0.00    -0.292 N 
ATOM     12  C   UNL     1       6.124  -6.462  -5.133  0.00  0.00    +0.134 C 
ATOM     13  C   UNL     1       5.730  -8.003  -7.013  0.00  0.00    +0.078 C 
ATOM     14  C   UNL     1       6.134  -8.868  -8.005  0.00  0.00    +0.018 C 
ATOM     26  C   UNL     1       7.529  -9.152  -8.164  0.00  0.00    +0.006 A 
ATOM     27  C   UNL     1       8.026 -10.076  -9.131  0.00  0.00    +0.000 A 
ENDROOT
BRANCH   5   4
ATOM      1  C   UNL     1      12.208 -13.329 -12.092  0.00  0.00    +0.154 C 
ATOM      2  N   UNL     1      11.063 -12.579 -11.450  0.00  0.00    -0.247 N 
ATOM      3  C   UNL     1      11.107 -11.696 -10.438  0.00  0.00    +0.097 A 
ATOM      4  C   UNL     1       9.849 -11.272 -10.227  0.00  0.00    +0.040 A 
ATOM     28  C   UNL     1       9.068 -11.890 -11.148  0.00  0.00    +0.122 A 
ATOM     29  N   UNL     1       9.802 -12.693 -11.929  0.00  0.00    -0.168 NA
ENDBRANCH   5   4
BRANCH  14  15
ATOM     15  C   UNL     1       5.088  -9.429  -8.845  0.00  0.00    +0.003 A 
ATOM     16  C   UNL     1       3.982 -10.090  -8.278  0.00  0.00    +0.018 A 
ATOM     17  C   UNL     1       2.929 -10.623  -9.152  0.00  0.00    +0.091 A 
ATOM     23  C   UNL     1       3.043 -10.502 -10.574  0.00  0.00    +0.018 A 
ATOM     24  C   UNL     1       4.172  -9.831 -11.119  0.00  0.00    +0.001 A 
ATOM     25  C   UNL     1       5.188  -9.297 -10.272  0.00  0.00    +0.000 A 
BRANCH  17  18
ATOM     18  N   UNL     1       1.818 -11.287  -8.726  0.00  0.00    -0.101 NA
BRANCH  18  19
ATOM     19  S   UNL     1       1.511 -11.472  -7.145  0.00  0.00    +0.075 S 
ATOM     20  O   UNL     1       2.676 -12.022  -6.428  0.00  0.00    -0.153 OA
ATOM     21  C   UNL     1       1.035  -9.871  -6.507  0.00  0.00    +0.202 C 
ATOM     22  O   UNL     1       0.364 -12.468  -7.105  0.00  0.00    -0.153 OA
ENDBRANCH  18  19
ENDBRANCH  17  18
ENDBRANCH  14  15
TORSDOF 4
