REMARK  Name = 5FXQ
REMARK  4 active torsions:
REMARK  status: ('A' for Active; 'I' for Inactive)
REMARK    1  A    between atoms: C_1  and  C_2
REMARK    2  A    between atoms: C_3  and  N_13
REMARK    3  A    between atoms: N_6  and  C_7
REMARK    4  A    between atoms: C_18  and  C_20
REMARK                            x       y       z     vdW  Elec       q    Type
REMARK                         _______ _______ _______ _____ _____    ______ ____
ROOT
ATOM     14  N   UNL     1      10.884  -2.271  54.067  0.00  0.00    -0.281 N 
ATOM     15  H   UNL     1      10.344  -1.623  54.725  0.00  0.00    +0.155 HD
ATOM     16  C   UNL     1      12.264  -2.352  54.198  0.00  0.00    +0.220 A 
ATOM     17  N   UNL     1      12.900  -3.301  53.498  0.00  0.00    -0.211 NA
ATOM     18  C   UNL     1      14.215  -3.344  53.649  0.00  0.00    +0.112 A 
ATOM     29  C   UNL     1      14.878  -2.457  54.473  0.00  0.00    +0.087 A 
ATOM     30 CL   UNL     1      16.566  -2.407  54.738  0.00  0.00    -0.080 Cl
ATOM     31  C   UNL     1      14.144  -1.531  55.153  0.00  0.00    +0.136 A 
ATOM     32  N   UNL     1      12.820  -1.458  55.025  0.00  0.00    -0.221 NA
ENDROOT
BRANCH  18  19
ATOM     19  C   UNL     1      14.898  -4.408  52.861  0.00  0.00    +0.091 A 
ATOM     20  N   UNL     1      14.306  -5.516  52.242  0.00  0.00    -0.300 N 
ATOM     21  C   UNL     1      12.979  -5.879  52.237  0.00  0.00    +0.089 C 
ATOM     22  C   UNL     1      12.622  -6.976  51.554  0.00  0.00    -0.005 C 
ATOM     23  C   UNL     1      13.573  -7.785  50.823  0.00  0.00    +0.059 C 
ATOM     24  C   UNL     1      14.869  -7.430  50.824  0.00  0.00    +0.022 C 
ATOM     25  C   UNL     1      15.226  -6.218  51.593  0.00  0.00    +0.112 A 
ATOM     26  N   UNL     1      16.400  -5.609  51.795  0.00  0.00    -0.346 N 
ATOM     27  H   UNL     1      17.335  -5.952  51.404  0.00  0.00    +0.167 HD
ATOM     28  C   UNL     1      16.247  -4.476  52.577  0.00  0.00    +0.112 A 
ENDBRANCH  18  19
BRANCH  14  13
ATOM      1  C   UNL     1       8.003  -3.301  54.476  0.00  0.00    +0.067 C 
ATOM      2  C   UNL     1       8.918  -3.425  53.337  0.00  0.00    +0.058 A 
ATOM      3  N   UNL     1       8.606  -4.070  52.178  0.00  0.00    -0.264 N 
ATOM     11  N   UNL     1       9.590  -4.069  51.257  0.00  0.00    -0.177 NA
ATOM     12  C   UNL     1      10.585  -3.394  51.842  0.00  0.00    +0.158 A 
ATOM     13  C   UNL     1      10.196  -2.976  53.144  0.00  0.00    +0.074 A 
BRANCH   3   4
ATOM      4  C   UNL     1       7.335  -4.728  51.926  0.00  0.00    +0.110 C 
ATOM      5  C   UNL     1       7.576  -6.112  51.370  0.00  0.00    +0.042 C 
ATOM      6  C   UNL     1       6.286  -6.794  50.951  0.00  0.00    +0.083 C 
ATOM      7  N   UNL     1       5.529  -5.868  50.078  0.00  0.00    -0.316 NA
ATOM      8  H   UNL     1       6.137  -5.601  49.239  0.00  0.00    +0.122 HD
ATOM      9  C   UNL     1       5.150  -4.635  50.817  0.00  0.00    +0.083 C 
ATOM     10  C   UNL     1       6.456  -3.908  51.026  0.00  0.00    +0.042 C 
ENDBRANCH   3   4
ENDBRANCH  14  13
TORSDOF 3
