REMARK  Name = 4F6W
REMARK  17 active torsions:
REMARK  status: ('A' for Active; 'I' for Inactive)
REMARK    1  A    between atoms: N_3  and  C_4
REMARK    2  A    between atoms: N_5  and  C_6
REMARK    3  A    between atoms: C_9  and  C_10
REMARK    4  A    between atoms: C_14  and  C_15
REMARK    5  A    between atoms: C_15  and  C_16
REMARK    6  A    between atoms: C_15  and  C_17
REMARK    7  A    between atoms: C_15  and  C_18
REMARK    8  A    between atoms: N_20  and  C_21
REMARK    9  A    between atoms: C_21  and  C_22
REMARK   10  A    between atoms: C_22  and  N_23
REMARK   11  A    between atoms: N_31  and  C_32
REMARK   12  A    between atoms: C_34  and  C_35
REMARK   13  A    between atoms: C_35  and  C_36
REMARK   14  A    between atoms: C_35  and  C_37
REMARK   15  A    between atoms: C_35  and  C_38
REMARK   16  A    between atoms: N_40  and  C_41
REMARK   17  A    between atoms: C_45  and  C_46
REMARK                            x       y       z     vdW  Elec       q    Type
REMARK                         _______ _______ _______ _____ _____    ______ ____
ROOT
ATOM      7  N   UNL     1      38.681  59.145 142.132  0.00  0.00    -0.298 NA
ATOM      8  C   UNL     1      39.497  57.951 141.827  0.00  0.00    +0.103 C 
ATOM      9  C   UNL     1      38.564  56.835 141.331  0.00  0.00    +0.125 C 
ATOM     10  N   UNL     1      38.104  57.217 139.973  0.00  0.00    -0.283 N 
ATOM     11  C   UNL     1      38.381  56.604 138.745  0.00  0.00    +0.308 C 
ATOM     12  N   UNL     1      39.271  55.521 138.665  0.00  0.00    -0.254 N 
ATOM     13  H   UNL     1      39.791  55.167 139.530  0.00  0.00    +0.158 HD
ATOM     30  O   UNL     1      37.894  57.079 137.751  0.00  0.00    -0.252 OA
ATOM     31  C   UNL     1      37.236  58.405 140.150  0.00  0.00    +0.125 C 
ATOM     32  C   UNL     1      37.902  59.547 140.935  0.00  0.00    +0.103 C 
ENDROOT
BRANCH  12  14
ATOM     14  C   UNL     1      39.456  54.916 137.403  0.00  0.00    +0.130 A 
ATOM     15  N   UNL     1      39.903  55.614 136.336  0.00  0.00    -0.218 N 
ATOM     23  N   UNL     1      39.817  54.933 135.283  0.00  0.00    -0.169 NA
ATOM     24  C   UNL     1      39.287  53.727 135.587  0.00  0.00    +0.071 A 
ATOM     29  C   UNL     1      39.029  53.693 136.941  0.00  0.00    +0.069 A 
BRANCH  15  16
ATOM     16  C   UNL     1      40.434  56.984 136.386  0.00  0.00    +0.067 A 
ATOM     17  C   UNL     1      39.965  58.022 135.589  0.00  0.00    +0.028 A 
ATOM     18  C   UNL     1      40.525  59.287 135.704  0.00  0.00    +0.005 A 
ATOM     19  C   UNL     1      41.543  59.536 136.623  0.00  0.00    -0.050 A 
ATOM     20  C   UNL     1      42.007  58.509 137.425  0.00  0.00    +0.005 A 
ATOM     21  C   UNL     1      42.140  60.908 136.740  0.00  0.00    +0.044 C 
ATOM     22  C   UNL     1      41.452  57.240 137.307  0.00  0.00    +0.028 A 
ENDBRANCH  15  16
BRANCH  24  25
ATOM     25  C   UNL     1      39.054  52.617 134.573  0.00  0.00    +0.006 C 
ATOM     26  C   UNL     1      38.109  51.519 135.089  0.00  0.00    +0.017 C 
ATOM     27  C   UNL     1      38.548  53.214 133.244  0.00  0.00    +0.017 C 
ATOM     28  C   UNL     1      40.432  52.002 134.339  0.00  0.00    +0.017 C 
ENDBRANCH  24  25
ENDBRANCH  12  14
BRANCH   7   6
ATOM      6  C   UNL     1      39.513  60.277 142.570  0.00  0.00    +0.103 C 
BRANCH   6   5
ATOM      5  C   UNL     1      40.164  60.064 143.927  0.00  0.00    +0.121 C 
BRANCH   5   3
ATOM      1  O   UNL     1      40.656  57.856 145.595  0.00  0.00    -0.253 OA
ATOM      2  C   UNL     1      39.652  58.502 145.807  0.00  0.00    +0.305 C 
ATOM      3  N   UNL     1      39.244  59.447 144.902  0.00  0.00    -0.298 N 
ATOM      4  H   UNL     1      38.218  59.749 144.902  0.00  0.00    +0.150 HD
ATOM     33  N   UNL     1      38.921  58.358 146.957  0.00  0.00    -0.254 N 
ATOM     34  H   UNL     1      38.042  58.953 147.092  0.00  0.00    +0.158 HD
BRANCH  33  35
ATOM     35  C   UNL     1      39.297  57.440 147.978  0.00  0.00    +0.130 A 
ATOM     36  C   UNL     1      40.558  56.919 148.253  0.00  0.00    +0.069 A 
ATOM     37  C   UNL     1      40.385  56.006 149.263  0.00  0.00    +0.071 A 
ATOM     42  N   UNL     1      39.081  56.017 149.570  0.00  0.00    -0.169 NA
ATOM     43  N   UNL     1      38.457  56.850 148.844  0.00  0.00    -0.218 N 
BRANCH  43  44
ATOM     44  C   UNL     1      36.994  56.983 148.946  0.00  0.00    +0.067 A 
ATOM     45  C   UNL     1      36.330  56.999 150.169  0.00  0.00    +0.028 A 
ATOM     46  C   UNL     1      34.930  57.071 150.209  0.00  0.00    +0.005 A 
ATOM     47  C   UNL     1      34.181  57.089 149.033  0.00  0.00    -0.050 A 
ATOM     48  C   UNL     1      32.669  57.150 149.065  0.00  0.00    +0.044 C 
ATOM     49  C   UNL     1      34.845  57.053 147.809  0.00  0.00    +0.005 A 
ATOM     50  C   UNL     1      36.232  56.980 147.772  0.00  0.00    +0.028 A 
ENDBRANCH  43  44
BRANCH  37  38
ATOM     38  C   UNL     1      41.464  55.176 149.951  0.00  0.00    +0.006 C 
ATOM     39  C   UNL     1      42.230  56.127 150.873  0.00  0.00    +0.017 C 
ATOM     40  C   UNL     1      40.853  54.093 150.822  0.00  0.00    +0.017 C 
ATOM     41  C   UNL     1      42.469  54.523 148.998  0.00  0.00    +0.017 C 
ENDBRANCH  37  38
ENDBRANCH  33  35
ENDBRANCH   5   3
ENDBRANCH   6   5
ENDBRANCH   7   6
TORSDOF 9
