REMARK  Name = EAM
REMARK  5 active torsions:
REMARK  status: ('A' for Active; 'I' for Inactive)
REMARK    1  A    between atoms: C7_7  and  C6_8
REMARK    2  A    between atoms: C15_14  and  O2_15
REMARK    3  A    between atoms: C5_24  and  C4_25
REMARK    4  A    between atoms: C4_25  and  C3_26
REMARK    5  A    between atoms: N1_28  and  C2_29
REMARK                            x       y       z     vdW  Elec       q    Type
REMARK                         _______ _______ _______ _____ _____    ______ ____
ROOT
ATOM      6  C   UNL     1      -5.993  -8.629  -4.744  0.00  0.00    +0.078 C 
ATOM      7  C   UNL     1      -7.075  -8.133  -3.995  0.00  0.00    +0.036 A 
ATOM      8  C   UNL     1      -6.754  -7.086  -3.126  0.00  0.00    +0.040 A 
ATOM      9  C   UNL     1      -7.733  -6.509  -2.329  0.00  0.00    +0.139 A 
ATOM     12  C   UNL     1      -9.050  -6.985  -2.390  0.00  0.00    +0.038 A 
ATOM     13  C   UNL     1      -9.383  -8.030  -3.251  0.00  0.00    +0.021 A 
ATOM     14  C   UNL     1      -8.389  -8.627  -4.054  0.00  0.00    +0.068 A 
ATOM     15  N   UNL     1      -8.803  -9.640  -4.879  0.00  0.00    -0.279 N 
ATOM     16  C   UNL     1      -9.632 -10.691  -4.673  0.00  0.00    +0.147 A 
ATOM     17  C   UNL     1     -10.382 -10.978  -3.359  0.00  0.00    +0.074 C 
ATOM     18  N   UNL     1      -9.735 -11.435  -5.789  0.00  0.00    -0.133 NA
ATOM     19  N   UNL     1      -8.923 -10.851  -6.708  0.00  0.00    -0.131 NA
ATOM     20  C   UNL     1      -8.361  -9.774  -6.146  0.00  0.00    +0.170 A 
ATOM     21  C   UNL     1      -7.436  -8.913  -6.777  0.00  0.00    +0.171 C 
ATOM     28  N   UNL     1      -6.168  -9.051  -6.003  0.00  0.00    -0.264 NA
ENDROOT
BRANCH   6   5
ATOM      1 CL   UNL     1      -0.561  -9.537  -2.454  0.00  0.00    -0.082 Cl
ATOM      2  C   UNL     1      -2.142  -9.269  -3.150  0.00  0.00    +0.058 A 
ATOM      3  C   UNL     1      -3.267  -9.399  -2.352  0.00  0.00    +0.011 A 
ATOM      4  C   UNL     1      -4.528  -9.178  -2.873  0.00  0.00    +0.002 A 
ATOM      5  C   UNL     1      -4.705  -8.826  -4.208  0.00  0.00    +0.017 A 
ATOM     29  C   UNL     1      -3.569  -8.692  -5.013  0.00  0.00    +0.002 A 
ATOM     30  C   UNL     1      -2.290  -8.909  -4.489  0.00  0.00    +0.011 A 
ENDBRANCH   6   5
BRANCH   9  10
ATOM     10  O   UNL     1      -7.318  -5.482  -1.510  0.00  0.00    -0.471 OA
ATOM     11  C   UNL     1      -8.333  -4.786  -0.761  0.00  0.00    +0.253 C 
ENDBRANCH   9  10
BRANCH  21  22
ATOM     22  C   UNL     1      -7.119  -9.123  -8.268  0.00  0.00    +0.119 C 
BRANCH  22  23
ATOM     23  C   UNL     1      -6.063  -8.035  -8.631  0.00  0.00    +0.244 C 
ATOM     24  O   UNL     1      -6.332  -6.840  -8.477  0.00  0.00    -0.273 OA
ATOM     25  N   UNL     1      -4.853  -8.472  -9.031  0.00  0.00    -0.205 NA
BRANCH  25  26
ATOM     26  C   UNL     1      -3.753  -7.528  -9.372  0.00  0.00    +0.115 C 
ATOM     27  C   UNL     1      -2.418  -8.270  -9.473  0.00  0.00    +0.025 C 
ENDBRANCH  25  26
ENDBRANCH  22  23
ENDBRANCH  21  22
TORSDOF 5
