REMARK  Name = EO5
REMARK  6 active torsions:
REMARK  status: ('A' for Active; 'I' for Inactive)
REMARK    1  A    between atoms: C6_2  and  N5_21
REMARK    2  A    between atoms: C8_4  and  C13_25
REMARK    3  A    between atoms: C36_13  and  N35_39
REMARK    4  A    between atoms: S2_18  and  N5_21
REMARK    5  A    between atoms: N21_31  and  C22_32
REMARK    6  A    between atoms: C22_32  and  C25_33
REMARK                            x       y       z     vdW  Elec       q    Type
REMARK                         _______ _______ _______ _____ _____    ______ ____
ROOT
ATOM      7  C   UNL     1      33.581  14.347  31.865  0.00  0.00    +0.048 C 
ATOM      8  C   UNL     1      34.805  14.870  32.513  0.00  0.00    +0.247 C 
ATOM      9  C   UNL     1      35.968  14.366  33.153  0.00  0.00    +0.358 C 
ATOM     10  N   UNL     1      36.862  15.241  33.599  0.00  0.00    +0.013 NA
ATOM     11  C   UNL     1      36.712  16.542  33.455  0.00  0.00    +0.472 C 
ATOM     12  N   UNL     1      35.650  17.057  32.884  0.00  0.00    +0.016 NA
ATOM     13  N   UNL     1      36.185  13.023  33.393  0.00  0.00    -0.031 NA
ATOM     33  C   UNL     1      34.694  16.269  32.400  0.00  0.00    +0.372 C 
ATOM     34  N   UNL     1      33.531  16.554  31.760  0.00  0.00    -0.034 NA
ATOM     35  C   UNL     1      32.870  15.412  31.444  0.00  0.00    +0.233 C 
ENDROOT
BRANCH   7   6
ATOM      4  C   UNL     1      33.874  10.743  31.119  0.00  0.00    +0.094 A 
ATOM      5  C   UNL     1      34.158  12.051  31.371  0.00  0.00    +0.018 A 
ATOM      6  C   UNL     1      33.168  12.950  31.642  0.00  0.00    +0.005 A 
ATOM     36  C   UNL     1      31.841  12.528  31.617  0.00  0.00    +0.042 A 
ATOM     37  C   UNL     1      31.525  11.201  31.365  0.00  0.00    +0.197 A 
ATOM     38  O   UNL     1      30.199  10.840  31.364  0.00  0.00    -0.286 OA
ATOM     39  C   UNL     1      32.556  10.282  31.110  0.00  0.00    +0.060 A 
BRANCH   4   3
ATOM      3  N   UNL     1      35.045  10.018  30.977  0.00  0.00    -0.101 NA
BRANCH   3   2
ATOM      1  C   UNL     1      35.426  10.489  28.443  0.00  0.00    +0.202 C 
ATOM      2  S   UNL     1      35.470   9.173  29.677  0.00  0.00    +0.075 S 
ATOM     40  O   UNL     1      36.801   8.811  30.002  0.00  0.00    -0.153 OA
ATOM     41  O   UNL     1      34.398   8.233  29.610  0.00  0.00    -0.153 OA
ENDBRANCH   3   2
ENDBRANCH   4   3
ENDBRANCH   7   6
BRANCH  13  14
ATOM     14  C   UNL     1      37.427  12.487  33.923  0.00  0.00    +0.262 C 
ATOM     15  C   UNL     1      37.177  11.017  34.288  0.00  0.00    +0.064 C 
BRANCH  14  16
ATOM     16  C   UNL     1      38.513  12.508  32.892  0.00  0.00    +0.194 C 
ATOM     17  N   UNL     1      39.790  12.966  33.177  0.00  0.00    -0.257 N 
ATOM     24  C   UNL     1      40.781  12.896  32.248  0.00  0.00    +0.283 C 
ATOM     25  O   UNL     1      41.912  13.285  32.488  0.00  0.00    -0.265 OA
ATOM     26  C   UNL     1      40.449  12.347  30.933  0.00  0.00    +0.135 C 
ATOM     27  N   UNL     1      39.146  11.932  30.707  0.00  0.00    -0.223 NA
ATOM     28  C   UNL     1      39.066  11.464  29.452  0.00  0.00    +0.100 C 
ATOM     29  C   UNL     1      40.279  11.588  28.861  0.00  0.00    +0.018 C 
ATOM     30  C   UNL     1      41.168  12.148  29.780  0.00  0.00    +0.002 C 
ATOM     31  C   UNL     1      42.626  12.463  29.552  0.00  0.00    +0.033 C 
ATOM     32  N   UNL     1      38.200  12.015  31.735  0.00  0.00    -0.147 NA
BRANCH  17  18
ATOM     18  C   UNL     1      40.117  13.493  34.427  0.00  0.00    +0.068 A 
ATOM     19  C   UNL     1      40.651  12.660  35.413  0.00  0.00    +0.018 A 
ATOM     20  C   UNL     1      40.967  13.196  36.646  0.00  0.00    +0.002 A 
ATOM     21  C   UNL     1      40.754  14.551  36.893  0.00  0.00    +0.000 A 
ATOM     22  C   UNL     1      40.225  15.380  35.912  0.00  0.00    +0.002 A 
ATOM     23  C   UNL     1      39.908  14.850  34.675  0.00  0.00    +0.018 A 
ENDBRANCH  17  18
ENDBRANCH  14  16
ENDBRANCH  13  14
TORSDOF 6
