REMARK  Name = 3zrk_ligand
REMARK  1 active torsions:
REMARK  status: ('A' for Active; 'I' for Inactive)
REMARK    1  A    between atoms: C11_8  and  C12_9
REMARK                            x       y       z     vdW  Elec       q    Type
REMARK                         _______ _______ _______ _____ _____    ______ ____
ROOT
ATOM      1  C   UNL     1     105.182  21.927 -10.267  0.00  0.00    +0.172 A 
ATOM      2  N   UNL     1     104.040  21.564  -9.584  0.00  0.00    -0.227 N 
ATOM      3  H   UNL     1     104.070  20.718  -9.051  0.00  0.00    +0.252 HD
ATOM      4  C   UNL     1     102.851  22.284  -9.580  0.00  0.00    +0.207 A 
ATOM      5  O   UNL     1     101.824  21.976  -8.987  0.00  0.00    -0.409 OA
ATOM      6  C   UNL     1     102.937  23.474 -10.370  0.00  0.00    +0.056 A 
ATOM      7  C   UNL     1     101.976  24.480 -10.627  0.00  0.00    +0.005 A 
ATOM      8  C   UNL     1     102.615  25.385 -11.450  0.00  0.00    +0.121 A 
ATOM     15  O   UNL     1     103.894  24.983 -11.702  0.00  0.00    -0.260 OA
ATOM     16  C   UNL     1     104.091  23.806 -11.036  0.00  0.00    +0.117 A 
ATOM     17  C   UNL     1     105.261  23.040 -11.010  0.00  0.00    +0.027 A 
ENDROOT
BRANCH   8   9
ATOM      9  C   UNL     1     102.202  26.624 -12.050  0.00  0.00    +0.019 A 
ATOM     10  C   UNL     1     100.915  27.086 -11.877  0.00  0.00    +0.033 A 
ATOM     11  C   UNL     1     100.563  28.283 -12.464  0.00  0.00    +0.081 A 
ATOM     12  N   UNL     1     101.389  29.040 -13.195  0.00  0.00    -0.309 NA
ATOM     13  C   UNL     1     102.632  28.564 -13.341  0.00  0.00    +0.081 A 
ATOM     14  C   UNL     1     103.081  27.379 -12.798  0.00  0.00    +0.033 A 
ENDBRANCH   8   9
TORSDOF 1
