REMARK  Name = 2wmv_ligand
REMARK  2 active torsions:
REMARK  status: ('A' for Active; 'I' for Inactive)
REMARK    1  A    between atoms: CAP_15  and  CAD_16
REMARK    2  A    between atoms: CAD_16  and  NAA_17
REMARK                            x       y       z     vdW  Elec       q    Type
REMARK                         _______ _______ _______ _____ _____    ______ ____
ROOT
ATOM      1  C   UNL     1      12.179  -1.635   7.578  0.00  0.00    +0.105 A 
ATOM      2  C   UNL     1      13.410  -2.265   7.555  0.00  0.00    +0.135 A 
ATOM      3  N   UNL     1      13.630  -3.465   8.239  0.00  0.00    -0.282 N 
ATOM      4  C   UNL     1      14.933  -4.131   8.213  0.00  0.00    +0.166 C 
ATOM      5  C   UNL     1      15.290  -4.658   9.594  0.00  0.00    +0.185 C 
ATOM      6  O   UNL     1      14.315  -5.598  10.063  0.00  0.00    -0.367 OA
ATOM      7  C   UNL     1      13.058  -4.902  10.135  0.00  0.00    +0.186 C 
ATOM     13  C   UNL     1      12.546  -4.253   8.843  0.00  0.00    +0.175 C 
ATOM     14  N   UNL     1      14.400  -1.712   6.844  0.00  0.00    -0.270 NA
ATOM     15  C   UNL     1      14.219  -0.583   6.183  0.00  0.00    +0.153 A 
ATOM     16  N   UNL     1      13.057   0.041   6.189  0.00  0.00    -0.272 NA
ATOM     17  C   UNL     1      12.023  -0.458   6.876  0.00  0.00    +0.157 A 
ATOM     18  N   UNL     1      10.777  -0.050   7.058  0.00  0.00    -0.236 N 
ATOM     19  H   UNL     1      10.358   0.794   6.667  0.00  0.00    +0.239 HD
ATOM     20  C   UNL     1      10.169  -0.935   7.840  0.00  0.00    +0.242 A 
ATOM     21  N   UNL     1      11.022  -1.905   8.159  0.00  0.00    -0.296 NA
ENDROOT
BRANCH   7   8
ATOM      8  C   UNL     1      13.506  -3.839  11.124  0.00  0.00    +0.161 C 
BRANCH   8   9
ATOM      9  N   UNL     1      13.996  -4.498  12.341  0.00  0.00    +0.220 N 
ATOM     10  H   UNL     1      14.782  -5.104  12.105  0.00  0.00    +0.200 HD
ATOM     11  H   UNL     1      13.246  -5.056  12.750  0.00  0.00    +0.200 HD
ATOM     12  H   UNL     1      14.299  -3.791  13.011  0.00  0.00    +0.200 HD
ENDBRANCH   8   9
ENDBRANCH   7   8
TORSDOF 2
