REMARK  Name = 8Q3
REMARK  4 active torsions:
REMARK  status: ('A' for Active; 'I' for Inactive)
REMARK    1  A    between atoms: CAA_11  and  NAJ_12
REMARK    2  A    between atoms: NAJ_12  and  SAK_13
REMARK    3  A    between atoms: SAK_13  and  CAN_16
REMARK    4  A    between atoms: CAO_22  and  OAT_23
REMARK                            x       y       z     vdW  Elec       q    Type
REMARK                         _______ _______ _______ _____ _____    ______ ____
ROOT
ATOM      1  B   UNL     1      -3.830   0.000   2.000  0.00  0.00    +0.000 B 
ENDROOT
TORSDOF 0
