REMARK  Name = 1A4
REMARK  4 active torsions:
REMARK  status: ('A' for Active; 'I' for Inactive)
REMARK    1  A    between atoms: CAS_5  and  SAU_6
REMARK    2  A    between atoms: SAU_6  and  NAL_9
REMARK    3  A    between atoms: NAL_9  and  CAP_10
REMARK    4  A    between atoms: CAQ_15  and  CAR_16
REMARK                            x       y       z     vdW  Elec       q    Type
REMARK                         _______ _______ _______ _____ _____    ______ ____
ROOT
ATOM      5  C   UNL     1      -7.716   8.351  -0.865  0.00  0.00    +0.091 A 
ATOM      6  C   UNL     1      -8.671   7.510  -0.323  0.00  0.00    +0.020 A 
ATOM      7  C   UNL     1      -8.359   6.663   0.729  0.00  0.00    +0.020 A 
ATOM      8  C   UNL     1      -7.078   6.625   1.246  0.00  0.00    +0.002 A 
ATOM      9  C   UNL     1      -6.114   7.458   0.702  0.00  0.00    +0.001 A 
ATOM     16  C   UNL     1      -6.430   8.318  -0.345  0.00  0.00    +0.018 A 
ENDROOT
BRANCH   7  10
ATOM     10  C   UNL     1      -9.431   5.784   1.244  0.00  0.00    +0.092 A 
ATOM     11  C   UNL     1      -9.351   4.771   2.200  0.00  0.00    +0.059 A 
ATOM     12  S   UNL     1     -10.728   4.094   2.401  0.00  0.00    -0.024 S 
ATOM     13  C   UNL     1     -11.638   4.930   1.319  0.00  0.00    +0.311 A 
ATOM     14  O   UNL     1     -12.951   4.809   1.038  0.00  0.00    -0.258 OA
ATOM     15  N   UNL     1     -10.807   5.920   0.681  0.00  0.00    -0.202 NA
ENDBRANCH   7  10
BRANCH   5   4
ATOM      4  N   UNL     1      -8.053   9.223  -1.949  0.00  0.00    -0.096 NA
BRANCH   4   3
ATOM      3  S   UNL     1      -7.220   9.124  -3.354  0.00  0.00    +0.099 S 
ATOM     17  O   UNL     1      -5.842   9.481  -3.095  0.00  0.00    -0.148 OA
ATOM     18  O   UNL     1      -7.787  10.063  -4.339  0.00  0.00    -0.148 OA
BRANCH   3   2
ATOM      1  C   UNL     1      -7.894   7.059  -5.251  0.00  0.00    +0.027 A 
ATOM      2  C   UNL     1      -7.246   7.490  -4.035  0.00  0.00    +0.157 A 
ATOM     19  S   UNL     1      -6.477   6.254  -3.359  0.00  0.00    -0.066 S 
ATOM     20  C   UNL     1      -6.809   5.057  -4.384  0.00  0.00    +0.037 A 
ATOM     21  C   UNL     1      -7.623   5.569  -5.449  0.00  0.00    +0.009 A 
ENDBRANCH   3   2
ENDBRANCH   4   3
ENDBRANCH   5   4
TORSDOF 4
