REMARK  Name = 4i6q_ligand
REMARK  6 active torsions:
REMARK  status: ('A' for Active; 'I' for Inactive)
REMARK    1  A    between atoms: C1_1  and  C10_10
REMARK    2  A    between atoms: C8_8  and  O18_18
REMARK    3  A    between atoms: N11_11  and  C13_13
REMARK    4  A    between atoms: C13_13  and  C14_14
REMARK    5  A    between atoms: C13_13  and  C15_15
REMARK    6  A    between atoms: O18_18  and  C19_19
REMARK                            x       y       z     vdW  Elec       q    Type
REMARK                         _______ _______ _______ _____ _____    ______ ____
ROOT
ATOM      1  C   UNL     1       0.509 -13.208  -4.171  0.00  0.00    +0.071 A 
ATOM     11  C   UNL     1      -0.538 -14.174  -3.889  0.00  0.00    +0.075 A 
ATOM     12  N   UNL     1      -0.673 -15.544  -3.971  0.00  0.00    -0.270 NA
ATOM     13  C   UNL     1      -1.849 -16.074  -3.672  0.00  0.00    +0.200 A 
ATOM     21  C   UNL     1      -2.915 -15.287  -3.193  0.00  0.00    +0.141 A 
ATOM     22  N   UNL     1      -2.802 -13.970  -3.110  0.00  0.00    -0.265 NA
ATOM     23  C   UNL     1      -1.641 -13.394  -3.454  0.00  0.00    +0.161 A 
ATOM     24  N   UNL     1      -1.263 -12.082  -3.443  0.00  0.00    -0.251 N 
ATOM     25  H   UNL     1      -1.875 -11.306  -3.153  0.00  0.00    +0.237 HD
ATOM     26  C   UNL     1       0.016 -11.927  -3.861  0.00  0.00    +0.173 A 
ENDROOT
BRANCH   1   2
ATOM      2  C   UNL     1       1.804 -13.565  -4.685  0.00  0.00    +0.182 C 
ATOM      3  O   UNL     1       2.672 -12.752  -4.900  0.00  0.00    -0.402 OA
ATOM      4  N   UNL     1       2.028 -14.886  -4.889  0.00  0.00    -0.288 N 
ATOM      5  H   UNL     1       1.278 -15.507  -4.660  0.00  0.00    +0.184 HD
BRANCH   4   6
ATOM      6  C   UNL     1       3.262 -15.506  -5.414  0.00  0.00    +0.096 C 
ATOM      7  C   UNL     1       3.449 -16.874  -4.664  0.00  0.00    +0.034 C 
BRANCH   6   8
ATOM      8  C   UNL     1       3.285 -15.675  -6.944  0.00  0.00    +0.014 C 
ATOM      9  C   UNL     1       2.527 -14.734  -7.890  0.00  0.00    +0.006 C 
ATOM     10  C   UNL     1       2.007 -16.140  -7.625  0.00  0.00    +0.006 C 
ENDBRANCH   6   8
ENDBRANCH   4   6
ENDBRANCH   1   2
BRANCH  13  14
ATOM     14  O   UNL     1      -2.073 -17.423  -3.655  0.00  0.00    -0.238 OA
BRANCH  14  15
ATOM     15  C   UNL     1      -1.091 -18.251  -4.205  0.00  0.00    +0.120 A 
ATOM     16  C   UNL     1      -0.845 -19.510  -3.567  0.00  0.00    +0.028 A 
ATOM     17  C   UNL     1       0.072 -20.419  -4.121  0.00  0.00    -0.010 A 
ATOM     18  C   UNL     1       0.716 -20.148  -5.332  0.00  0.00    -0.019 A 
ATOM     19  C   UNL     1       0.434 -18.951  -5.986  0.00  0.00    -0.010 A 
ATOM     20  C   UNL     1      -0.484 -18.013  -5.434  0.00  0.00    +0.028 A 
ENDBRANCH  14  15
ENDBRANCH  13  14
TORSDOF 5
