REMARK  Name = 87S
REMARK  4 active torsions:
REMARK  status: ('A' for Active; 'I' for Inactive)
REMARK    1  A    between atoms: C10_6  and  C15_8
REMARK    2  A    between atoms: C13_7  and  O22_22
REMARK    3  A    between atoms: C17_9  and  C11_14
REMARK    4  A    between atoms: C12_15  and  O22_22
REMARK                            x       y       z     vdW  Elec       q    Type
REMARK                         _______ _______ _______ _____ _____    ______ ____
ROOT
ATOM      1  C   UNL     1     -17.798  11.167   3.264  0.00  0.00    +0.037 A 
ATOM      2  C   UNL     1     -16.510  11.314   2.776  0.00  0.00    +0.147 A 
ATOM     11  C   UNL     1     -16.099  10.670   1.615  0.00  0.00    +0.052 A 
ATOM     21  C   UNL     1     -16.996   9.817   0.990  0.00  0.00    +0.004 A 
ATOM     22  C   UNL     1     -18.277   9.653   1.478  0.00  0.00    +0.000 A 
ATOM     23  C   UNL     1     -18.686  10.337   2.609  0.00  0.00    +0.003 A 
ENDROOT
BRANCH  11  12
ATOM     12  C   UNL     1     -14.760  10.819   1.062  0.00  0.00    +0.084 A 
ATOM     13  C   UNL     1     -13.796  11.799   1.202  0.00  0.00    +0.025 A 
ATOM     14  C   UNL     1     -12.639  11.420   0.470  0.00  0.00    +0.072 A 
ATOM     18  C   UNL     1     -12.926  10.189  -0.103  0.00  0.00    +0.064 A 
ATOM     19  C   UNL     1     -12.145   9.269  -0.968  0.00  0.00    +0.052 C 
ATOM     20  N   UNL     1     -14.202   9.856   0.254  0.00  0.00    -0.249 NA
BRANCH  14  15
ATOM     15  C   UNL     1     -11.388  12.128   0.355  0.00  0.00    +0.285 C 
ATOM     16  N   UNL     1     -11.334  13.278   1.122  0.00  0.00    -0.084 NA
ATOM     17  O   UNL     1     -10.468  11.752  -0.358  0.00  0.00    -0.267 OA
ENDBRANCH  14  15
ENDBRANCH  11  12
BRANCH   2   3
ATOM      3  O   UNL     1     -15.660  12.192   3.437  0.00  0.00    -0.453 OA
BRANCH   3   4
ATOM      4  C   UNL     1     -14.852  11.663   4.430  0.00  0.00    +0.145 A 
ATOM      5  C   UNL     1     -14.126  12.571   5.177  0.00  0.00    +0.038 A 
ATOM      6  C   UNL     1     -13.300  12.097   6.175  0.00  0.00    +0.015 A 
ATOM      7  C   UNL     1     -13.207  10.739   6.406  0.00  0.00    +0.058 A 
ATOM      8 CL   UNL     1     -12.186  10.129   7.653  0.00  0.00    -0.082 Cl
ATOM      9  C   UNL     1     -13.916   9.833   5.655  0.00  0.00    +0.015 A 
ATOM     10  C   UNL     1     -14.739  10.303   4.658  0.00  0.00    +0.038 A 
ENDBRANCH   3   4
ENDBRANCH   2   3
TORSDOF 4
