REMARK  Name = 5DXH
REMARK  5 active torsions:
REMARK  status: ('A' for Active; 'I' for Inactive)
REMARK    1  A    between atoms: N_5  and  C_6
REMARK    2  A    between atoms: C_7  and  O_8
REMARK    3  A    between atoms: O_8  and  C_9
REMARK    4  A    between atoms: C_17  and  C_19
REMARK    5  A    between atoms: N_23  and  C_24
REMARK                            x       y       z     vdW  Elec       q    Type
REMARK                         _______ _______ _______ _____ _____    ______ ____
ROOT
ATOM      1  C   UNL     1      -0.983   0.370   1.086  0.00  0.00    +0.024 A 
ATOM      2  C   UNL     1       0.268  -0.229   1.244  0.00  0.00    +0.014 A 
ATOM      3  C   UNL     1       1.454   0.486   0.970  0.00  0.00    +0.031 A 
ATOM      4  C   UNL     1       2.753  -0.225   1.121  0.00  0.00    +0.027 A 
ATOM      5  S   UNL     1       2.710  -1.862   1.615  0.00  0.00    -0.085 S 
ATOM      6  C   UNL     1       4.439  -2.071   1.473  0.00  0.00    +0.058 A 
ATOM     19  C   UNL     1       4.966  -0.907   1.032  0.00  0.00    +0.023 A 
ATOM     20  C   UNL     1       4.077   0.117   0.819  0.00  0.00    -0.029 A 
ATOM     21  C   UNL     1       4.595   1.460   0.353  0.00  0.00    +0.077 C 
ATOM     22  C   UNL     1       3.576   2.086  -0.564  0.00  0.00    +0.234 C 
ATOM     23  O   UNL     1       2.505   2.561   0.244  0.00  0.00    -0.491 OA
ATOM     24  C   UNL     1       1.381   1.825   0.476  0.00  0.00    +0.131 A 
ATOM     25  C   UNL     1       0.129   2.405   0.368  0.00  0.00    +0.069 A 
ATOM     26  C   UNL     1      -1.038   1.697   0.659  0.00  0.00    +0.040 A 
ENDROOT
BRANCH   6   7
ATOM      7  C   UNL     1       5.186  -3.291   1.835  0.00  0.00    +0.175 A 
ATOM      8  N   UNL     1       4.670  -4.448   2.382  0.00  0.00    -0.280 N 
ATOM     16  C   UNL     1       5.741  -5.280   2.540  0.00  0.00    +0.230 A 
ATOM     17  N   UNL     1       6.810  -4.638   2.156  0.00  0.00    -0.137 NA
ATOM     18  N   UNL     1       6.499  -3.458   1.736  0.00  0.00    -0.129 NA
BRANCH   8   9
ATOM      9  C   UNL     1       3.339  -4.739   2.725  0.00  0.00    +0.068 A 
ATOM     10  C   UNL     1       2.840  -4.416   3.993  0.00  0.00    +0.065 A 
ATOM     11 CL   UNL     1       3.856  -3.640   5.150  0.00  0.00    -0.081 Cl
ATOM     12  C   UNL     1       1.524  -4.687   4.353  0.00  0.00    +0.022 A 
ATOM     13  C   UNL     1       0.689  -5.308   3.436  0.00  0.00    +0.002 A 
ATOM     14  C   UNL     1       1.173  -5.641   2.177  0.00  0.00    +0.002 A 
ATOM     15  C   UNL     1       2.488  -5.356   1.817  0.00  0.00    +0.028 A 
ENDBRANCH   8   9
ENDBRANCH   6   7
BRANCH  26  27
ATOM     27  N   UNL     1      -2.200   2.436   0.441  0.00  0.00    -0.251 N 
ATOM     28  H   UNL     1      -2.038   3.490   0.523  0.00  0.00    +0.158 HD
ATOM     29  C   UNL     1      -3.500   2.126   0.146  0.00  0.00    +0.404 C 
ATOM     32  O   UNL     1      -3.946   0.997   0.114  0.00  0.00    -0.226 OA
BRANCH  29  30
ATOM     30  O   UNL     1      -4.339   3.170  -0.109  0.00  0.00    -0.454 OA
ATOM     31  C   UNL     1      -3.827   4.562  -0.168  0.00  0.00    +0.282 C 
ENDBRANCH  29  30
ENDBRANCH  26  27
TORSDOF 4
