REMARK  Name = 3R30
REMARK  6 active torsions:
REMARK  status: ('A' for Active; 'I' for Inactive)
REMARK    1  A    between atoms: C_8  and  C_11
REMARK    2  A    between atoms: C_15  and  C_17
REMARK    3  A    between atoms: N_20  and  C_24
REMARK    4  A    between atoms: C_21  and  C_22
REMARK    5  A    between atoms: C_23  and  C_24
REMARK    6  A    between atoms: C_23  and  N_26
REMARK                            x       y       z     vdW  Elec       q    Type
REMARK                         _______ _______ _______ _____ _____    ______ ____
ROOT
ATOM      7  C   UNL     1       7.296  19.912  46.336  0.00  0.00    +0.073 A 
ATOM      8  C   UNL     1       6.904  18.884  45.482  0.00  0.00    +0.038 A 
ATOM      9  C   UNL     1       7.042  19.042  44.108  0.00  0.00    +0.006 A 
ATOM     23  C   UNL     1       7.570  20.222  43.626  0.00  0.00    +0.030 A 
ATOM     24  C   UNL     1       7.956  21.214  44.509  0.00  0.00    +0.112 A 
ATOM     25  N   UNL     1       7.812  21.048  45.824  0.00  0.00    -0.255 NA
ENDROOT
BRANCH   7   6
ATOM      1  C   UNL     1       5.939  18.881  52.548  0.00  0.00    +0.002 A 
ATOM      2  C   UNL     1       6.978  19.593  51.944  0.00  0.00    +0.028 A 
ATOM      3  C   UNL     1       7.039  19.660  50.559  0.00  0.00    +0.071 A 
ATOM      4  N   UNL     1       8.030  20.340  49.973  0.00  0.00    -0.254 NA
ATOM      5  C   UNL     1       8.109  20.423  48.643  0.00  0.00    +0.121 A 
ATOM      6  C   UNL     1       7.178  19.805  47.816  0.00  0.00    +0.019 A 
ATOM     26  C   UNL     1       6.139  19.107  48.401  0.00  0.00    +0.021 A 
ATOM     27  C   UNL     1       6.068  19.030  49.786  0.00  0.00    +0.001 A 
ATOM     28  C   UNL     1       5.022  18.323  50.385  0.00  0.00    +0.010 A 
ATOM     29  C   UNL     1       4.962  18.247  51.772  0.00  0.00    +0.001 A 
ENDBRANCH   7   6
BRANCH   9  10
ATOM     10  C   UNL     1       6.612  18.000  43.144  0.00  0.00    +0.094 A 
ATOM     11  N   UNL     1       5.828  16.941  43.392  0.00  0.00    -0.171 NA
ATOM     12  N   UNL     1       5.666  16.268  42.180  0.00  0.00    -0.261 N 
ATOM     18  C   UNL     1       6.333  16.891  41.215  0.00  0.00    +0.085 A 
ATOM     22  C   UNL     1       6.917  17.988  41.803  0.00  0.00    +0.059 A 
BRANCH  18  19
ATOM     19  C   UNL     1       6.461  16.554  39.761  0.00  0.00    +0.090 C 
ATOM     20  O   UNL     1       6.599  17.517  38.969  0.00  0.00    -0.543 OA
ATOM     21  O   UNL     1       6.442  15.364  39.348  0.00  0.00    -0.543 OA
ENDBRANCH  18  19
BRANCH  12  13
ATOM     13  C   UNL     1       4.854  15.033  42.184  0.00  0.00    +0.159 C 
BRANCH  13  14
ATOM     14  C   UNL     1       3.653  15.094  43.135  0.00  0.00    +0.101 C 
BRANCH  14  15
ATOM     15  N   UNL     1       2.773  16.177  42.756  0.00  0.00    -0.328 NA
ATOM     16  H   UNL     1       3.306  17.104  42.804  0.00  0.00    +0.118 HD
ATOM     17  H   UNL     1       2.422  16.019  41.758  0.00  0.00    +0.118 HD
ENDBRANCH  14  15
ENDBRANCH  13  14
ENDBRANCH  12  13
ENDBRANCH   9  10
TORSDOF 6
