REMARK  Name = 3OT
REMARK  8 active torsions:
REMARK  status: ('A' for Active; 'I' for Inactive)
REMARK    1  A    between atoms: N3_1  and  C17_27
REMARK    2  A    between atoms: C4_2  and  C9_6
REMARK    3  A    between atoms: N2_3  and  C16_12
REMARK    4  A    between atoms: C16_12  and  C17_27
REMARK    5  A    between atoms: O1_16  and  C2_17
REMARK    6  A    between atoms: C15_26  and  C22_29
REMARK    7  A    between atoms: C22_29  and  C23_30
REMARK    8  A    between atoms: C23_30  and  C24_31
REMARK                            x       y       z     vdW  Elec       q    Type
REMARK                         _______ _______ _______ _____ _____    ______ ____
ROOT
ATOM      9  N   UNL     1     -16.408   6.374  -5.161  0.00  0.00    -0.313 N 
ATOM     10  C   UNL     1     -16.115   7.746  -5.156  0.00  0.00    +0.079 A 
ATOM     11  C   UNL     1     -15.780   8.628  -4.128  0.00  0.00    +0.019 A 
ATOM     12  C   UNL     1     -15.482   9.922  -4.494  0.00  0.00    +0.002 A 
ATOM     13  C   UNL     1     -15.540  10.352  -5.842  0.00  0.00    +0.002 A 
ATOM     24  C   UNL     1     -15.878   9.483  -6.861  0.00  0.00    +0.021 A 
ATOM     25  C   UNL     1     -16.154   8.155  -6.516  0.00  0.00    +0.098 A 
ATOM     26  N   UNL     1     -16.467   7.063  -7.348  0.00  0.00    -0.231 NA
ATOM     27  C   UNL     1     -16.604   6.015  -6.509  0.00  0.00    +0.121 A 
ENDROOT
BRANCH  13  14
ATOM     14  C   UNL     1     -15.240  11.765  -6.140  0.00  0.00    +0.003 A 
ATOM     15  C   UNL     1     -15.804  12.702  -5.351  0.00  0.00    +0.000 A 
ATOM     16  C   UNL     1     -15.662  14.123  -5.407  0.00  0.00    +0.003 A 
ATOM     17  C   UNL     1     -14.990  14.892  -6.270  0.00  0.00    +0.045 A 
ATOM     18  C   UNL     1     -14.143  14.532  -7.398  0.00  0.00    +0.229 A 
ATOM     19  C   UNL     1     -13.875  13.118  -7.756  0.00  0.00    +0.177 A 
ATOM     22  O   UNL     1     -13.609  15.419  -8.057  0.00  0.00    -0.283 OA
ATOM     23  C   UNL     1     -14.346  11.965  -7.240  0.00  0.00    +0.040 A 
BRANCH  19  20
ATOM     20  O   UNL     1     -12.975  13.158  -8.778  0.00  0.00    -0.468 OA
ATOM     21  C   UNL     1     -12.453  11.955  -9.287  0.00  0.00    +0.253 C 
ENDBRANCH  19  20
ENDBRANCH  13  14
BRANCH   9   8
ATOM      8  C   UNL     1     -16.465   5.534  -3.969  0.00  0.00    +0.125 C 
BRANCH   8   7
ATOM      7  C   UNL     1     -17.902   5.515  -3.389  0.00  0.00    +0.097 C 
BRANCH   7   1
ATOM      1  N   UNL     1     -17.780   5.251  -1.928  0.00  0.00    -0.267 NA
ATOM      2  C   UNL     1     -18.966   5.727  -1.169  0.00  0.00    +0.105 C 
ATOM      3  C   UNL     1     -20.192   4.822  -1.373  0.00  0.00    +0.160 C 
ATOM      4  O   UNL     1     -19.885   3.499  -1.020  0.00  0.00    -0.351 OA
ATOM      5  C   UNL     1     -18.831   2.957  -1.771  0.00  0.00    +0.160 C 
ATOM      6  C   UNL     1     -17.561   3.813  -1.627  0.00  0.00    +0.105 C 
ENDBRANCH   7   1
ENDBRANCH   8   7
ENDBRANCH   9   8
BRANCH  27  28
ATOM     28  C   UNL     1     -16.866   4.626  -6.964  0.00  0.00    +0.069 C 
BRANCH  28  29
ATOM     29  C   UNL     1     -18.029   4.589  -7.955  0.00  0.00    +0.034 C 
BRANCH  29  30
ATOM     30  C   UNL     1     -19.292   5.000  -7.273  0.00  0.00    -0.022 A 
ATOM     31  C   UNL     1     -19.901   4.127  -6.374  0.00  0.00    -0.004 A 
ATOM     32  C   UNL     1     -21.067   4.499  -5.717  0.00  0.00    -0.000 A 
ATOM     33  C   UNL     1     -21.639   5.741  -5.966  0.00  0.00    -0.000 A 
ATOM     34  C   UNL     1     -21.040   6.607  -6.872  0.00  0.00    -0.000 A 
ATOM     35  C   UNL     1     -19.863   6.246  -7.521  0.00  0.00    -0.004 A 
ENDBRANCH  29  30
ENDBRANCH  28  29
ENDBRANCH  27  28
TORSDOF 8
