REMARK  Name = 2WVJ
REMARK  10 active torsions:
REMARK  status: ('A' for Active; 'I' for Inactive)
REMARK    1  A    between atoms: P_1  and  O_4
REMARK    2  A    between atoms: P_1  and  O_13
REMARK    3  A    between atoms: O_4  and  P_5
REMARK    4  A    between atoms: P_5  and  O_8
REMARK    5  A    between atoms: O_8  and  P_9
REMARK    6  A    between atoms: O_13  and  C_14
REMARK    7  A    between atoms: C_14  and  C_15
REMARK    8  A    between atoms: C_17  and  O_18
REMARK    9  A    between atoms: C_20  and  N_21
REMARK   10  A    between atoms: C_27  and  C_28
REMARK                            x       y       z     vdW  Elec       q    Type
REMARK                         _______ _______ _______ _____ _____    ______ ____
ROOT
ATOM      1 ZN   UNL     1      22.507 -32.328  44.417  0.00  0.00    +0.000 Zn
ENDROOT
TORSDOF 0
