REMARK  Name = 2i0y_ligand
REMARK  7 active torsions:
REMARK  status: ('A' for Active; 'I' for Inactive)
REMARK    1  A    between atoms: C1_1  and  N1_18
REMARK    2  A    between atoms: C11_8  and  C12_9
REMARK    3  A    between atoms: C13_10  and  C4_15
REMARK    4  A    between atoms: C13_10  and  O1_19
REMARK    5  A    between atoms: C14_11  and  C15_12
REMARK    6  A    between atoms: C19_14  and  C18_23
REMARK    7  A    between atoms: C6_17  and  N2_20
REMARK                            x       y       z     vdW  Elec       q    Type
REMARK                         _______ _______ _______ _____ _____    ______ ____
ROOT
ATOM      1  C   UNL     1       4.821  29.492   6.694  0.00  0.00    +0.057 A 
ATOM      9  C   UNL     1       5.530  28.816   7.763  0.00  0.00    +0.080 A 
ATOM     21  C   UNL     1       5.468  29.342   9.098  0.00  0.00    -0.008 A 
ATOM     22  C   UNL     1       4.712  30.516   9.396  0.00  0.00    -0.044 A 
ATOM     26  C   UNL     1       4.010  31.171   8.345  0.00  0.00    -0.045 A 
ATOM     27  C   UNL     1       4.066  30.667   7.019  0.00  0.00    -0.018 A 
ENDROOT
BRANCH   1   2
ATOM      2  N   UNL     1       4.890  29.102   5.331  0.00  0.00    -0.317 N 
ATOM      3  C   UNL     1       3.620  28.770   4.602  0.00  0.00    +0.124 C 
ATOM      4  C   UNL     1       3.857  28.041   3.260  0.00  0.00    +0.026 C 
ATOM      5  C   UNL     1       5.038  28.628   2.468  0.00  0.00    -0.010 C 
ATOM      6  C   UNL     1       5.224  27.874   1.154  0.00  0.00    +0.007 C 
ATOM      7  C   UNL     1       6.308  28.520   3.306  0.00  0.00    +0.026 C 
ATOM      8  C   UNL     1       6.200  29.300   4.626  0.00  0.00    +0.124 C 
ENDBRANCH   1   2
BRANCH   9  10
ATOM     10  N   UNL     1       6.197  27.613   7.430  0.00  0.00    -0.236 N 
ATOM     11  H   UNL     1       6.000  27.289   6.505  0.00  0.00    +0.221 HD
ATOM     12  C   UNL     1       7.069  26.794   8.131  0.00  0.00    +0.268 C 
ATOM     13  O   UNL     1       7.478  26.985   9.280  0.00  0.00    -0.371 OA
BRANCH  12  14
ATOM     14  C   UNL     1       7.448  25.614   7.357  0.00  0.00    +0.211 A 
ATOM     15  O   UNL     1       6.918  25.440   6.094  0.00  0.00    -0.214 OA
ATOM     16  C   UNL     1       7.418  24.279   5.603  0.00  0.00    +0.235 A 
ATOM     17  C   UNL     1       8.266  23.688   6.517  0.00  0.00    +0.046 A 
ATOM     20  C   UNL     1       8.285  24.552   7.649  0.00  0.00    +0.032 A 
BRANCH  16  18
ATOM     18  C   UNL     1       7.010  23.900   4.300  0.00  0.00    +0.118 C 
ATOM     19  N   UNL     1       6.683  23.601   3.228  0.00  0.00    -0.347 NA
ENDBRANCH  16  18
ENDBRANCH  12  14
ENDBRANCH   9  10
BRANCH  22  23
ATOM     23  C   UNL     1       4.658  31.047  10.801  0.00  0.00    +0.208 C 
BRANCH  23  24
ATOM     24  O   UNL     1       3.393  30.696  11.364  0.00  0.00    -0.385 OA
ATOM     25  H   UNL     1       3.342  31.025  12.254  0.00  0.00    +0.212 HD
ENDBRANCH  23  24
ENDBRANCH  22  23
TORSDOF 6
