REMARK  Name = 3amb_ligand
REMARK  7 active torsions:
REMARK  status: ('A' for Active; 'I' for Inactive)
REMARK    1  A    between atoms: N1_1  and  C7_7
REMARK    2  A    between atoms: N4_4  and  C8_8
REMARK    3  A    between atoms: C12_12  and  S23_21
REMARK    4  A    between atoms: C18_17  and  C21_20
REMARK    5  A    between atoms: S23_21  and  C24_22
REMARK    6  A    between atoms: C27_25  and  N30_28
REMARK    7  A    between atoms: C31_29  and  C33_31
REMARK                            x       y       z     vdW  Elec       q    Type
REMARK                         _______ _______ _______ _____ _____    ______ ____
ROOT
ATOM      6  C   UNL     1     -30.969  -9.757 -10.585  0.00  0.00    +0.108 A 
ATOM      7  N   UNL     1     -29.690  -9.929 -10.222  0.00  0.00    -0.259 NA
ATOM      8  C   UNL     1     -29.341 -10.038  -8.929  0.00  0.00    +0.144 A 
ATOM     23  N   UNL     1     -30.257  -9.980  -7.947  0.00  0.00    -0.257 NA
ATOM     24  C   UNL     1     -31.557  -9.807  -8.236  0.00  0.00    +0.122 A 
ATOM     25  N   UNL     1     -32.502  -9.734  -7.289  0.00  0.00    -0.261 N 
ATOM     26  H   UNL     1     -33.446  -9.552  -7.630  0.00  0.00    +0.212 HD
ATOM     27  C   UNL     1     -32.390  -9.865  -5.952  0.00  0.00    +0.096 A 
ATOM     28  N   UNL     1     -33.448  -9.708  -5.167  0.00  0.00    -0.229 NA
ATOM     29  N   UNL     1     -33.124  -9.883  -3.994  0.00  0.00    -0.234 N 
ATOM     30  H   UNL     1     -33.753  -9.837  -3.192  0.00  0.00    +0.245 HD
ATOM     31  C   UNL     1     -31.823 -10.142  -3.940  0.00  0.00    +0.056 A 
ATOM     32  C   UNL     1     -31.084 -10.397  -2.618  0.00  0.00    +0.127 C 
ATOM     33  C   UNL     1     -31.316 -10.134  -5.175  0.00  0.00    -0.004 A 
ATOM     34  C   UNL     1     -31.939  -9.690  -9.580  0.00  0.00    +0.068 A 
ENDROOT
BRANCH   6   5
ATOM      1  N   UNL     1     -31.751  -8.481 -14.485  0.00  0.00    +0.404 NA
ATOM      2  C   UNL     1     -31.818  -7.373 -15.442  0.00  0.00    -0.131 C 
ATOM      3  C   UNL     1     -32.681  -8.169 -13.373  0.00  0.00    -0.085 C 
ATOM      4  C   UNL     1     -32.687  -9.355 -12.402  0.00  0.00    +0.114 C 
ATOM      5  N   UNL     1     -31.282  -9.631 -11.961  0.00  0.00    -0.296 N 
ATOM     35  C   UNL     1     -30.198  -9.738 -13.002  0.00  0.00    +0.114 C 
ATOM     36  C   UNL     1     -30.341  -8.625 -14.049  0.00  0.00    -0.085 C 
ENDBRANCH   6   5
BRANCH   8   9
ATOM      9  S   UNL     1     -27.647 -10.277  -8.587  0.00  0.00    -0.016 S 
BRANCH   9  10
ATOM     10  C   UNL     1     -27.498  -9.983  -6.840  0.00  0.00    +0.022 A 
ATOM     11  C   UNL     1     -27.385 -11.057  -5.961  0.00  0.00    -0.006 A 
ATOM     12  C   UNL     1     -27.250 -10.822  -4.588  0.00  0.00    +0.003 A 
ATOM     13  C   UNL     1     -27.235  -9.517  -4.076  0.00  0.00    +0.060 A 
ATOM     21  C   UNL     1     -27.336  -8.444  -4.964  0.00  0.00    +0.003 A 
ATOM     22  C   UNL     1     -27.455  -8.680  -6.342  0.00  0.00    -0.006 A 
BRANCH  13  14
ATOM     14  N   UNL     1     -27.094  -9.243  -2.764  0.00  0.00    -0.237 N 
ATOM     15  H   UNL     1     -26.930  -8.264  -2.529  0.00  0.00    +0.224 HD
ATOM     16  C   UNL     1     -27.142 -10.087  -1.735  0.00  0.00    +0.205 C 
ATOM     20  O   UNL     1     -27.365 -11.304  -1.798  0.00  0.00    -0.385 OA
BRANCH  16  17
ATOM     17  C   UNL     1     -26.920  -9.406  -0.399  0.00  0.00    +0.109 C 
ATOM     18  C   UNL     1     -26.310 -10.276   0.706  0.00  0.00    +0.028 C 
ATOM     19  C   UNL     1     -27.811  -9.928   0.748  0.00  0.00    +0.028 C 
ENDBRANCH  16  17
ENDBRANCH  13  14
ENDBRANCH   9  10
ENDBRANCH   8   9
TORSDOF 5
