REMARK  Name = 2ZM4
REMARK  4 active torsions:
REMARK  status: ('A' for Active; 'I' for Inactive)
REMARK    1  A    between atoms: C_6  and  C_7
REMARK    2  A    between atoms: C_8  and  N_9
REMARK    3  A    between atoms: C_18  and  N_23
REMARK    4  A    between atoms: C_27  and  C_28
REMARK                            x       y       z     vdW  Elec       q    Type
REMARK                         _______ _______ _______ _____ _____    ______ ____
ROOT
ATOM      4  N   UNL     1      21.245  37.515   7.853  0.00  0.00    -0.296 N 
ATOM      5  H   UNL     1      21.037  38.369   8.463  0.00  0.00    +0.154 HD
ATOM      6  C   UNL     1      22.546  37.023   7.850  0.00  0.00    +0.149 A 
ATOM      7  N   UNL     1      22.865  35.998   6.982  0.00  0.00    -0.228 NA
ATOM      8  C   UNL     1      24.115  35.434   6.938  0.00  0.00    +0.090 A 
ATOM      9  C   UNL     1      25.209  35.959   7.851  0.00  0.00    +0.075 A 
ATOM     10  N   UNL     1      24.891  37.013   8.731  0.00  0.00    -0.294 N 
ATOM     11  C   UNL     1      25.732  37.597   9.608  0.00  0.00    +0.204 A 
ATOM     12  N   UNL     1      25.022  38.550  10.265  0.00  0.00    -0.243 NA
ATOM     13  C   UNL     1      23.735  38.559   9.799  0.00  0.00    +0.142 A 
ATOM     14  C   UNL     1      26.490  35.372   7.782  0.00  0.00    +0.051 A 
ATOM     15  C   UNL     1      26.734  34.312   6.856  0.00  0.00    +0.032 A 
ATOM     24  C   UNL     1      25.694  33.834   6.012  0.00  0.00    +0.025 A 
ATOM     25  C   UNL     1      24.403  34.381   6.043  0.00  0.00    +0.032 A 
ATOM     26  C   UNL     1      23.645  37.549   8.775  0.00  0.00    +0.106 A 
ENDROOT
BRANCH   4   3
ATOM      1 CL   UNL     1      18.964  35.493   9.323  0.00  0.00    -0.082 Cl
ATOM      2  C   UNL     1      19.091  36.062   7.625  0.00  0.00    +0.062 A 
ATOM      3  C   UNL     1      20.191  36.971   7.114  0.00  0.00    +0.054 A 
ATOM     27  C   UNL     1      20.093  37.322   5.665  0.00  0.00    -0.028 A 
ATOM     28  C   UNL     1      21.134  38.247   5.058  0.00  0.00    +0.045 C 
ATOM     29  C   UNL     1      19.044  36.785   4.892  0.00  0.00    +0.005 A 
ATOM     30  C   UNL     1      18.081  35.940   5.430  0.00  0.00    +0.002 A 
ATOM     31  C   UNL     1      18.098  35.595   6.770  0.00  0.00    +0.022 A 
ENDBRANCH   4   3
BRANCH  15  16
ATOM     16  N   UNL     1      28.031  33.726   6.816  0.00  0.00    -0.327 N 
ATOM     17  C   UNL     1      28.717  33.670   8.118  0.00  0.00    +0.123 C 
ATOM     18  C   UNL     1      30.107  33.027   8.066  0.00  0.00    +0.068 C 
ATOM     19  C   UNL     1      31.187  34.127   8.157  0.00  0.00    +0.025 C 
ATOM     20  N   UNL     1      30.260  32.072   6.951  0.00  0.00    -0.311 NA
ATOM     21  H   UNL     1      31.147  32.367   6.430  0.00  0.00    +0.122 HD
ATOM     22  C   UNL     1      29.246  31.876   5.934  0.00  0.00    +0.100 C 
ATOM     23  C   UNL     1      28.610  33.206   5.563  0.00  0.00    +0.120 C 
ENDBRANCH  15  16
TORSDOF 2
