REMARK  Name = 2YN
REMARK  16 active torsions:
REMARK  status: ('A' for Active; 'I' for Inactive)
REMARK    1  A    between atoms: PB5_2  and  O45_5
REMARK    2  A    between atoms: O45_5  and  PA5_6
REMARK    3  A    between atoms: PA5_6  and  O15_9
REMARK    4  A    between atoms: O15_9  and  C5_10
REMARK    5  A    between atoms: C4_11  and  O14_12
REMARK    6  A    between atoms: O14_12  and  PA4_13
REMARK    7  A    between atoms: C6_17  and  O16_18
REMARK    8  A    between atoms: O16_18  and  PA6_19
REMARK    9  A    between atoms: C1_23  and  O11_24
REMARK   10  A    between atoms: O11_24  and  PA1_25
REMARK   11  A    between atoms: C2_29  and  O12_30
REMARK   12  A    between atoms: O12_30  and  PA2_31
REMARK   13  A    between atoms: C3_35  and  O13_36
REMARK   14  A    between atoms: O13_36  and  PA3_37
REMARK   15  A    between atoms: PA3_37  and  O43_40
REMARK   16  A    between atoms: O43_40  and  PB3_41
REMARK                            x       y       z     vdW  Elec       q    Type
REMARK                         _______ _______ _______ _____ _____    ______ ____
ROOT
ATOM     10  C   UNL     1       0.682  20.916  12.383  0.00  0.00    +0.182 C 
ATOM     11  C   UNL     1      -0.769  20.790  12.051  0.00  0.00    +0.186 C 
ATOM     17  C   UNL     1      -0.948  19.750  10.992  0.00  0.00    +0.182 C 
ATOM     27  C   UNL     1      -0.170  20.123   9.721  0.00  0.00    +0.186 C 
ATOM     28  C   UNL     1       1.329  20.321  10.041  0.00  0.00    +0.186 C 
ATOM     39  C   UNL     1       1.508  21.318  11.164  0.00  0.00    +0.186 C 
ENDROOT
BRANCH  10   9
ATOM      9  O   UNL     1       0.771  21.935  13.349  0.00  0.00    -0.311 OA
BRANCH   9   6
ATOM      6  P   UNL     1       1.340  21.649  14.863  0.00  0.00    +0.223 P 
ATOM      7  O   UNL     1       0.281  22.050  15.809  0.00  0.00    -0.437 OA
ATOM      8  O   UNL     1       1.921  20.286  14.925  0.00  0.00    -0.517 OA
BRANCH   6   5
ATOM      5  O   UNL     1       2.558  22.756  14.857  0.00  0.00    -0.226 OA
BRANCH   5   2
ATOM      1  O   UNL     1       1.724  24.332  16.644  0.00  0.00    -0.114 OA
ATOM      2  P   UNL     1       3.077  23.578  16.160  0.00  0.00    +0.537 P 
ATOM      3  O   UNL     1       3.528  22.572  17.162  0.00  0.00    -0.114 OA
ATOM      4  O   UNL     1       4.024  24.620  15.689  0.00  0.00    -0.222 OA
ENDBRANCH   5   2
ENDBRANCH   6   5
ENDBRANCH   9   6
ENDBRANCH  10   9
BRANCH  11  12
ATOM     12  O   UNL     1      -1.438  20.348  13.256  0.00  0.00    -0.268 OA
BRANCH  12  13
ATOM     13  P   UNL     1      -2.675  21.156  13.925  0.00  0.00    +0.533 P 
ATOM     14  O   UNL     1      -2.413  20.919  15.364  0.00  0.00    -0.115 OA
ATOM     15  O   UNL     1      -2.536  22.563  13.525  0.00  0.00    -0.115 OA
ATOM     16  O   UNL     1      -3.797  20.408  13.360  0.00  0.00    -0.222 OA
ENDBRANCH  12  13
ENDBRANCH  11  12
BRANCH  17  18
ATOM     18  O   UNL     1      -2.357  19.606  10.716  0.00  0.00    -0.311 OA
BRANCH  18  19
ATOM     19  P   UNL     1      -2.886  18.185  10.135  0.00  0.00    +0.223 P 
ATOM     25  O   UNL     1      -1.919  17.004  10.684  0.00  0.00    -0.437 OA
ATOM     26  O   UNL     1      -2.889  18.197   8.643  0.00  0.00    -0.517 OA
BRANCH  19  20
ATOM     20  O   UNL     1      -4.268  17.962  10.876  0.00  0.00    -0.226 OA
BRANCH  20  21
ATOM     21  P   UNL     1      -5.541  18.878  10.495  0.00  0.00    +0.537 P 
ATOM     22  O   UNL     1      -5.581  19.914  11.520  0.00  0.00    -0.114 OA
ATOM     23  O   UNL     1      -6.681  17.946  10.488  0.00  0.00    -0.114 OA
ATOM     24  O   UNL     1      -5.127  19.334   9.147  0.00  0.00    -0.222 OA
ENDBRANCH  20  21
ENDBRANCH  19  20
ENDBRANCH  18  19
ENDBRANCH  17  18
BRANCH  28  29
ATOM     29  O   UNL     1       2.050  20.836   8.844  0.00  0.00    -0.268 OA
BRANCH  29  30
ATOM     30  P   UNL     1       3.367  20.043   8.306  0.00  0.00    +0.533 P 
ATOM     31  O   UNL     1       4.284  20.058   9.479  0.00  0.00    -0.115 OA
ATOM     32  O   UNL     1       2.775  18.708   8.006  0.00  0.00    -0.115 OA
ATOM     33  O   UNL     1       3.813  20.821   7.141  0.00  0.00    -0.222 OA
ENDBRANCH  29  30
ENDBRANCH  28  29
BRANCH  27  34
ATOM     34  O   UNL     1      -0.648  21.333   9.192  0.00  0.00    -0.268 OA
BRANCH  34  35
ATOM     35  P   UNL     1      -1.081  21.461   7.612  0.00  0.00    +0.533 P 
ATOM     36  O   UNL     1      -2.497  21.006   7.720  0.00  0.00    -0.115 OA
ATOM     37  O   UNL     1      -0.871  22.890   7.366  0.00  0.00    -0.115 OA
ATOM     38  O   UNL     1      -0.225  20.556   6.823  0.00  0.00    -0.222 OA
ENDBRANCH  34  35
ENDBRANCH  27  34
BRANCH  39  40
ATOM     40  O   UNL     1       2.887  21.292  11.556  0.00  0.00    -0.268 OA
BRANCH  40  41
ATOM     41  P   UNL     1       3.763  22.624  11.596  0.00  0.00    +0.533 P 
ATOM     42  O   UNL     1       4.547  22.511  12.841  0.00  0.00    -0.115 OA
ATOM     43  O   UNL     1       2.819  23.753  11.557  0.00  0.00    -0.115 OA
ATOM     44  O   UNL     1       4.536  22.414  10.333  0.00  0.00    -0.222 OA
ENDBRANCH  40  41
ENDBRANCH  39  40
TORSDOF 16
