REMARK  Name = 4XV9
REMARK  6 active torsions:
REMARK  status: ('A' for Active; 'I' for Inactive)
REMARK    1  A    between atoms: C_2  and  C_5
REMARK    2  A    between atoms: C_10  and  S_11
REMARK    3  A    between atoms: S_11  and  N_14
REMARK    4  A    between atoms: N_14  and  C_15
REMARK    5  A    between atoms: C_22  and  C_23
REMARK    6  A    between atoms: C_23  and  C_25
REMARK                            x       y       z     vdW  Elec       q    Type
REMARK                         _______ _______ _______ _____ _____    ______ ____
ROOT
ATOM     10  C   UNL     1      76.165  24.614  -9.122  0.00  0.00    +0.084 A 
ATOM     11  C   UNL     1      75.735  25.343 -10.243  0.00  0.00    +0.030 A 
ATOM     12  C   UNL     1      76.043  24.949 -11.553  0.00  0.00    +0.041 A 
ATOM     13  C   UNL     1      76.803  23.812 -11.825  0.00  0.00    +0.137 A 
ATOM     14  C   UNL     1      77.291  22.979 -10.705  0.00  0.00    +0.094 A 
ATOM     27  F   UNL     1      77.083  23.449 -13.088  0.00  0.00    -0.205 F 
ATOM     28  C   UNL     1      76.985  23.395  -9.327  0.00  0.00    +0.159 A 
ATOM     29  F   UNL     1      77.443  22.660  -8.298  0.00  0.00    -0.203 F 
ENDROOT
BRANCH  10   8
ATOM      8  N   UNL     1      75.935  24.978  -7.834  0.00  0.00    -0.214 N 
ATOM      9  H   UNL     1      76.169  24.270  -7.067  0.00  0.00    +0.174 HD
BRANCH   8   7
ATOM      7  S   UNL     1      75.339  26.390  -7.385  0.00  0.00    +0.072 S 
ATOM     30  O   UNL     1      73.935  26.461  -7.677  0.00  0.00    -0.150 OA
ATOM     31  O   UNL     1      76.008  27.432  -8.111  0.00  0.00    -0.150 OA
BRANCH   7   6
ATOM      3  C   UNL     1      76.035  27.072  -3.061  0.00  0.00    +0.055 A 
ATOM      4  C   UNL     1      77.026  27.363  -4.002  0.00  0.00    +0.014 A 
ATOM      5  C   UNL     1      76.803  27.138  -5.362  0.00  0.00    +0.029 A 
ATOM      6  C   UNL     1      75.588  26.623  -5.812  0.00  0.00    +0.109 A 
ATOM     32  C   UNL     1      74.591  26.341  -4.871  0.00  0.00    +0.029 A 
ATOM     33  C   UNL     1      74.811  26.563  -3.509  0.00  0.00    +0.014 A 
BRANCH   3   2
ATOM      1  F   UNL     1      77.344  26.664  -1.170  0.00  0.00    -0.166 F 
ATOM      2  C   UNL     1      76.294  27.342  -1.597  0.00  0.00    +0.417 C 
ATOM     34  F   UNL     1      75.239  27.044  -0.860  0.00  0.00    -0.166 F 
ATOM     35  F   UNL     1      76.537  28.632  -1.437  0.00  0.00    -0.166 F 
ENDBRANCH   3   2
ENDBRANCH   7   6
ENDBRANCH   8   7
ENDBRANCH  10   8
BRANCH  14  15
ATOM     15  C   UNL     1      78.128  21.768 -10.939  0.00  0.00    +0.201 C 
ATOM     26  O   UNL     1      77.659  20.641 -10.899  0.00  0.00    -0.286 OA
BRANCH  15  16
ATOM     16  C   UNL     1      79.554  22.098 -11.200  0.00  0.00    +0.051 A 
ATOM     17  C   UNL     1      80.545  21.089 -11.634  0.00  0.00    +0.033 A 
ATOM     18  C   UNL     1      80.542  19.732 -11.891  0.00  0.00    +0.034 A 
ATOM     19  C   UNL     1      81.779  19.206 -12.282  0.00  0.00    +0.060 A 
ATOM     20 CL   UNL     1      81.972  17.476 -12.653  0.00  0.00    -0.082 Cl
ATOM     21  C   UNL     1      82.925  19.998 -12.398  0.00  0.00    +0.133 A 
ATOM     22  N   UNL     1      82.905  21.310 -12.142  0.00  0.00    -0.234 NA
ATOM     23  C   UNL     1      81.749  21.872 -11.764  0.00  0.00    +0.161 A 
ATOM     24  N   UNL     1      81.549  23.193 -11.462  0.00  0.00    -0.235 NA
ATOM     25  C   UNL     1      80.228  23.342 -11.123  0.00  0.00    +0.125 A 
ENDBRANCH  15  16
ENDBRANCH  14  15
TORSDOF 6
