REMARK  Name = R94
REMARK  7 active torsions:
REMARK  status: ('A' for Active; 'I' for Inactive)
REMARK    1  A    between atoms: C61_2  and  C71_3
REMARK    2  A    between atoms: C61_2  and  C54_16
REMARK    3  A    between atoms: C75_7  and  N91_8
REMARK    4  A    between atoms: C51_21  and  C42_22
REMARK    5  A    between atoms: N41_24  and  C37_25
REMARK    6  A    between atoms: C31_31  and  N23_32
REMARK    7  A    between atoms: C21_33  and  C14_35
REMARK                            x       y       z     vdW  Elec       q    Type
REMARK                         _______ _______ _______ _____ _____    ______ ____
ROOT
ATOM      3  C   UNL     1       2.329  35.392  17.996  0.00  0.00    +0.039 A 
ATOM      4  C   UNL     1       1.289  34.985  18.848  0.00  0.00    +0.003 A 
ATOM      5  C   UNL     1       1.543  34.091  19.878  0.00  0.00    +0.005 A 
ATOM      6  C   UNL     1       2.842  33.594  20.071  0.00  0.00    +0.055 A 
ATOM     26  C   UNL     1       3.891  34.004  19.225  0.00  0.00    +0.005 A 
ATOM     27  C   UNL     1       3.640  34.900  18.188  0.00  0.00    +0.003 A 
ENDROOT
BRANCH   6   7
ATOM      7  C   UNL     1       3.118  32.676  21.168  0.00  0.00    +0.265 C 
ATOM      8  O   UNL     1       2.384  32.591  22.162  0.00  0.00    -0.268 OA
ATOM      9  N   UNL     1       4.302  31.950  21.125  0.00  0.00    -0.202 NA
BRANCH   9  10
ATOM     10  C   UNL     1       4.826  31.272  22.351  0.00  0.00    +0.117 C 
ATOM     11  C   UNL     1       5.317  32.385  23.302  0.00  0.00    +0.025 C 
ATOM     12  C   UNL     1       6.360  33.359  22.745  0.00  0.00    +0.021 C 
ATOM     13  C   UNL     1       7.754  32.745  22.784  0.00  0.00    +0.089 C 
ATOM     14  N   UNL     1       7.831  31.573  21.814  0.00  0.00    -0.216 NA
ATOM     15  C   UNL     1       7.276  30.275  22.361  0.00  0.00    +0.112 C 
ATOM     16  C   UNL     1       5.795  30.113  21.984  0.00  0.00    +0.133 C 
BRANCH  16  17
ATOM     17  N   UNL     1       5.339  28.837  22.582  0.00  0.00    -0.200 NA
ATOM     18  C   UNL     1       5.135  27.729  21.771  0.00  0.00    +0.265 C 
ATOM     25  O   UNL     1       5.042  27.910  20.547  0.00  0.00    -0.268 OA
BRANCH  18  19
ATOM     19  C   UNL     1       4.952  26.393  22.336  0.00  0.00    +0.058 A 
ATOM     20  C   UNL     1       4.940  26.138  23.705  0.00  0.00    +0.025 A 
ATOM     21  C   UNL     1       4.744  24.833  24.150  0.00  0.00    +0.099 A 
ATOM     22  N   UNL     1       4.534  23.819  23.309  0.00  0.00    -0.242 NA
ATOM     23  C   UNL     1       4.550  24.040  21.989  0.00  0.00    +0.099 A 
ATOM     24  C   UNL     1       4.725  25.316  21.460  0.00  0.00    +0.025 A 
ENDBRANCH  18  19
ENDBRANCH  16  17
ENDBRANCH   9  10
ENDBRANCH   6   7
BRANCH   3   2
ATOM      1  O   UNL     1       1.059  37.085  17.178  0.00  0.00    -0.286 OA
ATOM      2  C   UNL     1       2.049  36.382  16.960  0.00  0.00    +0.199 C 
BRANCH   2  28
ATOM     28  C   UNL     1       2.915  36.743  15.823  0.00  0.00    +0.079 A 
ATOM     29  C   UNL     1       3.422  38.068  15.809  0.00  0.00    +0.021 A 
ATOM     30  C   UNL     1       4.234  38.537  14.762  0.00  0.00    +0.048 A 
ATOM     37  C   UNL     1       4.557  37.637  13.722  0.00  0.00    +0.018 A 
ATOM     38  C   UNL     1       4.070  36.332  13.713  0.00  0.00    +0.043 A 
ATOM     39  C   UNL     1       3.252  35.876  14.771  0.00  0.00    +0.199 A 
ATOM     40  O   UNL     1       2.783  34.579  14.738  0.00  0.00    -0.286 OA
BRANCH  30  31
ATOM     31  N   UNL     1       4.724  39.828  14.753  0.00  0.00    -0.308 N 
ATOM     32  C   UNL     1       4.270  40.768  15.799  0.00  0.00    +0.091 C 
ATOM     33  C   UNL     1       5.308  41.882  15.984  0.00  0.00    +0.021 C 
ATOM     34  C   UNL     1       5.607  42.568  14.642  0.00  0.00    +0.004 C 
ATOM     35  C   UNL     1       6.120  41.540  13.626  0.00  0.00    +0.021 C 
ATOM     36  C   UNL     1       5.087  40.419  13.447  0.00  0.00    +0.091 C 
ENDBRANCH  30  31
ENDBRANCH   2  28
ENDBRANCH   3   2
TORSDOF 7
