REMARK  Name = 5DFP
REMARK  10 active torsions:
REMARK  status: ('A' for Active; 'I' for Inactive)
REMARK    1  A    between atoms: C_1  and  C_19
REMARK    2  A    between atoms: C_2  and  C_28
REMARK    3  A    between atoms: C_5  and  C_31
REMARK    4  A    between atoms: C_6  and  C_7
REMARK    5  A    between atoms: C_6  and  N_10
REMARK    6  A    between atoms: C_7  and  C_33
REMARK    7  A    between atoms: N_17  and  C_21
REMARK    8  A    between atoms: C_18  and  O_23
REMARK    9  A    between atoms: C_21  and  C_22
REMARK   10  A    between atoms: N_35  and  C_37
REMARK                            x       y       z     vdW  Elec       q    Type
REMARK                         _______ _______ _______ _____ _____    ______ ____
ROOT
ATOM     13  C   UNL     1      11.848  34.945 -13.430  0.00  0.00    +0.023 C 
ATOM     14  C   UNL     1      12.935  34.790 -12.488  0.00  0.00    +0.081 C 
ATOM     15  C   UNL     1      14.381  34.780 -12.958  0.00  0.00    +0.016 A 
ATOM     16  C   UNL     1      15.540  34.652 -12.173  0.00  0.00    +0.121 A 
ATOM     17  N   UNL     1      16.804  34.666 -12.710  0.00  0.00    -0.223 NA
ATOM     18  C   UNL     1      16.866  34.802 -14.073  0.00  0.00    +0.217 A 
ATOM     19  N   UNL     1      15.822  34.950 -14.921  0.00  0.00    -0.199 NA
ATOM     20  N   UNL     1      18.160  34.839 -14.749  0.00  0.00    -0.313 N 
ATOM     21  H   UNL     1      18.219  35.787 -15.241  0.00  0.00    +0.149 HD
ATOM     31  C   UNL     1      14.606  34.942 -14.359  0.00  0.00    +0.136 A 
ATOM     32  N   UNL     1      13.475  35.093 -15.319  0.00  0.00    -0.256 N 
ATOM     35  C   UNL     1      12.120  35.079 -14.840  0.00  0.00    +0.190 C 
ENDROOT
BRANCH  13   1
ATOM      1  C   UNL     1      10.420  34.929 -12.924  0.00  0.00    +0.002 A 
ATOM      2  C   UNL     1       9.868  33.737 -12.457  0.00  0.00    +0.010 A 
ATOM      3  C   UNL     1       8.542  33.725 -12.007  0.00  0.00    +0.010 A 
ATOM      4  C   UNL     1       7.788  34.903 -12.023  0.00  0.00    +0.003 A 
ATOM     12  C   UNL     1       8.328  36.095 -12.506  0.00  0.00    +0.030 A 
ATOM     38  C   UNL     1       9.647  36.100 -12.953  0.00  0.00    +0.049 A 
ATOM     39 CL   UNL     1      10.333  37.557 -13.548  0.00  0.00    -0.083 Cl
BRANCH   4   5
ATOM      5  C   UNL     1       6.371  34.836 -11.535  0.00  0.00    +0.089 A 
ATOM      6  N   UNL     1       5.406  35.342 -12.319  0.00  0.00    -0.249 NA
ATOM      7  C   UNL     1       4.153  35.207 -11.836  0.00  0.00    +0.057 A 
ATOM      8  C   UNL     1       3.889  34.603 -10.616  0.00  0.00    +0.133 A 
ATOM      9  N   UNL     1       4.854  34.092  -9.834  0.00  0.00    -0.259 NA
ATOM     10  C   UNL     1       3.012  35.745 -12.646  0.00  0.00    +0.067 C 
ATOM     11  C   UNL     1       6.112  34.215 -10.314  0.00  0.00    +0.139 A 
ENDBRANCH   4   5
ENDBRANCH  13   1
BRANCH  32  33
ATOM     33  C   UNL     1      13.703  35.232 -16.753  0.00  0.00    +0.112 C 
ATOM     34  C   UNL     1      13.935  33.863 -17.355  0.00  0.00    +0.025 C 
ENDBRANCH  32  33
BRANCH  35  36
ATOM     36  O   UNL     1      11.065  35.214 -15.683  0.00  0.00    -0.495 OA
ATOM     37  H   UNL     1      11.131  36.136 -16.182  0.00  0.00    +0.293 HD
ENDBRANCH  35  36
BRANCH  20  22
ATOM     22  C   UNL     1      18.520  33.824 -15.752  0.00  0.00    +0.104 C 
BRANCH  22  23
ATOM     23  C   UNL     1      17.784  33.999 -17.080  0.00  0.00    +0.022 C 
BRANCH  23  24
ATOM     24  C   UNL     1      18.578  33.301 -18.170  0.00  0.00    -0.007 C 
ATOM     25  C   UNL     1      17.673  32.636 -19.192  0.00  0.00    +0.019 C 
ATOM     26  C   UNL     1      17.944  32.978 -20.635  0.00  0.00    +0.084 C 
ATOM     27  N   UNL     1      19.365  33.017 -20.925  0.00  0.00    -0.305 NA
ATOM     28  C   UNL     1      19.746  32.852 -22.334  0.00  0.00    +0.105 C 
ATOM     29  C   UNL     1      20.142  33.933 -20.107  0.00  0.00    +0.084 C 
ATOM     30  C   UNL     1      19.576  34.302 -18.756  0.00  0.00    +0.019 C 
ENDBRANCH  23  24
ENDBRANCH  22  23
ENDBRANCH  20  22
TORSDOF 7
