REMARK  Name = 4FTO
REMARK  9 active torsions:
REMARK  status: ('A' for Active; 'I' for Inactive)
REMARK    1  A    between atoms: C_2  and  C_3
REMARK    2  A    between atoms: C_8  and  C_9
REMARK    3  A    between atoms: C_19  and  O_20
REMARK    4  A    between atoms: O_20  and  C_21
REMARK    5  A    between atoms: C_22  and  O_23
REMARK    6  A    between atoms: O_23  and  C_24
REMARK    7  A    between atoms: C_24  and  C_25
REMARK    8  A    between atoms: C_25  and  C_26
REMARK    9  A    between atoms: C_26  and  N_27
REMARK                            x       y       z     vdW  Elec       q    Type
REMARK                         _______ _______ _______ _____ _____    ______ ____
ROOT
ATOM      7  C   UNL     1      15.049  -3.521   9.859  0.00  0.00    +0.097 A 
ATOM      8  N   UNL     1      15.121  -2.402   9.035  0.00  0.00    -0.173 NA
ATOM      9  N   UNL     1      16.380  -2.324   8.550  0.00  0.00    -0.276 N 
ATOM     10  H   UNL     1      16.637  -1.615   7.874  0.00  0.00    +0.189 HD
ATOM     11  C   UNL     1      17.147  -3.327   9.024  0.00  0.00    +0.070 A 
ATOM     12  C   UNL     1      18.489  -3.795   9.004  0.00  0.00    +0.007 A 
ATOM     13  C   UNL     1      19.608  -3.350   8.319  0.00  0.00    +0.059 A 
ATOM     14  C   UNL     1      20.833  -4.067   8.516  0.00  0.00    +0.162 A 
ATOM     15  C   UNL     1      20.858  -5.176   9.395  0.00  0.00    +0.162 A 
ATOM     26  C   UNL     1      19.694  -5.608  10.091  0.00  0.00    +0.054 A 
ATOM     29  C   UNL     1      18.519  -4.919   9.876  0.00  0.00    -0.030 A 
ATOM     30  C   UNL     1      17.144  -5.236  10.432  0.00  0.00    +0.075 C 
ATOM     31  C   UNL     1      16.328  -4.134   9.860  0.00  0.00    +0.010 A 
ENDROOT
BRANCH   7   6
ATOM      3  C   UNL     1      11.512  -4.640  12.000  0.00  0.00    +0.052 A 
ATOM      4  C   UNL     1      12.649  -5.442  12.074  0.00  0.00    +0.019 A 
ATOM      5  C   UNL     1      13.796  -5.072  11.371  0.00  0.00    +0.011 A 
ATOM      6  C   UNL     1      13.816  -3.888  10.585  0.00  0.00    +0.003 A 
ATOM     32  C   UNL     1      12.652  -3.088  10.515  0.00  0.00    +0.011 A 
ATOM     33  C   UNL     1      11.498  -3.461  11.227  0.00  0.00    +0.019 A 
BRANCH   3   2
ATOM      1  N   UNL     1       9.435  -5.393  13.288  0.00  0.00    -0.191 NA
ATOM      2  C   UNL     1      10.362  -5.048  12.713  0.00  0.00    +0.099 C 
ENDBRANCH   3   2
ENDBRANCH   7   6
BRANCH  14  27
ATOM     27  O   UNL     1      22.025  -3.744   7.869  0.00  0.00    -0.491 OA
ATOM     28  C   UNL     1      22.133  -2.502   7.180  0.00  0.00    +0.277 C 
ENDBRANCH  14  27
BRANCH  15  16
ATOM     16  O   UNL     1      22.074  -5.819   9.602  0.00  0.00    -0.488 OA
BRANCH  16  17
ATOM     17  C   UNL     1      22.158  -7.225   9.344  0.00  0.00    +0.230 C 
BRANCH  17  18
ATOM     18  C   UNL     1      23.150  -7.775  10.393  0.00  0.00    +0.056 C 
BRANCH  18  19
ATOM     19  C   UNL     1      24.577  -7.892   9.825  0.00  0.00    +0.088 C 
BRANCH  19  20
ATOM     20  N   UNL     1      25.631  -8.058  10.953  0.00  0.00    -0.298 NA
ATOM     21  C   UNL     1      25.412  -9.391  11.733  0.00  0.00    +0.112 C 
ATOM     22  C   UNL     1      26.764 -10.006  12.180  0.00  0.00    +0.175 C 
ATOM     23  O   UNL     1      27.713  -9.016  12.519  0.00  0.00    -0.377 OA
ATOM     24  C   UNL     1      28.105  -8.107  11.503  0.00  0.00    +0.175 C 
ATOM     25  C   UNL     1      27.060  -7.957  10.375  0.00  0.00    +0.112 C 
ENDBRANCH  19  20
ENDBRANCH  18  19
ENDBRANCH  17  18
ENDBRANCH  16  17
ENDBRANCH  15  16
TORSDOF 8
