REMARK  Name = 1GIH
REMARK  2 active torsions:
REMARK  status: ('A' for Active; 'I' for Inactive)
REMARK    1  A    between atoms: C_6  and  N_10
REMARK    2  A    between atoms: N_16  and  C_18
REMARK                            x       y       z     vdW  Elec       q    Type
REMARK                         _______ _______ _______ _____ _____    ______ ____
ROOT
ATOM      1  C   UNL     1       5.490  10.016  27.819  0.00  0.00    +0.006 A 
ATOM      2  C   UNL     1       4.613   9.232  27.035  0.00  0.00    +0.040 A 
ATOM     15  C   UNL     1       3.287   9.093  27.493  0.00  0.00    +0.024 A 
ATOM     16  C   UNL     1       2.847   9.698  28.682  0.00  0.00    +0.003 A 
ATOM     17  C   UNL     1       3.705  10.464  29.460  0.00  0.00    +0.013 A 
ATOM     18  C   UNL     1       5.034  10.623  29.029  0.00  0.00    +0.044 A 
ATOM     19  C   UNL     1       6.128  11.366  29.647  0.00  0.00    +0.248 C 
ATOM     20  O   UNL     1       6.061  11.989  30.681  0.00  0.00    -0.270 OA
ATOM     21  N   UNL     1       7.196  11.206  28.838  0.00  0.00    -0.290 N 
ATOM     22  C   UNL     1       8.251  12.219  28.697  0.00  0.00    +0.109 C 
ATOM     23  C   UNL     1       8.530  12.166  27.188  0.00  0.00    +0.021 C 
ATOM     24  C   UNL     1       7.341  11.405  26.570  0.00  0.00    +0.029 C 
ATOM     25  C   UNL     1       6.953  10.387  27.653  0.00  0.00    +0.109 C 
ENDROOT
BRANCH   2   3
ATOM      3  N   UNL     1       5.107   8.619  25.819  0.00  0.00    -0.269 N 
ATOM      4  H   UNL     1       6.130   8.852  25.611  0.00  0.00    +0.156 HD
ATOM      5  C   UNL     1       4.553   7.831  24.914  0.00  0.00    +0.309 C 
ATOM      6  O   UNL     1       3.359   7.522  24.975  0.00  0.00    -0.252 OA
ATOM      7  N   UNL     1       5.341   7.404  23.937  0.00  0.00    -0.254 N 
ATOM      8  H   UNL     1       4.888   6.655  23.322  0.00  0.00    +0.158 HD
BRANCH   7   9
ATOM      9  C   UNL     1       6.664   7.738  23.540  0.00  0.00    +0.126 A 
ATOM     10  N   UNL     1       7.185   8.823  24.114  0.00  0.00    -0.240 NA
ATOM     11  C   UNL     1       8.415   9.259  23.850  0.00  0.00    +0.113 A 
ATOM     12  C   UNL     1       9.232   8.584  22.942  0.00  0.00    +0.020 A 
ATOM     13  C   UNL     1       8.716   7.440  22.317  0.00  0.00    +0.005 A 
ATOM     14  C   UNL     1       7.407   7.003  22.616  0.00  0.00    +0.044 A 
ENDBRANCH   7   9
ENDBRANCH   2   3
TORSDOF 2
