REMARK  Name = 5NKG
REMARK  16 active torsions:
REMARK  status: ('A' for Active; 'I' for Inactive)
REMARK    1  A    between atoms: C_6  and  N_7
REMARK    2  A    between atoms: C_8  and  C_10
REMARK    3  A    between atoms: C_13  and  C_14
REMARK    4  A    between atoms: C_14  and  C_15
REMARK    5  A    between atoms: C_17  and  N_18
REMARK    6  A    between atoms: C_23  and  C_24
REMARK    7  A    between atoms: N_26  and  C_27
REMARK    8  A    between atoms: C_33  and  C_34
REMARK    9  A    between atoms: C_40  and  N_41
REMARK   10  A    between atoms: C_42  and  C_44
REMARK   11  A    between atoms: C_47  and  C_48
REMARK   12  A    between atoms: C_48  and  C_49
REMARK   13  A    between atoms: C_51  and  N_52
REMARK   14  A    between atoms: C_57  and  C_58
REMARK   15  A    between atoms: N_60  and  C_61
REMARK   16  A    between atoms: C_67  and  C_68
REMARK                            x       y       z     vdW  Elec       q    Type
REMARK                         _______ _______ _______ _____ _____    ______ ____
ROOT
ATOM      6  C   UNL     1     -82.787 -14.861   5.075  0.00  0.00    +0.039 A 
ATOM      7  C   UNL     1     -82.487 -14.617   6.407  0.00  0.00    +0.016 A 
ATOM      8  C   UNL     1     -83.471 -14.312   7.326  0.00  0.00    -0.045 A 
ATOM      9  C   UNL     1     -84.793 -14.302   6.896  0.00  0.00    +0.027 A 
ATOM     10  C   UNL     1     -85.127 -14.582   5.585  0.00  0.00    +0.034 A 
ATOM     32  C   UNL     1     -84.122 -14.846   4.658  0.00  0.00    +0.036 A 
ENDROOT
BRANCH  10  11
ATOM     11  N   UNL     1     -86.385 -14.566   5.136  0.00  0.00    -0.294 N 
ATOM     12  H   UNL     1     -86.573 -14.116   4.184  0.00  0.00    +0.154 HD
ATOM     13  C   UNL     1     -87.430 -15.081   5.807  0.00  0.00    +0.163 A 
ATOM     14  N   UNL     1     -88.659 -15.019   5.282  0.00  0.00    -0.232 NA
ATOM     15  C   UNL     1     -89.580 -15.600   6.094  0.00  0.00    +0.133 A 
ATOM     16  C   UNL     1     -89.135 -16.165   7.261  0.00  0.00    +0.095 A 
ATOM     29  S   UNL     1     -87.370 -15.915   7.328  0.00  0.00    -0.048 S 
BRANCH  16  17
ATOM     17  C   UNL     1     -89.833 -16.808   8.304  0.00  0.00    +0.256 C 
ATOM     18  N   UNL     1     -91.134 -17.203   8.144  0.00  0.00    -0.280 N 
ATOM     19  H   UNL     1     -91.632 -17.035   7.212  0.00  0.00    +0.155 HD
ATOM     28  O   UNL     1     -89.237 -16.991   9.373  0.00  0.00    -0.269 OA
BRANCH  18  20
ATOM     20  C   UNL     1     -91.813 -17.825   9.196  0.00  0.00    +0.055 A 
ATOM     21  C   UNL     1     -92.089 -19.205   9.145  0.00  0.00    -0.028 A 
ATOM     22  C   UNL     1     -91.654 -19.983   8.067  0.00  0.00    +0.046 C 
ATOM     23  C   UNL     1     -92.783 -19.828  10.196  0.00  0.00    +0.005 A 
ATOM     24  C   UNL     1     -93.206 -19.067  11.282  0.00  0.00    +0.002 A 
ATOM     25  C   UNL     1     -92.964 -17.695  11.312  0.00  0.00    +0.022 A 
ATOM     26  C   UNL     1     -92.258 -17.065  10.279  0.00  0.00    +0.062 A 
ATOM     27 CL   UNL     1     -91.983 -15.334  10.334  0.00  0.00    -0.082 Cl
ENDBRANCH  18  20
ENDBRANCH  16  17
ENDBRANCH  10  11
BRANCH   6   5
ATOM      3  N   UNL     1     -81.162 -14.527   3.313  0.00  0.00    -0.308 N 
ATOM      4  H   UNL     1     -80.310 -15.005   2.876  0.00  0.00    +0.149 HD
ATOM      5  C   UNL     1     -81.700 -15.240   4.282  0.00  0.00    +0.244 C 
ATOM     33  O   UNL     1     -81.179 -16.323   4.543  0.00  0.00    -0.270 OA
BRANCH   3   2
ATOM      1  C   UNL     1     -80.310 -13.169   1.721  0.00  0.00    +0.037 C 
ATOM      2  C   UNL     1     -81.451 -13.263   2.709  0.00  0.00    +0.076 C 
ATOM     34  C   UNL     1     -81.350 -12.112   3.669  0.00  0.00    +0.037 C 
ATOM     35  C   UNL     1     -79.987 -12.033   4.323  0.00  0.00    +0.082 C 
ATOM     36  N   UNL     1     -78.892 -11.985   3.339  0.00  0.00    -0.316 NA
ATOM     37  H   UNL     1     -78.985 -11.108   2.732  0.00  0.00    +0.122 HD
ATOM     38  C   UNL     1     -78.996 -13.188   2.501  0.00  0.00    +0.082 C 
ENDBRANCH   3   2
ENDBRANCH   6   5
BRANCH   8  30
ATOM     30  C   UNL     1     -83.120 -14.045   8.654  0.00  0.00    +0.032 C 
ATOM     31  C   UNL     1     -84.001 -14.713   9.701  0.00  0.00    +0.009 C 
ENDBRANCH   8  30
TORSDOF 6
