REMARK  Name = 5VUB
REMARK  5 active torsions:
REMARK  status: ('A' for Active; 'I' for Inactive)
REMARK    1  A    between atoms: C_7  and  O_8
REMARK    2  A    between atoms: O_8  and  C_9
REMARK    3  A    between atoms: C_14  and  C_15
REMARK    4  A    between atoms: C_15  and  N_16
REMARK    5  A    between atoms: C_22  and  C_23
REMARK                            x       y       z     vdW  Elec       q    Type
REMARK                         _______ _______ _______ _____ _____    ______ ____
ROOT
ATOM     10  C   UNL     1      38.765   1.737   2.490  0.00  0.00    +0.051 A 
ATOM     11  C   UNL     1      38.930   2.116   1.140  0.00  0.00    +0.147 A 
ATOM     12  O   UNL     1      40.082   2.063   0.413  0.00  0.00    -0.451 OA
ATOM     13  C   UNL     1      39.849   2.511  -0.893  0.00  0.00    +0.176 C 
ATOM     14  C   UNL     1      40.780   2.579  -1.860  0.00  0.00    +0.061 C 
ATOM     24  C   UNL     1      38.393   2.890  -0.975  0.00  0.00    +0.232 C 
ATOM     25  O   UNL     1      37.794   3.327  -1.936  0.00  0.00    -0.283 OA
ATOM     26  C   UNL     1      37.859   2.614   0.369  0.00  0.00    +0.068 A 
ATOM     27  C   UNL     1      36.600   2.742   0.930  0.00  0.00    +0.019 A 
ATOM     28  C   UNL     1      36.395   2.387   2.269  0.00  0.00    +0.047 A 
ATOM     29  C   UNL     1      37.456   1.889   3.041  0.00  0.00    +0.128 A 
ENDROOT
BRANCH  14  15
ATOM     15  C   UNL     1      42.201   2.236  -1.827  0.00  0.00    +0.024 A 
ATOM     16  C   UNL     1      43.046   1.902  -0.692  0.00  0.00    +0.098 A 
ATOM     17  N   UNL     1      42.826   1.807   0.653  0.00  0.00    -0.253 NA
ATOM     18  C   UNL     1      43.879   1.474   1.411  0.00  0.00    +0.111 A 
ATOM     19  C   UNL     1      45.200   1.208   0.944  0.00  0.00    +0.022 A 
ATOM     20  C   UNL     1      45.447   1.299  -0.399  0.00  0.00    +0.031 A 
ATOM     21  C   UNL     1      44.364   1.646  -1.217  0.00  0.00    +0.090 A 
ATOM     22  N   UNL     1      44.307   1.814  -2.595  0.00  0.00    -0.253 NA
ATOM     23  C   UNL     1      43.007   2.164  -2.952  0.00  0.00    +0.121 A 
ENDBRANCH  14  15
BRANCH  29  30
ATOM     30  O   UNL     1      37.316   1.508   4.372  0.00  0.00    -0.495 OA
ATOM     31  C   UNL     1      36.166   1.849   5.156  0.00  0.00    +0.277 C 
ENDBRANCH  29  30
BRANCH  10   9
ATOM      9  C   UNL     1      39.914   1.221   3.322  0.00  0.00    +0.127 C 
BRANCH   9   8
ATOM      1  C   UNL     1      41.284   3.445   3.202  0.00  0.00    +0.135 C 
ATOM      2  C   UNL     1      42.027   4.508   4.076  0.00  0.00    +0.145 C 
ATOM      3  N   UNL     1      41.135   5.014   5.164  0.00  0.00    +0.229 N 
ATOM      4  H   UNL     1      41.664   5.728   5.760  0.00  0.00    +0.201 HD
ATOM      5  H   UNL     1      40.272   5.478   4.734  0.00  0.00    +0.201 HD
ATOM      6  C   UNL     1      40.708   3.847   6.029  0.00  0.00    +0.145 C 
ATOM      7  C   UNL     1      39.957   2.829   5.155  0.00  0.00    +0.135 C 
ATOM      8  N   UNL     1      40.811   2.280   4.024  0.00  0.00    -0.288 NA
ENDBRANCH   9   8
ENDBRANCH  10   9
TORSDOF 4
