REMARK  Name = 2Z2W
REMARK  3 active torsions:
REMARK  status: ('A' for Active; 'I' for Inactive)
REMARK    1  A    between atoms: C_7  and  C_8
REMARK    2  A    between atoms: C_25  and  N_26
REMARK    3  A    between atoms: C_27  and  O_28
REMARK                            x       y       z     vdW  Elec       q    Type
REMARK                         _______ _______ _______ _____ _____    ______ ____
ROOT
ATOM      4  C   UNL     1       2.730  53.824  27.652  0.00  0.00    -0.001 C 
ATOM      5  C   UNL     1       2.294  53.691  26.312  0.00  0.00    +0.037 C 
ATOM      6  C   UNL     1       3.132  54.020  25.211  0.00  0.00    +0.074 C 
ATOM      7  N   UNL     1       2.968  54.009  23.849  0.00  0.00    -0.247 NA
ATOM      8  C   UNL     1       4.133  54.404  23.197  0.00  0.00    +0.072 C 
ATOM      9  C   UNL     1       4.529  54.561  21.850  0.00  0.00    +0.030 C 
ATOM     10  C   UNL     1       5.877  54.985  21.565  0.00  0.00    +0.030 C 
ATOM     11  C   UNL     1       6.837  55.248  22.582  0.00  0.00    +0.068 C 
ATOM     16  C   UNL     1       6.507  55.139  23.969  0.00  0.00    +0.038 C 
ATOM     17  C   UNL     1       5.191  54.688  24.225  0.00  0.00    +0.012 C 
ATOM     18  C   UNL     1       4.525  54.444  25.482  0.00  0.00    +0.023 C 
ATOM     19  C   UNL     1       4.971  54.579  26.904  0.00  0.00    +0.062 C 
ATOM     20  C   UNL     1       6.219  54.911  27.596  0.00  0.00    +0.260 C 
ATOM     21  O   UNL     1       7.225  55.326  26.976  0.00  0.00    -0.267 OA
ATOM     22  N   UNL     1       6.163  54.873  28.981  0.00  0.00    -0.289 N 
ATOM     23  H   UNL     1       6.917  55.153  29.686  0.00  0.00    +0.172 HD
ATOM     24  C   UNL     1       4.946  54.405  29.216  0.00  0.00    +0.260 C 
ATOM     25  O   UNL     1       4.485  54.227  30.403  0.00  0.00    -0.267 OA
ATOM     26  C   UNL     1       4.099  54.283  27.969  0.00  0.00    +0.060 C 
ENDROOT
BRANCH   4   3
ATOM      1 CL   UNL     1       2.080  56.218  29.667  0.00  0.00    -0.083 Cl
ATOM      2  C   UNL     1       1.412  54.614  29.707  0.00  0.00    +0.049 A 
ATOM      3  C   UNL     1       1.805  53.598  28.774  0.00  0.00    +0.001 A 
ATOM     27  C   UNL     1       1.227  52.383  28.848  0.00  0.00    +0.010 A 
ATOM     28  C   UNL     1       0.302  52.115  29.853  0.00  0.00    +0.001 A 
ATOM     29  C   UNL     1      -0.047  53.090  30.809  0.00  0.00    +0.002 A 
ATOM     30  C   UNL     1       0.482  54.311  30.740  0.00  0.00    +0.020 A 
ENDBRANCH   4   3
BRANCH  11  12
ATOM     12  N   UNL     1       8.120  55.687  22.259  0.00  0.00    -0.220 NA
ATOM     13  C   UNL     1       8.536  55.991  21.007  0.00  0.00    +0.298 C 
BRANCH  13  14
ATOM     14  O   UNL     1       7.834  55.857  20.016  0.00  0.00    -0.498 OA
ATOM     15  H   UNL     1       8.210  56.109  19.069  0.00  0.00    +0.293 HD
ENDBRANCH  13  14
ENDBRANCH  11  12
TORSDOF 3
