REMARK  Name = 5OOR
REMARK  5 active torsions:
REMARK  status: ('A' for Active; 'I' for Inactive)
REMARK    1  A    between atoms: C_4  and  N_34
REMARK    2  A    between atoms: C_5  and  O_32
REMARK    3  A    between atoms: C_6  and  C_7
REMARK    4  A    between atoms: O_32  and  C_33
REMARK    5  A    between atoms: N_34  and  C_35
REMARK                            x       y       z     vdW  Elec       q    Type
REMARK                         _______ _______ _______ _____ _____    ______ ____
ROOT
ATOM      1  O   UNL     1       3.872  -7.922  17.108  0.00  0.00    -0.328 OA
ATOM      2  C   UNL     1       4.758  -7.744  16.036  0.00  0.00    +0.174 C 
ATOM      3  N   UNL     1       5.733  -6.714  16.477  0.00  0.00    -0.307 N 
ATOM      4  C   UNL     1       7.024  -6.643  16.051  0.00  0.00    +0.053 A 
ATOM      5  C   UNL     1       7.931  -7.377  15.249  0.00  0.00    +0.026 A 
ATOM      6  C   UNL     1       9.251  -6.963  15.122  0.00  0.00    +0.002 A 
ATOM      7  C   UNL     1       9.744  -5.771  15.700  0.00  0.00    +0.001 A 
ATOM      8  C   UNL     1       8.903  -5.020  16.484  0.00  0.00    +0.010 A 
ATOM      9  C   UNL     1       7.577  -5.414  16.651  0.00  0.00    +0.008 A 
ATOM     10  C   UNL     1       6.551  -4.801  17.415  0.00  0.00    +0.019 A 
ATOM     11  C   UNL     1       6.491  -3.575  18.253  0.00  0.00    +0.013 A 
ATOM     12  C   UNL     1       7.448  -2.557  18.541  0.00  0.00    +0.110 C 
ATOM     13  N   UNL     1       6.656  -1.621  19.362  0.00  0.00    -0.184 NA
ATOM     14  C   UNL     1       5.402  -2.029  19.509  0.00  0.00    +0.269 C 
ATOM     15  O   UNL     1       4.508  -1.485  20.206  0.00  0.00    -0.268 OA
ATOM     16  C   UNL     1       5.235  -3.302  18.846  0.00  0.00    +0.058 A 
ATOM     17  C   UNL     1       4.016  -4.112  18.722  0.00  0.00    +0.022 A 
ATOM     18  C   UNL     1       2.662  -4.037  19.197  0.00  0.00    +0.009 A 
ATOM     19  C   UNL     1       2.009  -3.139  20.042  0.00  0.00    +0.010 A 
ATOM     20  C   UNL     1       0.667  -3.355  20.299  0.00  0.00    +0.001 A 
ATOM     21  C   UNL     1       0.062  -4.528  19.786  0.00  0.00    +0.002 A 
ATOM     22  C   UNL     1       0.713  -5.430  18.934  0.00  0.00    +0.026 A 
ATOM     23  C   UNL     1       2.027  -5.247  18.644  0.00  0.00    +0.052 A 
ATOM     24  N   UNL     1       2.937  -5.937  17.880  0.00  0.00    -0.312 N 
ATOM     25  C   UNL     1       4.120  -5.305  17.922  0.00  0.00    +0.077 A 
ATOM     26  C   UNL     1       5.390  -5.661  17.277  0.00  0.00    +0.077 A 
ATOM     27  C   UNL     1       5.359  -9.116  15.715  0.00  0.00    +0.069 C 
ATOM     28  C   UNL     1       4.043  -7.276  14.723  0.00  0.00    +0.187 C 
ATOM     31  C   UNL     1       2.613  -7.734  14.711  0.00  0.00    +0.091 C 
ATOM     35  C   UNL     1       1.881  -7.015  15.857  0.00  0.00    +0.076 C 
ATOM     36  C   UNL     1       2.623  -7.243  17.174  0.00  0.00    +0.224 C 
ENDROOT
BRANCH  31  32
ATOM     32  N   UNL     1       1.986  -7.433  13.450  0.00  0.00    -0.314 NA
ATOM     33  H   UNL     1       2.419  -8.088  12.723  0.00  0.00    +0.122 HD
ATOM     34  C   UNL     1       0.540  -7.553  13.321  0.00  0.00    +0.101 C 
ENDBRANCH  31  32
BRANCH  28  29
ATOM     29  O   UNL     1       3.935  -5.847  14.671  0.00  0.00    -0.374 OA
ATOM     30  C   UNL     1       4.973  -5.139  14.008  0.00  0.00    +0.194 C 
ENDBRANCH  28  29
TORSDOF 2
