REMARK  Name = 5AP3
REMARK  8 active torsions:
REMARK  status: ('A' for Active; 'I' for Inactive)
REMARK    1  A    between atoms: N_3  and  C_4
REMARK    2  A    between atoms: N_8  and  C_9
REMARK    3  A    between atoms: N_17  and  C_18
REMARK    4  A    between atoms: C_19  and  O_20
REMARK    5  A    between atoms: O_20  and  C_21
REMARK    6  A    between atoms: C_23  and  O_26
REMARK    7  A    between atoms: O_26  and  C_27
REMARK    8  A    between atoms: N_30  and  C_31
REMARK                            x       y       z     vdW  Elec       q    Type
REMARK                         _______ _______ _______ _____ _____    ______ ____
ROOT
ATOM      1  O   UNL     1      -3.065  39.522 129.351  0.00  0.00    -0.246 OA
ATOM      2  C   UNL     1      -2.308  40.466 129.347  0.00  0.00    +0.331 A 
ATOM      3  N   UNL     1      -1.675  41.060 128.225  0.00  0.00    -0.273 N 
ATOM      4  C   UNL     1      -0.905  42.137 128.676  0.00  0.00    +0.167 A 
ATOM      5  N   UNL     1      -0.165  42.983 127.930  0.00  0.00    -0.195 NA
ATOM      6  C   UNL     1       0.447  43.948 128.705  0.00  0.00    +0.222 A 
ATOM      7  N   UNL     1       1.194  44.938 128.089  0.00  0.00    -0.281 N 
ATOM      8  H   UNL     1       1.639  45.667 128.734  0.00  0.00    +0.155 HD
ATOM     25  N   UNL     1       0.390  44.094 130.084  0.00  0.00    -0.221 NA
ATOM     26  C   UNL     1      -0.368  43.214 130.756  0.00  0.00    +0.144 A 
ATOM     27  C   UNL     1      -1.048  42.213 130.095  0.00  0.00    +0.107 A 
ATOM     33  N   UNL     1      -1.911  41.187 130.489  0.00  0.00    -0.292 N 
ATOM     34  C   UNL     1      -2.362  40.879 131.832  0.00  0.00    +0.154 C 
ENDROOT
BRANCH   7   9
ATOM      9  C   UNL     1       1.434  45.094 126.711  0.00  0.00    +0.076 A 
ATOM     10  C   UNL     1       1.560  43.941 125.929  0.00  0.00    +0.030 A 
ATOM     11  C   UNL     1       1.791  44.034 124.571  0.00  0.00    +0.048 A 
ATOM     12  C   UNL     1       1.901  45.292 123.980  0.00  0.00    +0.125 A 
ATOM     21  C   UNL     1       1.775  46.448 124.724  0.00  0.00    +0.093 A 
ATOM     22  C   UNL     1       1.544  46.334 126.093  0.00  0.00    +0.145 A 
BRANCH  22  23
ATOM     23  O   UNL     1       1.437  47.475 126.838  0.00  0.00    -0.493 OA
ATOM     24  C   UNL     1       0.428  48.344 126.379  0.00  0.00    +0.277 C 
ENDBRANCH  22  23
BRANCH  12  13
ATOM     13  O   UNL     1       2.160  45.321 122.640  0.00  0.00    -0.489 OA
BRANCH  13  14
ATOM     14  C   UNL     1       1.031  45.243 121.800  0.00  0.00    +0.176 C 
ATOM     15  C   UNL     1       0.684  46.684 121.423  0.00  0.00    +0.060 C 
ATOM     16  C   UNL     1      -0.522  46.650 120.469  0.00  0.00    +0.087 C 
ATOM     17  N   UNL     1      -0.321  45.834 119.244  0.00  0.00    -0.305 NA
ATOM     18  C   UNL     1      -1.551  45.772 118.416  0.00  0.00    +0.105 C 
ATOM     19  C   UNL     1       0.178  44.475 119.590  0.00  0.00    +0.087 C 
ATOM     20  C   UNL     1       1.395  44.468 120.529  0.00  0.00    +0.060 C 
ENDBRANCH  13  14
ENDBRANCH  12  13
ENDBRANCH   7   9
BRANCH   3  28
ATOM     28  C   UNL     1      -1.805  40.607 126.837  0.00  0.00    +0.101 C 
ATOM     29  C   UNL     1      -2.378  41.705 125.937  0.00  0.00    +0.052 C 
ATOM     30  C   UNL     1      -1.816  41.454 124.544  0.00  0.00    -0.029 C 
ATOM     31  C   UNL     1      -0.547  40.625 124.728  0.00  0.00    -0.029 C 
ATOM     32  C   UNL     1      -0.442  40.270 126.210  0.00  0.00    +0.052 C 
ENDBRANCH   3  28
TORSDOF 5
