REMARK  Name = 4XS2
REMARK  11 active torsions:
REMARK  status: ('A' for Active; 'I' for Inactive)
REMARK    1  A    between atoms: C_6  and  C_10
REMARK    2  A    between atoms: N_7  and  C_11
REMARK    3  A    between atoms: N_8  and  C_20
REMARK    4  A    between atoms: C_12  and  O_16
REMARK    5  A    between atoms: C_13  and  O_17
REMARK    6  A    between atoms: C_14  and  C_18
REMARK    7  A    between atoms: C_18  and  O_19
REMARK    8  A    between atoms: C_20  and  C_21
REMARK    9  A    between atoms: C_21  and  C_22
REMARK   10  A    between atoms: C_22  and  O_23
REMARK   11  A    between atoms: O_23  and  C_24
REMARK                            x       y       z     vdW  Elec       q    Type
REMARK                         _______ _______ _______ _____ _____    ______ ____
ROOT
ATOM      1  C   UNL     1      29.915   8.890  -7.988  0.00  0.00    +0.135 A 
ATOM      2  N   UNL     1      29.539  10.212  -8.023  0.00  0.00    -0.323 N 
ATOM      3  H   UNL     1      30.009  10.754  -8.817  0.00  0.00    +0.148 HD
ATOM     16  C   UNL     1      30.767   8.249  -9.020  0.00  0.00    +0.084 A 
ATOM     26  C   UNL     1      31.037   6.828  -8.704  0.00  0.00    +0.146 A 
ATOM     27 CL   UNL     1      31.967   5.663  -9.607  0.00  0.00    -0.061 Cl
ATOM     28  N   UNL     1      30.502   6.193  -7.610  0.00  0.00    -0.202 NA
ATOM     29  C   UNL     1      29.731   6.892  -6.777  0.00  0.00    +0.218 A 
ATOM     30  N   UNL     1      29.231   6.208  -5.699  0.00  0.00    -0.313 N 
ATOM     31  H   UNL     1      29.761   5.313  -5.449  0.00  0.00    +0.149 HD
ATOM     37  N   UNL     1      29.405   8.181  -6.906  0.00  0.00    -0.199 NA
ENDROOT
BRANCH  16  17
ATOM     17  C   UNL     1      31.358   9.040 -10.186  0.00  0.00    +0.116 A 
ATOM     18  N   UNL     1      31.117  10.352 -10.410  0.00  0.00    -0.239 NA
ATOM     19  C   UNL     1      31.827  10.902 -11.497  0.00  0.00    +0.079 A 
ATOM     20  C   UNL     1      31.753  12.255 -12.019  0.00  0.00    +0.029 A 
ATOM     21  C   UNL     1      32.554  12.673 -13.130  0.00  0.00    +0.002 A 
ATOM     22  C   UNL     1      33.449  11.743 -13.732  0.00  0.00    +0.001 A 
ATOM     23  C   UNL     1      33.549  10.402 -13.234  0.00  0.00    +0.017 A 
ATOM     24  C   UNL     1      32.737   9.993 -12.126  0.00  0.00    +0.040 A 
ATOM     25  S   UNL     1      32.608   8.446 -11.305  0.00  0.00    -0.067 S 
ENDBRANCH  16  17
BRANCH   2   4
ATOM      4  C   UNL     1      28.635  11.054  -7.215  0.00  0.00    +0.103 C 
ATOM      5  C   UNL     1      28.602  12.543  -7.619  0.00  0.00    +0.033 C 
ATOM      6  C   UNL     1      29.443  13.324  -6.570  0.00  0.00    +0.047 C 
ATOM     10  C   UNL     1      29.756  12.339  -5.398  0.00  0.00    +0.150 C 
ATOM     13  C   UNL     1      28.914  11.061  -5.689  0.00  0.00    +0.163 C 
BRANCH  10  11
ATOM     11  O   UNL     1      29.467  12.887  -4.094  0.00  0.00    -0.389 OA
ATOM     12  H   UNL     1      28.450  13.143  -4.039  0.00  0.00    +0.210 HD
ENDBRANCH  10  11
BRANCH  13  14
ATOM     14  O   UNL     1      27.702  11.041  -4.949  0.00  0.00    -0.387 OA
ATOM     15  H   UNL     1      27.130  11.888  -5.190  0.00  0.00    +0.210 HD
ENDBRANCH  13  14
BRANCH   6   7
ATOM      7  C   UNL     1      30.663  14.070  -7.173  0.00  0.00    +0.162 C 
BRANCH   7   8
ATOM      8  O   UNL     1      30.554  15.485  -7.063  0.00  0.00    -0.395 OA
ATOM      9  H   UNL     1      29.695  15.811  -7.572  0.00  0.00    +0.209 HD
ENDBRANCH   7   8
ENDBRANCH   6   7
ENDBRANCH   2   4
BRANCH  30  32
ATOM     32  C   UNL     1      28.102   6.504  -4.846  0.00  0.00    +0.107 C 
BRANCH  32  33
ATOM     33  C   UNL     1      28.143   5.581  -3.626  0.00  0.00    +0.047 C 
BRANCH  33  34
ATOM     34  C   UNL     1      26.907   5.794  -2.743  0.00  0.00    +0.161 C 
BRANCH  34  35
ATOM     35  O   UNL     1      26.535   4.553  -2.156  0.00  0.00    -0.383 OA
ATOM     36  C   UNL     1      25.155   4.245  -2.345  0.00  0.00    +0.193 C 
ENDBRANCH  34  35
ENDBRANCH  33  34
ENDBRANCH  32  33
ENDBRANCH  30  32
TORSDOF 10
