REMARK  Name = 4fl2_ligand
REMARK  11 active torsions:
REMARK  status: ('A' for Active; 'I' for Inactive)
REMARK    1  A    between atoms: PG_1  and  N3B_8
REMARK    2  A    between atoms: PB_5  and  N3B_8
REMARK    3  A    between atoms: PB_5  and  O3A_12
REMARK    4  A    between atoms: PA_9  and  O3A_12
REMARK    5  A    between atoms: PA_9  and  O5'_13
REMARK    6  A    between atoms: O5'_13  and  C5'_14
REMARK    7  A    between atoms: C5'_14  and  C4'_15
REMARK    8  A    between atoms: C3'_17  and  O3'_18
REMARK    9  A    between atoms: C2'_19  and  O2'_20
REMARK   10  A    between atoms: C1'_21  and  N9_22
REMARK   11  A    between atoms: C6_26  and  N6_27
REMARK                            x       y       z     vdW  Elec       q    Type
REMARK                         _______ _______ _______ _____ _____    ______ ____
ROOT
ATOM      9  C   UNL     1     -26.051 -11.990  -6.387  0.00  0.00    +0.184 C 
ATOM     10  C   UNL     1     -25.899 -11.602  -4.905  0.00  0.00    +0.180 C 
ATOM     11  C   UNL     1     -24.375 -11.537  -4.797  0.00  0.00    +0.206 C 
ATOM     12  C   UNL     1     -24.003 -10.905  -6.162  0.00  0.00    +0.301 C 
ATOM     29  O   UNL     1     -25.071 -11.206  -7.094  0.00  0.00    -0.336 OA
ENDROOT
BRANCH  12  13
ATOM     13  N   UNL     1     -23.770  -9.452  -6.066  0.00  0.00    -0.192 N 
ATOM     14  C   UNL     1     -22.579  -8.891  -5.728  0.00  0.00    +0.161 A 
ATOM     15  N   UNL     1     -21.389  -9.389  -5.380  0.00  0.00    -0.271 NA
ATOM     16  C   UNL     1     -20.384  -8.606  -5.077  0.00  0.00    +0.153 A 
ATOM     17  N   UNL     1     -20.525  -7.302  -5.097  0.00  0.00    -0.270 NA
ATOM     18  C   UNL     1     -21.656  -6.689  -5.454  0.00  0.00    +0.130 A 
ATOM     22  C   UNL     1     -22.769  -7.496  -5.793  0.00  0.00    +0.105 A 
ATOM     23  N   UNL     1     -24.066  -7.281  -6.140  0.00  0.00    -0.296 NA
ATOM     24  C   UNL     1     -24.664  -8.425  -6.294  0.00  0.00    +0.247 A 
BRANCH  18  19
ATOM     19  N   UNL     1     -21.691  -5.295  -5.487  0.00  0.00    -0.315 N 
ATOM     20  H   UNL     1     -22.554  -4.808  -5.767  0.00  0.00    +0.182 HD
ATOM     21  H   UNL     1     -20.854  -4.753  -5.231  0.00  0.00    +0.182 HD
ENDBRANCH  18  19
ENDBRANCH  12  13
BRANCH  11  25
ATOM     25  O   UNL     1     -23.787 -12.850  -4.699  0.00  0.00    -0.384 OA
ATOM     26  H   UNL     1     -24.122 -13.289  -3.926  0.00  0.00    +0.210 HD
ENDBRANCH  11  25
BRANCH  10  27
ATOM     27  O   UNL     1     -26.440 -12.604  -4.048  0.00  0.00    -0.386 OA
ATOM     28  H   UNL     1     -25.984 -13.424  -4.194  0.00  0.00    +0.210 HD
ENDBRANCH  10  27
BRANCH   9   8
ATOM      8  C   UNL     1     -27.434 -11.664  -6.896  0.00  0.00    +0.242 C 
BRANCH   8   7
ATOM      7  O   UNL     1     -27.612 -10.257  -6.836  0.00  0.00    -0.248 OA
BRANCH   7   6
ATOM      6  P   UNL     1     -29.017  -9.566  -7.150  0.00  0.00    +0.295 P 
ATOM     30  O   UNL     1     -29.000  -8.169  -6.500  0.00  0.00    -0.613 OA
ATOM     31  O   UNL     1     -29.109  -9.486  -8.696  0.00  0.00    -0.613 OA
BRANCH   6   5
ATOM      5  O   UNL     1     -30.212 -10.462  -6.525  0.00  0.00    -0.143 OA
BRANCH   5   4
ATOM      4  P   UNL     1     -30.987 -10.512  -5.112  0.00  0.00    +0.254 P 
ATOM     32  O   UNL     1     -30.498 -11.694  -4.279  0.00  0.00    -0.626 OA
ATOM     33  O   UNL     1     -30.678  -9.167  -4.393  0.00  0.00    -0.626 OA
BRANCH   4   2
ATOM      2  N   UNL     1     -32.641 -10.718  -5.323  0.00  0.00    -0.180 NA
ATOM      3  H   UNL     1     -33.112 -11.531  -4.980  0.00  0.00    +0.213 HD
BRANCH   2   1
ATOM      1  P   UNL     1     -33.484  -9.485  -6.145  0.00  0.00    +0.180 P 
ATOM     34  O   UNL     1     -34.400 -10.201  -7.193  0.00  0.00    -0.545 OA
ATOM     35  O   UNL     1     -32.511  -8.512  -6.871  0.00  0.00    -0.545 OA
ATOM     36  O   UNL     1     -34.403  -8.714  -5.125  0.00  0.00    -0.545 OA
ENDBRANCH   2   1
ENDBRANCH   4   2
ENDBRANCH   5   4
ENDBRANCH   6   5
ENDBRANCH   7   6
ENDBRANCH   8   7
ENDBRANCH   9   8
TORSDOF 11
