REMARK  Name = 3FMK
REMARK  7 active torsions:
REMARK  status: ('A' for Active; 'I' for Inactive)
REMARK    1  A    between atoms: C_3  and  N_22
REMARK    2  A    between atoms: C_6  and  C_7
REMARK    3  A    between atoms: C_6  and  N_16
REMARK    4  A    between atoms: C_6  and  C_25
REMARK    5  A    between atoms: C_7  and  N_26
REMARK    6  A    between atoms: C_10  and  O_20
REMARK    7  A    between atoms: C_12  and  O_20
REMARK                            x       y       z     vdW  Elec       q    Type
REMARK                         _______ _______ _______ _____ _____    ______ ____
ROOT
ATOM      5  C   UNL     1      20.220  12.030  31.257  0.00  0.00    +0.193 C 
ATOM      6  C   UNL     1      20.286  10.657  30.987  0.00  0.00    +0.065 C 
ATOM      7  C   UNL     1      21.457   9.940  31.248  0.00  0.00    +0.037 A 
ATOM      8  C   UNL     1      22.568  10.595  31.776  0.00  0.00    +0.148 A 
ATOM      9  N   UNL     1      23.692   9.890  32.025  0.00  0.00    -0.194 NA
ATOM     10  C   UNL     1      23.754   8.562  31.775  0.00  0.00    +0.226 A 
ATOM     11  N   UNL     1      22.684   7.908  31.257  0.00  0.00    -0.330 N 
ATOM     12  H   UNL     1      22.747   6.858  31.059  0.00  0.00    +0.168 HD
ATOM     13  N   UNL     1      24.905   7.889  32.038  0.00  0.00    -0.245 NA
ATOM     22  N   UNL     1      22.515  11.981  32.045  0.00  0.00    -0.293 N 
ATOM     23  C   UNL     1      23.682  12.688  32.601  0.00  0.00    +0.154 C 
ATOM     24  C   UNL     1      21.544   8.573  30.991  0.00  0.00    +0.097 A 
ATOM     25  C   UNL     1      21.325  12.690  31.775  0.00  0.00    +0.295 C 
ATOM     26  O   UNL     1      21.262  13.918  32.003  0.00  0.00    -0.264 OA
ENDROOT
BRANCH  13  14
ATOM     14  C   UNL     1      26.044   8.554  32.665  0.00  0.00    +0.129 C 
ATOM     15  C   UNL     1      26.668   7.630  33.704  0.00  0.00    +0.035 C 
BRANCH  14  16
ATOM     16  C   UNL     1      27.031   8.849  31.538  0.00  0.00    +0.195 C 
BRANCH  16  17
ATOM     17  N   UNL     1      26.478   9.836  30.611  0.00  0.00    -0.161 N 
ATOM     18  N   UNL     1      26.509  11.203  30.846  0.00  0.00    -0.046 NA
ATOM     19  N   UNL     1      25.868  11.712  29.701  0.00  0.00    -0.116 NA
ATOM     20  C   UNL     1      25.497  10.686  28.883  0.00  0.00    +0.270 A 
ATOM     21  N   UNL     1      25.861   9.494  29.412  0.00  0.00    -0.139 NA
ENDBRANCH  16  17
ENDBRANCH  14  16
ENDBRANCH  13  14
BRANCH   5   4
ATOM      4  O   UNL     1      19.084  12.765  31.019  0.00  0.00    -0.448 OA
BRANCH   4   3
ATOM      1  C   UNL     1      17.318  11.442  32.023  0.00  0.00    +0.168 A 
ATOM      2  F   UNL     1      18.047  11.213  33.130  0.00  0.00    -0.202 F 
ATOM      3  C   UNL     1      17.828  12.209  30.973  0.00  0.00    +0.164 A 
ATOM     27  C   UNL     1      17.057  12.434  29.837  0.00  0.00    +0.052 A 
ATOM     28  C   UNL     1      15.779  11.892  29.740  0.00  0.00    +0.042 A 
ATOM     29  C   UNL     1      15.271  11.125  30.785  0.00  0.00    +0.126 A 
ATOM     30  F   UNL     1      14.036  10.599  30.684  0.00  0.00    -0.205 F 
ATOM     31  C   UNL     1      16.037  10.898  31.927  0.00  0.00    +0.080 A 
ENDBRANCH   4   3
ENDBRANCH   5   4
TORSDOF 5
