REMARK  Name = 3ipy_ligand
REMARK  4 active torsions:
REMARK  status: ('A' for Active; 'I' for Inactive)
REMARK    1  A    between atoms: C6_6  and  C8_8
REMARK    2  A    between atoms: C8_8  and  N9_9
REMARK    3  A    between atoms: N12_12  and  C15_15
REMARK    4  A    between atoms: C17_17  and  C21_21
REMARK                            x       y       z     vdW  Elec       q    Type
REMARK                         _______ _______ _______ _____ _____    ______ ____
ROOT
ATOM     11  C   UNL     1      14.695  12.424  16.299  0.00  0.00    +0.127 A 
ATOM     12  N   UNL     1      14.492  13.514  17.089  0.00  0.00    -0.257 NA
ATOM     13  C   UNL     1      15.444  14.455  17.218  0.00  0.00    +0.174 A 
ATOM     14  N   UNL     1      16.616  14.346  16.576  0.00  0.00    -0.282 NA
ATOM     15  C   UNL     1      16.879  13.289  15.771  0.00  0.00    +0.062 A 
ATOM     25  C   UNL     1      15.906  12.298  15.616  0.00  0.00    +0.077 A 
ENDROOT
BRANCH  15  16
ATOM     16  C   UNL     1      18.198  13.204  15.050  0.00  0.00    +0.059 A 
ATOM     17  C   UNL     1      18.762  12.301  14.131  0.00  0.00    +0.014 A 
ATOM     18  C   UNL     1      20.091  12.754  13.759  0.00  0.00    -0.014 A 
ATOM     19  C   UNL     1      21.003  12.168  12.885  0.00  0.00    -0.002 A 
ATOM     20  C   UNL     1      22.250  12.780  12.669  0.00  0.00    -0.012 A 
ATOM     21  C   UNL     1      22.618  13.978  13.302  0.00  0.00    -0.008 A 
ATOM     22  C   UNL     1      21.744  14.614  14.190  0.00  0.00    +0.011 A 
ATOM     23  C   UNL     1      20.511  14.007  14.408  0.00  0.00    +0.042 A 
ATOM     24  S   UNL     1      19.278  14.533  15.404  0.00  0.00    -0.029 S 
ENDBRANCH  15  16
BRANCH  11  10
ATOM      7  N   UNL     1      12.200   9.125  16.257  0.00  0.00    +0.418 NA
ATOM      8  C   UNL     1      11.587  10.324  16.831  0.00  0.00    -0.081 C 
ATOM      9  C   UNL     1      12.645  11.383  17.179  0.00  0.00    +0.114 C 
ATOM     10  N   UNL     1      13.691  11.456  16.170  0.00  0.00    -0.292 N 
ATOM     26  C   UNL     1      13.703  10.558  15.031  0.00  0.00    +0.114 C 
ATOM     27  C   UNL     1      13.505   9.155  15.592  0.00  0.00    -0.081 C 
BRANCH   7   6
ATOM      6  C   UNL     1      11.473   7.868  16.342  0.00  0.00    +0.058 C 
BRANCH   6   5
ATOM      1  C   UNL     1      10.119   3.872  17.308  0.00  0.00    -0.067 A 
ATOM      2  C   UNL     1      11.139   3.589  18.406  0.00  0.00    -0.067 A 
ATOM      3  C   UNL     1      12.118   4.754  18.446  0.00  0.00    +0.121 A 
ATOM      4  N   UNL     1      11.554   5.735  17.523  0.00  0.00    -0.198 N 
ATOM      5  C   UNL     1      12.122   6.923  17.335  0.00  0.00    +0.233 C 
ATOM     28  O   UNL     1      13.129   7.260  17.942  0.00  0.00    -0.355 OA
ATOM     29  C   UNL     1      10.326   5.308  16.847  0.00  0.00    +0.121 A 
ENDBRANCH   6   5
ENDBRANCH   7   6
ENDBRANCH  11  10
TORSDOF 4
