REMARK  Name = 201
REMARK  3 active torsions:
REMARK  status: ('A' for Active; 'I' for Inactive)
REMARK    1  A    between atoms: C26_11  and  C21_16
REMARK    2  A    between atoms: C24_13  and  C23_14
REMARK    3  A    between atoms: C23_14  and  C22_15
REMARK                            x       y       z     vdW  Elec       q    Type
REMARK                         _______ _______ _______ _____ _____    ______ ____
ROOT
ATOM      3  C   UNL     1       7.000   8.516  -1.170  0.00  0.00    -0.031 C 
ATOM      4  C   UNL     1       7.000   9.652  -0.350  0.00  0.00    -0.031 C 
ENDROOT
BRANCH   3   2
ATOM      1  C   UNL     1       9.000   6.829  -2.391  0.00  0.00    +0.005 C 
ATOM      2  C   UNL     1       8.000   8.011  -1.518  0.00  0.00    +0.026 C 
ENDBRANCH   3   2
BRANCH   4   5
ATOM      5  C   UNL     1       8.000  10.247   0.153  0.00  0.00    +0.026 C 
BRANCH   5   6
ATOM      6  C   UNL     1       9.000   9.749  -0.162  0.00  0.00    +0.005 C 
ATOM      7  C   UNL     1      10.000   8.641  -0.982  0.00  0.00    +0.000 C 
ENDBRANCH   5   6
ENDBRANCH   4   5
TORSDOF 3
