REMARK  Name = 4YC8
REMARK  6 active torsions:
REMARK  status: ('A' for Active; 'I' for Inactive)
REMARK    1  A    between atoms: C_2  and  C_17
REMARK    2  A    between atoms: N_3  and  C_4
REMARK    3  A    between atoms: C_7  and  O_8
REMARK    4  A    between atoms: O_8  and  C_9
REMARK    5  A    between atoms: N_22  and  C_23
REMARK    6  A    between atoms: C_27  and  C_28
REMARK                            x       y       z     vdW  Elec       q    Type
REMARK                         _______ _______ _______ _____ _____    ______ ____
ROOT
ATOM      3  C   UNL     1      13.995  46.846   1.437  0.00  0.00    +0.095 A 
ATOM      4  S   UNL     1      14.009  48.493   1.473  0.00  0.00    -0.048 S 
ATOM      5  C   UNL     1      12.395  48.547   0.910  0.00  0.00    +0.164 A 
ATOM      6  N   UNL     1      11.714  49.746   0.586  0.00  0.00    -0.279 N 
ATOM      7  H   UNL     1      10.791  49.623   0.183  0.00  0.00    +0.156 HD
ATOM     23  N   UNL     1      11.828  47.324   0.690  0.00  0.00    -0.232 NA
ATOM     24  C   UNL     1      12.781  46.339   0.997  0.00  0.00    +0.133 A 
ENDROOT
BRANCH   6   8
ATOM      8  C   UNL     1      12.198  51.064   0.747  0.00  0.00    +0.130 A 
ATOM      9  N   UNL     1      13.473  51.277   1.269  0.00  0.00    -0.217 NA
ATOM     10  C   UNL     1      13.944  52.568   1.273  0.00  0.00    +0.130 A 
ATOM     11  C   UNL     1      15.365  52.811   1.747  0.00  0.00    +0.088 C 
ATOM     12  N   UNL     1      13.246  53.676   0.822  0.00  0.00    -0.218 NA
ATOM     13  C   UNL     1      11.968  53.456   0.321  0.00  0.00    +0.127 A 
ATOM     14  N   UNL     1      11.328  54.643  -0.169  0.00  0.00    -0.305 N 
ATOM     15  C   UNL     1      10.010  54.686  -0.836  0.00  0.00    +0.157 C 
ATOM     16  C   UNL     1       9.078  55.458   0.090  0.00  0.00    +0.148 C 
ATOM     17  N   UNL     1       9.599  56.849   0.269  0.00  0.00    +0.229 N 
ATOM     18  H   UNL     1       9.643  57.337  -0.682  0.00  0.00    +0.202 HD
ATOM     19  H   UNL     1       8.946  57.392   0.919  0.00  0.00    +0.202 HD
ATOM     20  C   UNL     1      10.970  56.801   0.868  0.00  0.00    +0.148 C 
ATOM     21  C   UNL     1      11.895  56.014  -0.053  0.00  0.00    +0.157 C 
ATOM     22  C   UNL     1      11.388  52.158   0.276  0.00  0.00    +0.087 A 
ENDBRANCH   6   8
BRANCH   3   2
ATOM      1  O   UNL     1      15.872  46.713   2.805  0.00  0.00    -0.269 OA
ATOM      2  C   UNL     1      15.211  46.171   1.920  0.00  0.00    +0.257 C 
ATOM     25  N   UNL     1      15.607  45.046   1.251  0.00  0.00    -0.281 N 
ATOM     26  H   UNL     1      15.058  44.779   0.441  0.00  0.00    +0.155 HD
BRANCH  25  27
ATOM     27  C   UNL     1      16.706  44.212   1.548  0.00  0.00    +0.034 A 
ATOM     28  C   UNL     1      17.470  44.228   2.733  0.00  0.00    +0.027 A 
ATOM     29  C   UNL     1      18.616  43.445   2.849  0.00  0.00    +0.048 A 
ATOM     30  C   UNL     1      19.010  42.647   1.782  0.00  0.00    +0.129 A 
ATOM     38  C   UNL     1      18.254  42.610   0.605  0.00  0.00    +0.048 A 
ATOM     39  C   UNL     1      17.130  43.396   0.491  0.00  0.00    +0.027 A 
BRANCH  30  31
ATOM     31  O   UNL     1      20.159  41.883   1.762  0.00  0.00    -0.456 OA
BRANCH  31  32
ATOM     32  C   UNL     1      20.431  41.101   2.879  0.00  0.00    +0.128 A 
ATOM     33  C   UNL     1      21.600  41.320   3.625  0.00  0.00    +0.046 A 
ATOM     34  C   UNL     1      21.810  40.554   4.767  0.00  0.00    +0.004 A 
ATOM     35  C   UNL     1      20.882  39.580   5.147  0.00  0.00    +0.000 A 
ATOM     36  C   UNL     1      19.731  39.357   4.397  0.00  0.00    +0.004 A 
ATOM     37  C   UNL     1      19.470  40.104   3.253  0.00  0.00    +0.046 A 
ENDBRANCH  31  32
ENDBRANCH  30  31
ENDBRANCH  25  27
ENDBRANCH   3   2
TORSDOF 5
