REMARK  Name = 2iw8_ligand
REMARK  6 active torsions:
REMARK  status: ('A' for Active; 'I' for Inactive)
REMARK    1  A    between atoms: C10_3  and  C11_4
REMARK    2  A    between atoms: C10_3  and  O6_17
REMARK    3  A    between atoms: C20_11  and  S23_26
REMARK    4  A    between atoms: N26_14  and  S23_26
REMARK    5  A    between atoms: C6_16  and  O6_17
REMARK    6  A    between atoms: N2_23  and  C17_24
REMARK                            x       y       z     vdW  Elec       q    Type
REMARK                         _______ _______ _______ _____ _____    ______ ____
ROOT
ATOM      1  C   UNL     1       8.222  44.029  50.023  0.00  0.00    +0.179 A 
ATOM      2  N   UNL     1       7.818  43.032  49.171  0.00  0.00    -0.249 N 
ATOM      3  H   UNL     1       8.498  42.771  48.443  0.00  0.00    +0.216 HD
ATOM     16  N   UNL     1       9.534  44.358  50.144  0.00  0.00    -0.257 NA
ATOM     17  C   UNL     1       9.913  45.350  50.989  0.00  0.00    +0.145 A 
ATOM     18  N   UNL     1      11.166  45.794  51.267  0.00  0.00    -0.240 N 
ATOM     19  H   UNL     1      12.048  45.444  50.866  0.00  0.00    +0.238 HD
ATOM     20  C   UNL     1      11.025  46.800  52.187  0.00  0.00    +0.235 A 
ATOM     21  N   UNL     1       9.707  46.964  52.494  0.00  0.00    -0.302 NA
ATOM     22  C   UNL     1       9.020  46.068  51.762  0.00  0.00    +0.104 A 
ATOM     23  C   UNL     1       7.616  45.697  51.613  0.00  0.00    +0.176 A 
ATOM     32  N   UNL     1       7.293  44.703  50.750  0.00  0.00    -0.240 NA
ENDROOT
BRANCH   2   4
ATOM      4  C   UNL     1       6.635  42.331  49.150  0.00  0.00    +0.064 A 
ATOM      5  C   UNL     1       5.722  42.330  50.205  0.00  0.00    +0.017 A 
ATOM      6  C   UNL     1       4.535  41.591  50.131  0.00  0.00    +0.016 A 
ATOM      7  C   UNL     1       4.229  40.811  49.005  0.00  0.00    +0.096 A 
ATOM     14  C   UNL     1       5.158  40.804  47.943  0.00  0.00    +0.016 A 
ATOM     15  C   UNL     1       6.339  41.551  48.021  0.00  0.00    +0.017 A 
BRANCH   7   8
ATOM      8  S   UNL     1       2.861  39.935  48.911  0.00  0.00    +0.061 S 
ATOM      9  O   UNL     1       2.552  39.769  47.476  0.00  0.00    -0.152 OA
ATOM     10  O   UNL     1       3.065  38.593  49.507  0.00  0.00    -0.152 OA
BRANCH   8  11
ATOM     11  N   UNL     1       1.691  40.551  49.659  0.00  0.00    -0.262 NA
ATOM     12  H   UNL     1       1.809  41.416  50.146  0.00  0.00    +0.163 HD
ATOM     13  H   UNL     1       0.803  40.091  49.664  0.00  0.00    +0.163 HD
ENDBRANCH   8  11
ENDBRANCH   7   8
ENDBRANCH   2   4
BRANCH  23  24
ATOM     24  O   UNL     1       6.650  46.333  52.311  0.00  0.00    -0.293 OA
BRANCH  24  25
ATOM     25  C   UNL     1       5.295  46.030  52.011  0.00  0.00    +0.206 C 
BRANCH  25  26
ATOM     26  C   UNL     1       4.412  46.498  53.138  0.00  0.00    +0.021 C 
ATOM     27  C   UNL     1       4.815  45.757  54.427  0.00  0.00    +0.006 C 
ATOM     28  C   UNL     1       3.842  46.155  55.526  0.00  0.00    +0.000 C 
ATOM     29  C   UNL     1       2.407  45.738  55.152  0.00  0.00    +0.000 C 
ATOM     30  C   UNL     1       1.972  46.430  53.861  0.00  0.00    +0.000 C 
ATOM     31  C   UNL     1       2.966  46.202  52.720  0.00  0.00    +0.006 C 
ENDBRANCH  25  26
ENDBRANCH  24  25
ENDBRANCH  23  24
TORSDOF 6
