REMARK  Name = 4ZTR
REMARK  7 active torsions:
REMARK  status: ('A' for Active; 'I' for Inactive)
REMARK    1  A    between atoms: C_1  and  C_2
REMARK    2  A    between atoms: C_2  and  C_3
REMARK    3  A    between atoms: C_6  and  N_9
REMARK    4  A    between atoms: C_13  and  C_14
REMARK    5  A    between atoms: N_17  and  C_18
REMARK    6  A    between atoms: C_21  and  C_24
REMARK    7  A    between atoms: N_32  and  C_33
REMARK                            x       y       z     vdW  Elec       q    Type
REMARK                         _______ _______ _______ _____ _____    ______ ____
ROOT
ATOM      7  N   UNL     1      -8.363  25.759  -7.727  0.00  0.00    -0.226 NA
ATOM      8  C   UNL     1      -7.558  26.517  -7.017  0.00  0.00    +0.168 C 
ATOM      9  N   UNL     1      -7.415  26.212  -5.496  0.00  0.00    -0.249 N 
ATOM     10  C   UNL     1      -8.047  25.218  -4.725  0.00  0.00    +0.140 C 
ATOM     11  C   UNL     1      -6.368  27.325  -5.049  0.00  0.00    +0.259 C 
ATOM     12  O   UNL     1      -5.971  27.441  -3.891  0.00  0.00    -0.269 OA
ATOM     13  C   UNL     1      -5.941  28.184  -6.182  0.00  0.00    +0.078 C 
ATOM     14  C   UNL     1      -5.060  29.144  -5.924  0.00  0.00    +0.028 C 
ATOM     32  S   UNL     1      -6.615  27.819  -7.551  0.00  0.00    -0.049 S 
ENDROOT
BRANCH  14  15
ATOM     15  C   UNL     1      -4.430  30.120  -6.942  0.00  0.00    -0.019 A 
ATOM     16  C   UNL     1      -4.322  29.933  -8.346  0.00  0.00    +0.028 A 
ATOM     17  C   UNL     1      -3.729  30.910  -9.113  0.00  0.00    +0.113 A 
ATOM     18  N   UNL     1      -3.252  32.007  -8.560  0.00  0.00    -0.240 NA
ATOM     19  C   UNL     1      -3.303  32.248  -7.241  0.00  0.00    +0.125 A 
ATOM     20  N   UNL     1      -2.760  33.486  -6.763  0.00  0.00    -0.284 N 
ATOM     21  H   UNL     1      -3.518  34.216  -6.956  0.00  0.00    +0.155 HD
ATOM     31  C   UNL     1      -3.900  31.303  -6.424  0.00  0.00    +0.051 A 
BRANCH  20  22
ATOM     22  C   UNL     1      -2.294  33.767  -5.378  0.00  0.00    +0.124 A 
ATOM     23  N   UNL     1      -1.375  34.727  -5.170  0.00  0.00    -0.239 NA
ATOM     24  C   UNL     1      -0.923  35.038  -3.968  0.00  0.00    +0.122 A 
ATOM     25  C   UNL     1      -1.396  34.369  -2.821  0.00  0.00    +0.016 A 
ATOM     29  C   UNL     1      -2.350  33.372  -2.967  0.00  0.00    +0.014 A 
ATOM     30  C   UNL     1      -2.789  33.090  -4.262  0.00  0.00    +0.044 A 
BRANCH  25  26
ATOM     26  C   UNL     1      -0.898  34.686  -1.413  0.00  0.00    +0.073 C 
ATOM     27  O   UNL     1      -1.612  34.368  -0.401  0.00  0.00    -0.545 OA
ATOM     28  O   UNL     1       0.239  35.251  -1.252  0.00  0.00    -0.545 OA
ENDBRANCH  25  26
ENDBRANCH  20  22
ENDBRANCH  14  15
BRANCH   7   6
ATOM      3  C   UNL     1      -9.286  26.190 -11.791  0.00  0.00    -0.048 A 
ATOM      4  C   UNL     1      -9.687  27.159 -10.879  0.00  0.00    +0.006 A 
ATOM      5  C   UNL     1      -9.376  27.014  -9.536  0.00  0.00    +0.028 A 
ATOM      6  C   UNL     1      -8.642  25.900  -9.114  0.00  0.00    +0.067 A 
ATOM     33  C   UNL     1      -8.249  24.918 -10.027  0.00  0.00    +0.028 A 
ATOM     34  C   UNL     1      -8.569  25.072 -11.375  0.00  0.00    +0.006 A 
BRANCH   3   2
ATOM      1  C   UNL     1      -8.779  27.484 -13.909  0.00  0.00    +0.009 C 
ATOM      2  C   UNL     1      -9.625  26.363 -13.258  0.00  0.00    +0.032 C 
ENDBRANCH   3   2
ENDBRANCH   7   6
TORSDOF 5
