REMARK  Name = 3pup_ligand
REMARK  2 active torsions:
REMARK  status: ('A' for Active; 'I' for Inactive)
REMARK    1  A    between atoms: RU15_15  and  C17_17
REMARK    2  A    between atoms: C21_21  and  N22_22
REMARK                            x       y       z     vdW  Elec       q    Type
REMARK                         _______ _______ _______ _____ _____    ______ ____
ROOT
ATOM      1  C   UNL     1      21.862 -17.387  -8.025  0.00  0.00    -0.002 A 
ATOM      2  C   UNL     1      21.845 -16.597  -9.192  0.00  0.00    -0.025 A 
ATOM      3  C   UNL     1      22.723 -15.782  -9.938  0.00  0.00    -0.011 A 
ATOM      4  C   UNL     1      24.082 -15.430  -9.780  0.00  0.00    -0.014 A 
ATOM      5  C   UNL     1      24.686 -14.584 -10.726  0.00  0.00    -0.026 A 
ATOM      6  C   UNL     1      23.913 -14.080 -11.812  0.00  0.00    -0.019 A 
ATOM      7  C   UNL     1      22.549 -14.432 -11.985  0.00  0.00    +0.013 A 
ATOM      8  C   UNL     1      21.971 -15.291 -11.030  0.00  0.00    +0.092 A 
ATOM      9  N   UNL     1      20.757 -15.784 -10.967  0.00  0.00    -0.156 N 
ATOM     10 RU   UNL     1      18.882 -15.719 -11.761  0.00  0.00    +6.000 Ru
ATOM     11 CL   UNL     1      16.574 -15.501 -12.340  0.00  0.00    -1.000 Cl
ATOM     12  N   UNL     1      18.377 -17.058 -10.244  0.00  0.00    -0.379 N 
ATOM     13  C   UNL     1      17.209 -17.669  -9.879  0.00  0.00    -0.004 A 
ATOM     14  C   UNL     1      17.167 -18.488  -8.725  0.00  0.00    +0.006 A 
ATOM     15  C   UNL     1      18.314 -18.668  -7.920  0.00  0.00    -0.054 A 
ATOM     16  C   UNL     1      19.517 -18.029  -8.266  0.00  0.00    -0.059 A 
ATOM     20  C   UNL     1      19.502 -17.214  -9.425  0.00  0.00    +0.009 A 
ATOM     21  N   UNL     1      19.282 -14.165 -13.039  0.00  0.00    -0.301 N 
ATOM     22  C   UNL     1      19.188 -14.015 -14.343  0.00  0.00    +0.083 A 
ATOM     23  C   UNL     1      19.362 -12.847 -15.015  0.00  0.00    +0.024 A 
ATOM     24  C   UNL     1      19.633 -11.724 -14.293  0.00  0.00    +0.023 A 
ATOM     25  C   UNL     1      19.728 -11.846 -12.949  0.00  0.00    +0.030 A 
ATOM     26  C   UNL     1      19.545 -13.046 -12.333  0.00  0.00    -0.006 A 
ATOM     27  C   UNL     1      19.627 -13.091 -10.839  0.00  0.00    -0.217 C 
ATOM     28  N   UNL     1      18.598 -14.060 -10.440  0.00  0.00    -0.311 NA
ATOM     29  H   UNL     1      17.974 -13.627  -9.672  0.00  0.00    -0.326 HD
ATOM     32  C   UNL     1      20.636 -16.530  -9.883  0.00  0.00    +0.084 A 
ATOM     33  C   UNL     1      22.900 -17.618  -7.127  0.00  0.00    +0.188 A 
ATOM     34  O   UNL     1      24.075 -17.184  -7.131  0.00  0.00    -0.401 OA
ATOM     35  N   UNL     1      22.431 -18.438  -6.169  0.00  0.00    -0.221 N 
ATOM     36  H   UNL     1      22.976 -18.764  -5.397  0.00  0.00    +0.218 HD
ATOM     37  C   UNL     1      21.147 -18.767  -6.371  0.00  0.00    +0.178 A 
ATOM     38  O   UNL     1      20.644 -19.514  -5.508  0.00  0.00    -0.410 OA
ATOM     39  C   UNL     1      20.734 -18.106  -7.556  0.00  0.00    -0.004 A 
ENDROOT
BRANCH  14  17
ATOM     17  N   UNL     1      16.015 -19.191  -8.293  0.00  0.00    -0.344 N 
ATOM     18  H   UNL     1      15.139 -19.123  -8.830  0.00  0.00    +0.171 HD
ATOM     19  H   UNL     1      16.054 -19.770  -7.442  0.00  0.00    +0.171 HD
ENDBRANCH  14  17
BRANCH  10  30
ATOM     30  C   UNL     1      19.040 -17.094 -12.916  0.00  0.00    -0.317 C 
ATOM     31  O   UNL     1      19.081 -17.986 -13.616  0.00  0.00    -0.683 OA
ENDBRANCH  10  30
TORSDOF 2
