REMARK  Name = 1w83_ligand
REMARK  6 active torsions:
REMARK  status: ('A' for Active; 'I' for Inactive)
REMARK    1  A    between atoms: C16_5  and  C17_6
REMARK    2  A    between atoms: C17_6  and  O18_7
REMARK    3  A    between atoms: O18_7  and  C19_8
REMARK    4  A    between atoms: C11_15  and  N10_16
REMARK    5  A    between atoms: C8_17  and  C6_19
REMARK    6  A    between atoms: C4_24  and  N26_26
REMARK                            x       y       z     vdW  Elec       q    Type
REMARK                         _______ _______ _______ _____ _____    ______ ____
ROOT
ATOM      6  N   UNL     1       6.354  13.806  34.758  0.00  0.00    -0.234 N 
ATOM      7  H   UNL     1       6.925  14.595  34.533  0.00  0.00    +0.226 HD
ATOM      8  C   UNL     1       5.806  13.805  36.002  0.00  0.00    +0.229 C 
ATOM     22  O   UNL     1       4.937  13.036  36.345  0.00  0.00    -0.373 OA
ENDROOT
BRANCH   6   5
ATOM      1 CL   UNL     1       5.936   9.758  30.388  0.00  0.00    -0.091 Cl
ATOM      2  C   UNL     1       6.027  10.937  31.687  0.00  0.00    +0.028 A 
ATOM      3  C   UNL     1       4.880  11.435  32.302  0.00  0.00    -0.012 A 
ATOM      4  C   UNL     1       4.976  12.386  33.308  0.00  0.00    +0.007 A 
ATOM      5  C   UNL     1       6.219  12.837  33.748  0.00  0.00    +0.060 A 
ATOM     23  C   UNL     1       7.360  12.337  33.129  0.00  0.00    -0.002 A 
ATOM     32  C   UNL     1       7.265  11.393  32.121  0.00  0.00    -0.011 A 
BRANCH   3  24
ATOM     24  C   UNL     1       3.510  11.028  31.838  0.00  0.00    +0.260 C 
BRANCH  24  25
ATOM     25  O   UNL     1       3.141   9.720  32.225  0.00  0.00    -0.298 OA
BRANCH  25  26
ATOM     26  C   UNL     1       2.019   9.316  31.543  0.00  0.00    +0.122 A 
ATOM     27  C   UNL     1       1.481  10.060  30.473  0.00  0.00    +0.053 A 
ATOM     28  C   UNL     1       0.344   9.577  29.822  0.00  0.00    +0.025 A 
ATOM     29  C   UNL     1      -0.218   8.374  30.238  0.00  0.00    +0.073 A 
ATOM     30  N   UNL     1       0.317   7.685  31.259  0.00  0.00    -0.307 NA
ATOM     31  C   UNL     1       1.399   8.114  31.919  0.00  0.00    +0.115 A 
ENDBRANCH  25  26
ENDBRANCH  24  25
ENDBRANCH   3  24
ENDBRANCH   6   5
BRANCH   8   9
ATOM      9  C   UNL     1       6.242  14.794  36.997  0.00  0.00    +0.043 A 
ATOM     10  C   UNL     1       5.863  14.652  38.331  0.00  0.00    +0.025 A 
ATOM     11  C   UNL     1       6.274  15.574  39.296  0.00  0.00    +0.044 A 
ATOM     18  C   UNL     1       7.059  16.660  38.893  0.00  0.00    +0.047 A 
ATOM     19  C   UNL     1       7.441  16.781  37.559  0.00  0.00    +0.126 A 
ATOM     20  F   UNL     1       8.207  17.805  37.174  0.00  0.00    -0.186 F 
ATOM     21  C   UNL     1       7.043  15.863  36.602  0.00  0.00    +0.033 A 
BRANCH  11  12
ATOM     12  N   UNL     1       5.845  15.437  40.634  0.00  0.00    -0.304 N 
ATOM     13  C   UNL     1       6.523  16.354  41.559  0.00  0.00    +0.157 C 
ATOM     14  C   UNL     1       5.778  16.355  42.880  0.00  0.00    +0.183 C 
ATOM     15  O   UNL     1       5.678  15.035  43.418  0.00  0.00    -0.376 OA
ATOM     16  C   UNL     1       5.101  14.095  42.499  0.00  0.00    +0.183 C 
ATOM     17  C   UNL     1       5.853  14.064  41.158  0.00  0.00    +0.157 C 
ENDBRANCH  11  12
ENDBRANCH   8   9
TORSDOF 6
