REMARK  Name = 4EUU
REMARK  7 active torsions:
REMARK  status: ('A' for Active; 'I' for Inactive)
REMARK    1  A    between atoms: N_6  and  C_17
REMARK    2  A    between atoms: N_7  and  C_21
REMARK    3  A    between atoms: N_8  and  C_22
REMARK    4  A    between atoms: N_9  and  C_23
REMARK    5  A    between atoms: C_19  and  C_21
REMARK    6  A    between atoms: C_19  and  C_23
REMARK    7  A    between atoms: C_29  and  C_31
REMARK                            x       y       z     vdW  Elec       q    Type
REMARK                         _______ _______ _______ _____ _____    ______ ____
ROOT
ATOM      1  I   UNL     1      -5.518 -12.570   7.770  0.00  0.00    -0.039 I 
ATOM      2  C   UNL     1      -4.835 -10.854   8.696  0.00  0.00    +0.071 A 
ATOM      3  C   UNL     1      -5.769 -10.008   9.398  0.00  0.00    +0.132 A 
ATOM      4  N   UNL     1      -5.326  -8.871   9.954  0.00  0.00    -0.222 NA
ATOM      5  C   UNL     1      -4.068  -8.499   9.916  0.00  0.00    +0.221 A 
ATOM      6  N   UNL     1      -3.138  -9.248   9.266  0.00  0.00    -0.198 NA
ATOM      7  N   UNL     1      -3.734  -7.303  10.580  0.00  0.00    -0.283 N 
ATOM      8  H   UNL     1      -4.558  -6.720  10.936  0.00  0.00    +0.155 HD
ATOM     24  C   UNL     1      -3.489 -10.397   8.702  0.00  0.00    +0.137 A 
ATOM     25  N   UNL     1      -2.477 -11.221   8.008  0.00  0.00    -0.328 N 
ATOM     26  H   UNL     1      -2.501 -12.188   8.464  0.00  0.00    +0.147 HD
ENDROOT
BRANCH   7   9
ATOM      9  C   UNL     1      -2.468  -6.784  10.831  0.00  0.00    +0.035 A 
ATOM     10  C   UNL     1      -2.380  -5.628  11.580  0.00  0.00    +0.023 A 
ATOM     11  C   UNL     1      -1.179  -5.078  11.918  0.00  0.00    +0.004 A 
ATOM     12  C   UNL     1      -0.009  -5.655  11.458  0.00  0.00    +0.023 A 
ATOM     13  C   UNL     1      -0.110  -6.822  10.712  0.00  0.00    +0.036 A 
ATOM     23  C   UNL     1      -1.303  -7.414  10.381  0.00  0.00    +0.046 A 
BRANCH  13  14
ATOM     14  N   UNL     1       1.141  -7.372  10.230  0.00  0.00    -0.269 N 
ATOM     15  H   UNL     1       0.967  -8.414  10.059  0.00  0.00    +0.156 HD
ATOM     16  C   UNL     1       2.350  -7.284  11.008  0.00  0.00    +0.310 C 
ATOM     17  N   UNL     1       3.535  -7.773  10.421  0.00  0.00    -0.262 N 
ATOM     18  C   UNL     1       4.753  -7.760  11.091  0.00  0.00    +0.075 C 
ATOM     19  C   UNL     1       5.744  -7.848   9.962  0.00  0.00    -0.010 C 
ATOM     20  C   UNL     1       4.954  -8.310   8.711  0.00  0.00    +0.048 C 
ATOM     21  C   UNL     1       3.493  -8.341   9.148  0.00  0.00    +0.119 C 
ATOM     22  O   UNL     1       2.313  -6.802  12.117  0.00  0.00    -0.252 OA
ENDBRANCH  13  14
ENDBRANCH   7   9
BRANCH  25  27
ATOM     27  C   UNL     1      -1.078 -10.798   7.989  0.00  0.00    +0.104 C 
BRANCH  27  28
ATOM     28  C   UNL     1      -0.458 -11.303   9.329  0.00  0.00    +0.037 C 
BRANCH  28  29
ATOM     29  C   UNL     1      -0.377 -12.851   9.408  0.00  0.00    +0.106 C 
BRANCH  29  30
ATOM     30  N   UNL     1       0.439 -13.243   8.282  0.00  0.00    -0.311 N 
ATOM     31  H   UNL     1       1.492 -13.059   8.233  0.00  0.00    +0.149 HD
ATOM     32  C   UNL     1      -0.283 -13.896   7.245  0.00  0.00    +0.251 C 
ATOM     38  O   UNL     1      -1.499 -14.135   7.337  0.00  0.00    -0.270 OA
BRANCH  32  33
ATOM     33  C   UNL     1       0.484 -14.243   5.984  0.00  0.00    +0.074 A 
ATOM     34  C   UNL     1       1.668 -13.548   5.551  0.00  0.00    +0.020 A 
ATOM     35  C   UNL     1       2.093 -14.155   4.202  0.00  0.00    +0.008 A 
ATOM     36  C   UNL     1       1.202 -15.227   3.849  0.00  0.00    +0.046 A 
ATOM     37  S   UNL     1      -0.023 -15.398   4.941  0.00  0.00    -0.092 S 
ENDBRANCH  32  33
ENDBRANCH  29  30
ENDBRANCH  28  29
ENDBRANCH  27  28
ENDBRANCH  25  27
TORSDOF 7
