REMARK  Name = 5HOA
REMARK  6 active torsions:
REMARK  status: ('A' for Active; 'I' for Inactive)
REMARK    1  A    between atoms: C_10  and  C_15
REMARK    2  A    between atoms: C_14  and  S_38
REMARK    3  A    between atoms: C_17  and  S_38
REMARK    4  A    between atoms: C_24  and  C_25
REMARK    5  A    between atoms: C_24  and  N_32
REMARK    6  A    between atoms: C_25  and  N_33
REMARK                            x       y       z     vdW  Elec       q    Type
REMARK                         _______ _______ _______ _____ _____    ______ ____
ROOT
ATOM      8  C   UNL     1      19.646 -11.124  56.188  0.00  0.00    +0.017 A 
ATOM      9  C   UNL     1      18.979 -12.041  56.966  0.00  0.00    +0.032 A 
ATOM     10  C   UNL     1      19.705 -12.609  57.988  0.00  0.00    +0.042 A 
ATOM     11  S   UNL     1      19.135 -13.776  59.110  0.00  0.00    -0.052 S 
ATOM     12  C   UNL     1      20.684 -13.780  59.851  0.00  0.00    +0.167 A 
ATOM     13  N   UNL     1      20.886 -14.608  60.938  0.00  0.00    -0.249 N 
ATOM     14  H   UNL     1      21.873 -14.704  61.339  0.00  0.00    +0.158 HD
ATOM     15  C   UNL     1      19.855 -15.315  61.523  0.00  0.00    +0.305 C 
ATOM     16  O   UNL     1      18.762 -15.547  61.019  0.00  0.00    -0.253 OA
ATOM     17  N   UNL     1      20.195 -15.759  62.777  0.00  0.00    -0.298 N 
ATOM     18  H   UNL     1      21.025 -15.324  63.294  0.00  0.00    +0.150 HD
ATOM     27  N   UNL     1      21.581 -12.980  59.314  0.00  0.00    -0.225 NA
ATOM     28  C   UNL     1      21.034 -12.304  58.251  0.00  0.00    +0.080 A 
ATOM     29  C   UNL     1      21.691 -11.379  57.456  0.00  0.00    +0.030 A 
ATOM     30  C   UNL     1      20.966 -10.808  56.433  0.00  0.00    +0.017 A 
ENDROOT
BRANCH   8   7
ATOM      7  S   UNL     1      18.742 -10.372  54.861  0.00  0.00    -0.048 S 
BRANCH   7   6
ATOM      3  C   UNL     1      15.875  -8.817  57.959  0.00  0.00    +0.092 A 
ATOM      4  N   UNL     1      16.692  -9.360  57.051  0.00  0.00    -0.163 NA
ATOM      5  N   UNL     1      17.486  -8.501  56.467  0.00  0.00    -0.187 N 
ATOM      6  C   UNL     1      18.429  -8.770  55.502  0.00  0.00    +0.217 A 
ATOM     31  N   UNL     1      19.072  -7.656  55.116  0.00  0.00    -0.120 NA
ATOM     32  N   UNL     1      18.504  -6.684  55.864  0.00  0.00    -0.127 NA
ATOM     33  C   UNL     1      17.542  -7.209  56.678  0.00  0.00    +0.179 A 
ATOM     34  C   UNL     1      16.715  -6.595  57.591  0.00  0.00    +0.052 A 
ATOM     35  C   UNL     1      15.866  -7.467  58.242  0.00  0.00    +0.034 A 
BRANCH   3   2
ATOM      1  C   UNL     1      13.763  -9.378  59.109  0.00  0.00    +0.013 A 
ATOM      2  C   UNL     1      15.020  -9.748  58.670  0.00  0.00    +0.002 A 
ATOM     36  C   UNL     1      15.472 -11.028  58.936  0.00  0.00    +0.013 A 
ATOM     37  C   UNL     1      14.686 -11.929  59.620  0.00  0.00    +0.039 A 
ATOM     38  C   UNL     1      13.435 -11.538  60.048  0.00  0.00    +0.123 A 
ATOM     39  F   UNL     1      12.656 -12.407  60.714  0.00  0.00    -0.205 F 
ATOM     40  C   UNL     1      12.969 -10.267  59.799  0.00  0.00    +0.039 A 
ENDBRANCH   3   2
ENDBRANCH   7   6
ENDBRANCH   8   7
BRANCH  17  19
ATOM     19  C   UNL     1      19.431 -16.812  63.394  0.00  0.00    +0.121 C 
BRANCH  19  20
ATOM     20  C   UNL     1      18.159 -16.254  63.977  0.00  0.00    +0.103 C 
BRANCH  20  21
ATOM     21  N   UNL     1      17.687 -17.216  64.992  0.00  0.00    -0.296 NA
ATOM     22  C   UNL     1      18.370 -17.025  66.302  0.00  0.00    +0.112 C 
ATOM     23  C   UNL     1      17.798 -18.072  67.225  0.00  0.00    +0.175 C 
ATOM     24  O   UNL     1      16.414 -17.763  67.365  0.00  0.00    -0.377 OA
ATOM     25  C   UNL     1      15.739 -18.138  66.167  0.00  0.00    +0.175 C 
ATOM     26  C   UNL     1      16.195 -17.216  65.056  0.00  0.00    +0.112 C 
ENDBRANCH  20  21
ENDBRANCH  19  20
ENDBRANCH  17  19
TORSDOF 6
