REMARK  Name = 2xb7_ligand
REMARK  12 active torsions:
REMARK  status: ('A' for Active; 'I' for Inactive)
REMARK    1  A    between atoms: C2_2  and  N29_29
REMARK    2  A    between atoms: N7_7  and  C8_8
REMARK    3  A    between atoms: C11_11  and  N16_16
REMARK    4  A    between atoms: C13_13  and  O14_14
REMARK    5  A    between atoms: O14_14  and  C15_15
REMARK    6  A    between atoms: C19_19  and  N22_22
REMARK    7  A    between atoms: N25_25  and  C28_28
REMARK    8  A    between atoms: N29_29  and  C30_30
REMARK    9  A    between atoms: C31_31  and  S36_36
REMARK   10  A    between atoms: S36_36  and  C37_37
REMARK   11  A    between atoms: C37_37  and  C38_38
REMARK   12  A    between atoms: C37_37  and  C39_39
REMARK                            x       y       z     vdW  Elec       q    Type
REMARK                         _______ _______ _______ _____ _____    ______ ____
ROOT
ATOM      1  C   UNL     1       4.287  15.446  10.029  0.00  0.00    +0.098 A 
ATOM      2 CL   UNL     1       5.204  14.061  10.486  0.00  0.00    -0.075 Cl
ATOM      3  C   UNL     1       3.011  15.687  10.650  0.00  0.00    +0.100 A 
ATOM      4  N   UNL     1       2.320  16.718  10.313  0.00  0.00    -0.270 NA
ATOM      5  C   UNL     1       2.773  17.635   9.343  0.00  0.00    +0.190 A 
ATOM      6  N   UNL     1       2.002  18.766   8.982  0.00  0.00    -0.254 N 
ATOM      7  H   UNL     1       1.053  18.770   9.381  0.00  0.00    +0.212 HD
ATOM     31  N   UNL     1       3.899  17.443   8.781  0.00  0.00    -0.235 NA
ATOM     32  C   UNL     1       4.720  16.337   9.093  0.00  0.00    +0.147 A 
ENDROOT
BRANCH   6   8
ATOM      8  C   UNL     1       2.296  19.907   8.164  0.00  0.00    +0.083 A 
ATOM      9  C   UNL     1       1.216  20.690   7.482  0.00  0.00    +0.105 A 
ATOM     12  C   UNL     1       1.560  21.771   6.727  0.00  0.00    +0.017 A 
ATOM     13  C   UNL     1       2.989  22.184   6.563  0.00  0.00    +0.020 A 
ATOM     29  C   UNL     1       3.949  21.455   7.189  0.00  0.00    -0.024 A 
ATOM     30  C   UNL     1       3.585  20.286   8.012  0.00  0.00    -0.009 A 
BRANCH  13  14
ATOM     14  N   UNL     1       3.340  23.329   5.768  0.00  0.00    -0.316 N 
ATOM     15  C   UNL     1       2.261  24.262   5.323  0.00  0.00    +0.132 C 
ATOM     16  C   UNL     1       2.740  25.710   5.019  0.00  0.00    +0.077 C 
ATOM     17  C   UNL     1       4.077  25.684   4.229  0.00  0.00    +0.068 C 
ATOM     27  C   UNL     1       5.122  25.051   5.192  0.00  0.00    +0.077 C 
ATOM     28  C   UNL     1       4.773  23.560   5.420  0.00  0.00    +0.132 C 
BRANCH  17  18
ATOM     18  N   UNL     1       4.480  27.090   3.837  0.00  0.00    +0.245 N 
ATOM     19  H   UNL     1       4.371  27.689   4.640  0.00  0.00    +0.204 HD
ATOM     20  C   UNL     1       5.917  27.139   3.388  0.00  0.00    +0.183 C 
ATOM     21  C   UNL     1       6.311  28.617   3.128  0.00  0.00    +0.183 C 
ATOM     22  N   UNL     1       5.425  29.202   2.074  0.00  0.00    +0.240 N 
ATOM     23  H   UNL     1       5.595  28.716   1.207  0.00  0.00    +0.203 HD
ATOM     24  C   UNL     1       5.768  30.627   1.908  0.00  0.00    +0.191 C 
ATOM     25  C   UNL     1       3.968  29.081   2.406  0.00  0.00    +0.183 C 
ATOM     26  C   UNL     1       3.602  27.601   2.724  0.00  0.00    +0.183 C 
ENDBRANCH  17  18
ENDBRANCH  13  14
BRANCH   9  10
ATOM     10  O   UNL     1      -0.132  20.270   7.658  0.00  0.00    -0.328 OA
ATOM     11  C   UNL     1      -1.155  21.059   7.033  0.00  0.00    +0.229 C 
ENDBRANCH   9  10
ENDBRANCH   6   8
BRANCH  32  33
ATOM     33  N   UNL     1       5.989  16.134   8.452  0.00  0.00    -0.254 N 
ATOM     34  H   UNL     1       6.556  15.351   8.809  0.00  0.00    +0.217 HD
BRANCH  33  35
ATOM     35  C   UNL     1       6.563  16.886   7.378  0.00  0.00    +0.089 A 
ATOM     36  C   UNL     1       5.746  17.721   6.448  0.00  0.00    +0.017 A 
ATOM     37  C   UNL     1       6.323  18.421   5.445  0.00  0.00    -0.013 A 
ATOM     38  C   UNL     1       7.790  18.361   5.257  0.00  0.00    -0.019 A 
ATOM     39  C   UNL     1       8.552  17.605   6.093  0.00  0.00    +0.014 A 
ATOM     40  C   UNL     1       7.917  16.833   7.204  0.00  0.00    +0.112 A 
BRANCH  40  41
ATOM     41  S   UNL     1       8.933  15.854   8.306  0.00  0.00    -0.003 S 
ATOM     42  O   UNL     1       8.112  14.822   9.049  0.00  0.00    -0.171 OA
ATOM     43  O   UNL     1      10.046  15.168   7.531  0.00  0.00    -0.171 OA
BRANCH  41  44
ATOM     44  C   UNL     1       9.731  16.932   9.525  0.00  0.00    +0.128 C 
ATOM     45  C   UNL     1      10.846  17.738   8.833  0.00  0.00    +0.032 C 
ATOM     46  C   UNL     1       8.709  17.903  10.148  0.00  0.00    +0.032 C 
ENDBRANCH  41  44
ENDBRANCH  40  41
ENDBRANCH  33  35
ENDBRANCH  32  33
TORSDOF 8
