REMARK  Name = 4RX7
REMARK  7 active torsions:
REMARK  status: ('A' for Active; 'I' for Inactive)
REMARK    1  A    between atoms: C_2  and  N_4
REMARK    2  A    between atoms: C_5  and  C_6
REMARK    3  A    between atoms: C_6  and  O_17
REMARK    4  A    between atoms: C_8  and  N_24
REMARK    5  A    between atoms: C_9  and  N_24
REMARK    6  A    between atoms: C_14  and  N_25
REMARK    7  A    between atoms: C_22  and  N_23
REMARK                            x       y       z     vdW  Elec       q    Type
REMARK                         _______ _______ _______ _____ _____    ______ ____
ROOT
ATOM     10  N   UNL     1       2.878   3.726  12.672  0.00  0.00    -0.244 NA
ATOM     11  C   UNL     1       3.407   2.704  13.373  0.00  0.00    +0.242 C 
ATOM     12  N   UNL     1       2.599   1.651  13.622  0.00  0.00    -0.194 NA
ATOM     13  C   UNL     1       3.117   0.648  14.354  0.00  0.00    +0.159 C 
ATOM     29  C   UNL     1       4.452   0.763  14.846  0.00  0.00    +0.184 C 
ATOM     30  N   UNL     1       5.190   1.860  14.551  0.00  0.00    -0.163 NA
ATOM     36  N   UNL     1       4.676   2.846  13.792  0.00  0.00    -0.244 N 
ATOM     37  H   UNL     1       5.255   3.708  13.533  0.00  0.00    +0.192 HD
ENDROOT
BRANCH  10   9
ATOM      1  C   UNL     1       1.357   4.450  10.853  0.00  0.00    +0.028 C 
ATOM      2  C   UNL     1      -0.107   4.595  10.441  0.00  0.00    +0.002 C 
ATOM      3  C   UNL     1      -0.939   5.271  11.532  0.00  0.00    +0.002 C 
ATOM      4  C   UNL     1      -0.824   4.540  12.871  0.00  0.00    +0.020 C 
ATOM      5  C   UNL     1       0.616   4.454  13.358  0.00  0.00    +0.075 C 
ATOM      9  C   UNL     1       1.502   3.775  12.220  0.00  0.00    +0.126 C 
BRANCH   5   6
ATOM      6  N   UNL     1       1.125   5.799  13.698  0.00  0.00    -0.326 NA
ATOM      7  H   UNL     1       2.132   5.721  14.050  0.00  0.00    +0.118 HD
ATOM      8  H   UNL     1       1.099   6.421  12.828  0.00  0.00    +0.118 HD
ENDBRANCH   5   6
ENDBRANCH  10   9
BRANCH  29  31
ATOM     31  C   UNL     1       5.100  -0.287  15.722  0.00  0.00    +0.236 C 
ATOM     34  N   UNL     1       6.382  -0.109  15.993  0.00  0.00    -0.265 NA
ATOM     35  H   UNL     1       6.902  -0.814  16.607  0.00  0.00    +0.190 HD
BRANCH  31  32
ATOM     32  O   UNL     1       4.453  -1.253  16.138  0.00  0.00    -0.491 OA
ATOM     33  H   UNL     1       3.648  -0.911  16.720  0.00  0.00    +0.294 HD
ENDBRANCH  31  32
ENDBRANCH  29  31
BRANCH  13  14
ATOM     14  N   UNL     1       2.353  -0.453  14.652  0.00  0.00    -0.297 N 
ATOM     15  H   UNL     1       2.890  -1.223  15.166  0.00  0.00    +0.154 HD
BRANCH  14  16
ATOM     16  C   UNL     1       1.005  -0.767  14.415  0.00  0.00    +0.035 A 
ATOM     17  C   UNL     1       0.145  -0.008  13.626  0.00  0.00    +0.052 A 
ATOM     18  C   UNL     1      -1.203  -0.364  13.511  0.00  0.00    +0.084 A 
ATOM     26  C   UNL     1      -1.676  -1.488  14.197  0.00  0.00    +0.029 A 
ATOM     27  C   UNL     1      -0.809  -2.246  14.965  0.00  0.00    +0.004 A 
ATOM     28  C   UNL     1       0.523  -1.887  15.087  0.00  0.00    +0.023 A 
BRANCH  18  19
ATOM     19  N   UNL     1      -2.127   0.460  12.801  0.00  0.00    -0.196 N 
ATOM     20  N   UNL     1      -3.450   0.323  12.950  0.00  0.00    -0.284 N 
ATOM     21  H   UNL     1      -3.958  -0.364  13.594  0.00  0.00    +0.188 HD
ATOM     22  C   UNL     1      -4.004   1.213  12.137  0.00  0.00    +0.122 A 
ATOM     23  C   UNL     1      -2.922   1.902  11.455  0.00  0.00    +0.122 A 
ATOM     24  N   UNL     1      -1.786   1.382  11.901  0.00  0.00    -0.284 N 
ATOM     25  H   UNL     1      -0.795   1.649  11.599  0.00  0.00    +0.188 HD
ENDBRANCH  18  19
ENDBRANCH  14  16
ENDBRANCH  13  14
TORSDOF 7
