REMARK  Name = 3R7V
REMARK  5 active torsions:
REMARK  status: ('A' for Active; 'I' for Inactive)
REMARK    1  A    between atoms: N_1  and  C_10
REMARK    2  A    between atoms: N_3  and  C_7
REMARK    3  A    between atoms: N_3  and  C_12
REMARK    4  A    between atoms: C_6  and  C_11
REMARK    5  A    between atoms: C_12  and  C_13
REMARK                            x       y       z     vdW  Elec       q    Type
REMARK                         _______ _______ _______ _____ _____    ______ ____
ROOT
ATOM      4  C   UNL     1     -93.818 -44.856 -82.462  0.00  0.00    +0.127 A 
ATOM      5  C   UNL     1     -92.723 -44.859 -81.550  0.00  0.00    +0.034 A 
ATOM      6  C   UNL     1     -91.453 -45.357 -81.948  0.00  0.00    +0.026 A 
ATOM      7  C   UNL     1     -91.240 -45.871 -83.281  0.00  0.00    +0.040 A 
ATOM      8  C   UNL     1     -92.352 -45.870 -84.215  0.00  0.00    +0.059 A 
ATOM     23  C   UNL     1     -93.620 -45.362 -83.785  0.00  0.00    +0.047 A 
ENDROOT
BRANCH   8   9
ATOM      9  C   UNL     1     -92.235 -46.339 -85.522  0.00  0.00    +0.243 C 
ATOM     10  O   UNL     1     -91.408 -47.164 -85.827  0.00  0.00    -0.270 OA
ATOM     11  N   UNL     1     -93.066 -45.849 -86.506  0.00  0.00    -0.325 N 
ATOM     12  H   UNL     1     -92.977 -46.209 -87.510  0.00  0.00    +0.145 HD
ATOM     13  H   UNL     1     -93.801 -45.109 -86.266  0.00  0.00    +0.145 HD
ENDBRANCH   8   9
BRANCH   4   1
ATOM      1  N   UNL     1     -94.974 -44.401 -82.099  0.00  0.00    +0.056 N 
ATOM      2  O   UNL     1     -95.205 -44.108 -80.836  0.00  0.00    -0.126 OA
ATOM      3  O   UNL     1     -95.955 -44.219 -82.982  0.00  0.00    -0.126 OA
ENDBRANCH   4   1
BRANCH   7  14
ATOM     14  N   UNL     1     -90.075 -46.330 -83.646  0.00  0.00    -0.338 N 
ATOM     15  H   UNL     1     -90.017 -46.877 -84.564  0.00  0.00    +0.146 HD
BRANCH  14  16
ATOM     16  C   UNL     1     -88.807 -46.139 -82.857  0.00  0.00    +0.157 C 
BRANCH  16  17
ATOM     17  C   UNL     1     -88.504 -47.325 -81.947  0.00  0.00    +0.058 A 
ATOM     18  C   UNL     1     -89.079 -48.587 -82.227  0.00  0.00    +0.025 A 
ATOM     19  C   UNL     1     -88.779 -49.667 -81.359  0.00  0.00    +0.003 A 
ATOM     20  C   UNL     1     -87.926 -49.478 -80.249  0.00  0.00    +0.020 A 
ATOM     21  C   UNL     1     -87.393 -48.184 -80.044  0.00  0.00    +0.111 A 
ATOM     22  N   UNL     1     -87.667 -47.113 -80.868  0.00  0.00    -0.258 NA
ENDBRANCH  16  17
ENDBRANCH  14  16
ENDBRANCH   7  14
TORSDOF 5
