REMARK  Name = 4u0i_ligand
REMARK  9 active torsions:
REMARK  status: ('A' for Active; 'I' for Inactive)
REMARK    1  A    between atoms: N3_2  and  C20_12
REMARK    2  A    between atoms: C4_3  and  C5_4
REMARK    3  A    between atoms: C6_5  and  C11_26
REMARK    4  A    between atoms: C13_9  and  N2_29
REMARK    5  A    between atoms: C17_11  and  C19_33
REMARK    6  A    between atoms: C20_12  and  C16_31
REMARK    7  A    between atoms: C2_23  and  C3_24
REMARK    8  A    between atoms: C9_25  and  C12_27
REMARK    9  A    between atoms: C25_38  and  N4_39
REMARK                            x       y       z     vdW  Elec       q    Type
REMARK                         _______ _______ _______ _____ _____    ______ ____
ROOT
ATOM      9  C   UNL     1      34.914   8.835  45.277  0.00  0.00    +0.226 C 
ATOM     10  N   UNL     1      34.833   7.734  46.067  0.00  0.00    -0.232 N 
ATOM     11  H   UNL     1      34.882   6.848  45.606  0.00  0.00    +0.224 HD
ATOM     32  O   UNL     1      35.078   9.978  45.694  0.00  0.00    -0.377 OA
ENDROOT
BRANCH   9   8
ATOM      6  C   UNL     1      34.938   9.678  41.551  0.00  0.00    +0.026 A 
ATOM      7  C   UNL     1      35.058   9.746  42.955  0.00  0.00    +0.030 A 
ATOM      8  C   UNL     1      34.760   8.620  43.810  0.00  0.00    +0.048 A 
ATOM     33  C   UNL     1      34.319   7.356  43.210  0.00  0.00    +0.014 A 
ATOM     34  C   UNL     1      34.188   7.255  41.757  0.00  0.00    +0.002 A 
ATOM     35  C   UNL     1      34.496   8.417  40.913  0.00  0.00    -0.027 A 
ATOM     36  C   UNL     1      34.339   8.291  39.386  0.00  0.00    +0.093 C 
BRANCH   6   5
ATOM      4  C   UNL     1      35.366  11.940  40.225  0.00  0.00    -0.047 C 
ATOM      5  C   UNL     1      35.262  10.905  40.823  0.00  0.00    -0.077 C 
BRANCH   4   3
ATOM      1  N   UNL     1      34.545  14.995  38.535  0.00  0.00    -0.325 NA
ATOM      2  C   UNL     1      34.223  13.823  39.193  0.00  0.00    +0.056 A 
ATOM      3  C   UNL     1      35.352  13.143  39.549  0.00  0.00    +0.159 A 
ATOM     37  N   UNL     1      36.435  13.860  39.134  0.00  0.00    -0.119 N 
ATOM     38  N   UNL     1      37.765  13.524  39.294  0.00  0.00    -0.141 NA
ATOM     39  C   UNL     1      38.601  14.442  38.770  0.00  0.00    +0.149 A 
ATOM     40  C   UNL     1      38.189  15.670  38.102  0.00  0.00    +0.046 A 
ATOM     41  C   UNL     1      36.824  15.962  37.963  0.00  0.00    +0.080 A 
ATOM     42  C   UNL     1      35.865  15.031  38.497  0.00  0.00    +0.169 A 
ENDBRANCH   4   3
ENDBRANCH   6   5
ENDBRANCH   9   8
BRANCH  10  12
ATOM     12  C   UNL     1      34.685   7.709  47.491  0.00  0.00    +0.088 A 
ATOM     13  C   UNL     1      34.141   8.833  48.236  0.00  0.00    +0.045 A 
ATOM     14  C   UNL     1      33.992   8.831  49.656  0.00  0.00    +0.039 A 
ATOM     19  C   UNL     1      34.414   7.617  50.407  0.00  0.00    +0.025 A 
ATOM     30  C   UNL     1      34.957   6.491  49.658  0.00  0.00    +0.030 A 
ATOM     31  C   UNL     1      35.095   6.535  48.215  0.00  0.00    +0.062 A 
BRANCH  14  15
ATOM     15  C   UNL     1      33.408  10.107  50.306  0.00  0.00    +0.364 C 
ATOM     16  F   UNL     1      32.353   9.790  51.061  0.00  0.00    -0.229 F 
ATOM     17  F   UNL     1      32.970  10.991  49.412  0.00  0.00    -0.229 F 
ATOM     18  F   UNL     1      34.354  10.703  51.025  0.00  0.00    -0.229 F 
ENDBRANCH  14  15
BRANCH  19  20
ATOM     20  C   UNL     1      34.312   7.480  51.963  0.00  0.00    +0.222 C 
BRANCH  20  21
ATOM     21  N   UNL     1      35.382   6.687  52.587  0.00  0.00    +0.259 N 
ATOM     22  H   UNL     1      35.459   5.856  52.021  0.00  0.00    +0.206 HD
ATOM     23  C   UNL     1      35.035   6.199  53.975  0.00  0.00    +0.185 C 
ATOM     24  C   UNL     1      36.190   5.312  54.612  0.00  0.00    +0.183 C 
ATOM     25  N   UNL     1      37.570   5.944  54.446  0.00  0.00    +0.240 N 
ATOM     26  H   UNL     1      37.547   6.798  54.980  0.00  0.00    +0.203 HD
ATOM     27  C   UNL     1      38.669   5.144  55.012  0.00  0.00    +0.191 C 
ATOM     28  C   UNL     1      37.840   6.342  53.032  0.00  0.00    +0.183 C 
ATOM     29  C   UNL     1      36.740   7.336  52.528  0.00  0.00    +0.185 C 
ENDBRANCH  20  21
ENDBRANCH  19  20
ENDBRANCH  10  12
TORSDOF 7
