REMARK  Name = 4I23
REMARK  4 active torsions:
REMARK  status: ('A' for Active; 'I' for Inactive)
REMARK    1  A    between atoms: C_1  and  N_22
REMARK    2  A    between atoms: C_2  and  O_20
REMARK    3  A    between atoms: N_11  and  C_12
REMARK    4  A    between atoms: O_20  and  C_21
REMARK                            x       y       z     vdW  Elec       q    Type
REMARK                         _______ _______ _______ _____ _____    ______ ____
ROOT
ATOM      1  C   UNL     1       0.594 -51.503 -19.833  0.00  0.00    +0.068 A 
ATOM      5  C   UNL     1       0.585 -51.838 -21.217  0.00  0.00    +0.040 A 
ATOM      6  C   UNL     1      -0.211 -52.937 -21.726  0.00  0.00    +0.042 A 
ATOM      7  C   UNL     1      -0.289 -53.363 -23.099  0.00  0.00    +0.134 A 
ATOM      8  N   UNL     1       0.470 -52.661 -24.102  0.00  0.00    -0.299 N 
ATOM      9  H   UNL     1       1.256 -52.025 -23.752  0.00  0.00    +0.154 HD
ATOM     18  N   UNL     1      -1.084 -54.438 -23.482  0.00  0.00    -0.220 NA
ATOM     19  C   UNL     1      -1.786 -55.075 -22.515  0.00  0.00    +0.224 A 
ATOM     20  N   UNL     1      -1.789 -54.758 -21.195  0.00  0.00    -0.235 NA
ATOM     21  C   UNL     1      -1.014 -53.710 -20.806  0.00  0.00    +0.080 A 
ATOM     22  C   UNL     1      -0.998 -53.368 -19.447  0.00  0.00    +0.076 A 
ATOM     23  C   UNL     1      -0.212 -52.281 -18.938  0.00  0.00    +0.143 A 
ENDROOT
BRANCH   8  10
ATOM     10  C   UNL     1       0.281 -52.727 -25.511  0.00  0.00    +0.034 A 
ATOM     11  C   UNL     1       1.417 -52.855 -26.380  0.00  0.00    +0.026 A 
ATOM     12  C   UNL     1       1.240 -52.928 -27.790  0.00  0.00    +0.041 A 
ATOM     13  C   UNL     1      -0.073 -52.878 -28.339  0.00  0.00    +0.142 A 
ATOM     14  F   UNL     1      -0.227 -52.952 -29.672  0.00  0.00    -0.204 F 
ATOM     15  C   UNL     1      -1.208 -52.750 -27.495  0.00  0.00    +0.078 A 
ATOM     16 CL   UNL     1      -2.812 -52.689 -28.143  0.00  0.00    -0.081 Cl
ATOM     17  C   UNL     1      -1.027 -52.677 -26.095  0.00  0.00    +0.046 A 
ENDBRANCH   8  10
BRANCH   1   2
ATOM      2  N   UNL     1       1.385 -50.425 -19.370  0.00  0.00    -0.355 N 
ATOM      3  H   UNL     1       1.977 -49.861 -20.060  0.00  0.00    +0.142 HD
ATOM      4  H   UNL     1       1.391 -50.174 -18.330  0.00  0.00    +0.142 HD
ENDBRANCH   1   2
BRANCH  23  24
ATOM     24  O   UNL     1      -0.154 -51.900 -17.600  0.00  0.00    -0.493 OA
ATOM     25  C   UNL     1      -1.324 -52.084 -16.795  0.00  0.00    +0.277 C 
ENDBRANCH  23  24
TORSDOF 3
