REMARK  Name = 5AUT
REMARK  3 active torsions:
REMARK  status: ('A' for Active; 'I' for Inactive)
REMARK    1  A    between atoms: C_1  and  N_9
REMARK    2  A    between atoms: N_9  and  C_13
REMARK    3  A    between atoms: S_10  and  C_11
REMARK                            x       y       z     vdW  Elec       q    Type
REMARK                         _______ _______ _______ _____ _____    ______ ____
ROOT
ATOM      1  C   UNL     1     -22.838   2.183 -11.464  0.00  0.00    +0.041 A 
ATOM      2  C   UNL     1     -23.366   3.166 -10.586  0.00  0.00    +0.027 A 
ATOM      3  C   UNL     1     -22.769   3.677  -9.405  0.00  0.00    +0.086 A 
ATOM      8  C   UNL     1     -23.421   4.630  -8.636  0.00  0.00    +0.026 A 
ATOM      9  C   UNL     1     -24.673   5.124  -8.969  0.00  0.00    +0.002 A 
ATOM     10  C   UNL     1     -25.270   4.634 -10.114  0.00  0.00    +0.008 A 
ATOM     11  C   UNL     1     -24.632   3.690 -10.904  0.00  0.00    -0.014 A 
ATOM     12  C   UNL     1     -25.342   3.278 -12.016  0.00  0.00    +0.008 A 
ATOM     13  C   UNL     1     -24.819   2.333 -12.877  0.00  0.00    +0.002 A 
ATOM     22  C   UNL     1     -23.569   1.813 -12.596  0.00  0.00    +0.024 A 
ENDROOT
BRANCH   3   4
ATOM      4  S   UNL     1     -21.199   3.254  -8.728  0.00  0.00    -0.051 S 
ATOM      5  O   UNL     1     -20.832   4.325  -7.701  0.00  0.00    -0.180 OA
ATOM      6  O   UNL     1     -21.278   1.868  -8.063  0.00  0.00    -0.720 OA
ATOM      7  O   UNL     1     -20.209   3.265  -9.884  0.00  0.00    -0.180 OA
ENDBRANCH   3   4
BRANCH   1  14
ATOM     14  N   UNL     1     -21.615   1.635 -11.222  0.00  0.00    -0.314 N 
ATOM     15  H   UNL     1     -20.802   2.297 -11.007  0.00  0.00    +0.152 HD
BRANCH  14  16
ATOM     16  C   UNL     1     -21.359   0.285 -11.237  0.00  0.00    +0.031 A 
ATOM     17  C   UNL     1     -20.076  -0.137 -10.878  0.00  0.00    +0.023 A 
ATOM     18  C   UNL     1     -19.731  -1.496 -10.871  0.00  0.00    +0.002 A 
ATOM     19  C   UNL     1     -20.656  -2.472 -11.226  0.00  0.00    +0.000 A 
ATOM     20  C   UNL     1     -21.939  -2.080 -11.576  0.00  0.00    +0.002 A 
ATOM     21  C   UNL     1     -22.267  -0.725 -11.589  0.00  0.00    +0.023 A 
ENDBRANCH  14  16
ENDBRANCH   1  14
TORSDOF 3
