REMARK  Name = 2io6_ligand
REMARK  8 active torsions:
REMARK  status: ('A' for Active; 'I' for Inactive)
REMARK    1  A    between atoms: C2_2  and  C7_7
REMARK    2  A    between atoms: C8_8  and  O5_28
REMARK    3  A    between atoms: C19_19  and  O3_27
REMARK    4  A    between atoms: C21_21  and  C22_22
REMARK    5  A    between atoms: C21_21  and  N2_30
REMARK    6  A    between atoms: C22_22  and  C23_23
REMARK    7  A    between atoms: C23_23  and  O4_31
REMARK    8  A    between atoms: O5_28  and  C24_29
REMARK                            x       y       z     vdW  Elec       q    Type
REMARK                         _______ _______ _______ _____ _____    ______ ____
ROOT
ATOM      1  C   UNL     1       2.650  53.776  26.383  0.00  0.00    +0.031 A 
ATOM      2  C   UNL     1       3.569  54.038  25.346  0.00  0.00    +0.074 A 
ATOM      3  N   UNL     1       3.309  53.961  24.035  0.00  0.00    -0.262 N 
ATOM      9  C   UNL     1       4.475  54.305  23.337  0.00  0.00    +0.061 A 
ATOM     10  C   UNL     1       4.810  54.394  21.920  0.00  0.00    +0.007 A 
ATOM     11  C   UNL     1       6.170  54.838  21.635  0.00  0.00    +0.010 A 
ATOM     12  C   UNL     1       7.066  55.177  22.669  0.00  0.00    +0.075 A 
ATOM     15  C   UNL     1       6.747  55.088  24.013  0.00  0.00    +0.010 A 
ATOM     16  C   UNL     1       5.470  54.690  24.338  0.00  0.00    -0.007 A 
ATOM     17  C   UNL     1       4.853  54.467  25.565  0.00  0.00    +0.017 A 
ATOM     18  C   UNL     1       5.207  54.673  27.003  0.00  0.00    +0.066 A 
ATOM     19  C   UNL     1       6.459  55.065  27.668  0.00  0.00    +0.233 A 
ATOM     20  N   UNL     1       6.366  55.090  29.036  0.00  0.00    -0.201 N 
ATOM     21  H   UNL     1       7.065  55.377  29.691  0.00  0.00    +0.221 HD
ATOM     22  C   UNL     1       5.111  54.638  29.305  0.00  0.00    +0.228 A 
ATOM     23  O   UNL     1       4.641  54.502  30.478  0.00  0.00    -0.373 OA
ATOM     24  O   UNL     1       7.491  55.492  27.066  0.00  0.00    -0.368 OA
ATOM     25  C   UNL     1       4.269  54.368  28.104  0.00  0.00    +0.064 A 
ATOM     26  C   UNL     1       2.906  53.923  27.752  0.00  0.00    -0.009 A 
ENDROOT
BRANCH  26  27
ATOM     27  C   UNL     1       1.900  53.610  28.839  0.00  0.00    +0.014 A 
ATOM     28  C   UNL     1       1.268  52.369  29.004  0.00  0.00    -0.001 A 
ATOM     29  C   UNL     1       0.346  52.186  30.087  0.00  0.00    -0.019 A 
ATOM     30  C   UNL     1       0.127  53.219  31.007  0.00  0.00    -0.010 A 
ATOM     31  C   UNL     1       0.762  54.472  30.803  0.00  0.00    +0.024 A 
ATOM     32  C   UNL     1       1.659  54.646  29.726  0.00  0.00    +0.102 A 
BRANCH  32  33
ATOM     33  O   UNL     1       2.280  55.876  29.587  0.00  0.00    -0.318 OA
ATOM     34  C   UNL     1       1.928  56.916  30.574  0.00  0.00    +0.234 C 
ENDBRANCH  32  33
ENDBRANCH  26  27
BRANCH  12  13
ATOM     13  O   UNL     1       8.299  55.586  22.368  0.00  0.00    -0.341 OA
ATOM     14  H   UNL     1       8.774  55.774  23.169  0.00  0.00    +0.244 HD
ENDBRANCH  12  13
BRANCH   3   4
ATOM      4  C   UNL     1       2.029  53.465  23.534  0.00  0.00    +0.165 C 
BRANCH   4   5
ATOM      5  C   UNL     1       2.372  52.104  22.904  0.00  0.00    +0.057 C 
BRANCH   5   6
ATOM      6  C   UNL     1       1.696  50.951  23.662  0.00  0.00    +0.158 C 
BRANCH   6   7
ATOM      7  O   UNL     1       2.047  49.653  23.069  0.00  0.00    -0.395 OA
ATOM      8  H   UNL     1       1.618  48.958  23.554  0.00  0.00    +0.209 HD
ENDBRANCH   6   7
ENDBRANCH   5   6
ENDBRANCH   4   5
ENDBRANCH   3   4
TORSDOF 7
