REMARK  Name = 5oyf
REMARK  7 active torsions:
REMARK  status: ('A' for Active; 'I' for Inactive)
REMARK    1  A    between atoms: C1_1  and  C2_3
REMARK    2  A    between atoms: C7_9  and  C8_10
REMARK    3  A    between atoms: C11_13  and  C12_14
REMARK    4  A    between atoms: C12_14  and  N_28
REMARK    5  A    between atoms: C13_15  and  C14_16
REMARK    6  A    between atoms: C13_15  and  N_28
REMARK    7  A    between atoms: C14_16  and  C15_17
REMARK                            x       y       z     vdW  Elec       q    Type
REMARK                         _______ _______ _______ _____ _____    ______ ____
ROOT
ATOM      5  C   UNL     1    -107.203-180.522 312.899  0.00  0.00    -0.015 A 
ATOM      6  C   UNL     1    -107.606-179.184 312.690  0.00  0.00    -0.043 A 
ATOM      7  C   UNL     1    -106.622-178.045 312.618  0.00  0.00    +0.045 C 
ATOM      8  C   UNL     1    -108.962-178.907 312.543  0.00  0.00    +0.009 A 
ATOM      9  C   UNL     1    -109.934-179.899 312.602  0.00  0.00    -0.034 A 
ATOM     23  C   UNL     1    -109.520-181.210 312.800  0.00  0.00    +0.005 A 
ATOM     24  C   UNL     1    -108.177-181.523 312.947  0.00  0.00    +0.009 A 
ENDROOT
BRANCH   5   4
ATOM      3  C   UNL     1    -104.905-181.169 311.996  0.00  0.00    -0.040 A 
ATOM      4  C   UNL     1    -105.769-180.908 313.077  0.00  0.00    -0.015 A 
ATOM     25  C   UNL     1    -105.293-181.069 314.382  0.00  0.00    +0.009 A 
ATOM     26  C   UNL     1    -103.995-181.498 314.614  0.00  0.00    +0.001 A 
ATOM     27  C   UNL     1    -103.159-181.779 313.553  0.00  0.00    +0.000 A 
ATOM     28  C   UNL     1    -103.609-181.617 312.254  0.00  0.00    +0.004 A 
BRANCH   3   1
ATOM      1  C   UNL     1    -105.365-180.964 310.567  0.00  0.00    +0.033 C 
ATOM      2  C   UNL     1    -104.434-180.189 309.631  0.00  0.00    +0.009 C 
ENDBRANCH   3   1
ENDBRANCH   5   4
BRANCH   9  10
ATOM     10  C   UNL     1    -111.400-179.552 312.498  0.00  0.00    +0.116 C 
BRANCH  10  11
ATOM     11  N   UNL     1    -112.131-180.397 311.546  0.00  0.00    -0.190 NA
BRANCH  11  12
ATOM     12  C   UNL     1    -113.569-180.113 311.505  0.00  0.00    +0.089 C 
BRANCH  12  13
ATOM     13  C   UNL     1    -114.134-180.983 310.399  0.00  0.00    +0.090 C 
BRANCH  13  14
ATOM     14  C   UNL     1    -115.608-181.195 310.496  0.00  0.00    +0.108 A 
ATOM     15  N   UNL     1    -116.241-182.243 310.002  0.00  0.00    -0.174 NA
ATOM     16  C   UNL     1    -117.594-181.966 310.186  0.00  0.00    +0.066 A 
ATOM     17  C   UNL     1    -118.729-182.683 309.805  0.00  0.00    +0.028 A 
ATOM     18  C   UNL     1    -119.982-182.145 310.066  0.00  0.00    +0.002 A 
ATOM     19  C   UNL     1    -120.111-180.908 310.704  0.00  0.00    +0.002 A 
ATOM     20  C   UNL     1    -118.988-180.190 311.093  0.00  0.00    +0.030 A 
ATOM     21  C   UNL     1    -117.736-180.733 310.821  0.00  0.00    +0.089 A 
ATOM     22  N   UNL     1    -116.448-180.268 311.013  0.00  0.00    -0.233 NA
ENDBRANCH  13  14
ENDBRANCH  12  13
ENDBRANCH  11  12
ENDBRANCH  10  11
ENDBRANCH   9  10
TORSDOF 7
