REMARK  Name = 4ezl_ligand
REMARK  7 active torsions:
REMARK  status: ('A' for Active; 'I' for Inactive)
REMARK    1  A    between atoms: C1_1  and  C2_2
REMARK    2  A    between atoms: C2_2  and  C3_3
REMARK    3  A    between atoms: C2_2  and  C4_4
REMARK    4  A    between atoms: C2_2  and  O34_34
REMARK    5  A    between atoms: N7_7  and  C10_10
REMARK    6  A    between atoms: C10_10  and  C11_11
REMARK    7  A    between atoms: C19_19  and  C21_21
REMARK                            x       y       z     vdW  Elec       q    Type
REMARK                         _______ _______ _______ _____ _____    ______ ____
ROOT
ATOM     11  C   UNL     1      18.468  -1.394  21.483  0.00  0.00    +0.079 A 
ATOM     12  N   UNL     1      18.709  -2.611  21.910  0.00  0.00    -0.278 NA
ATOM     13  C   UNL     1      19.884  -3.207  21.729  0.00  0.00    +0.110 A 
ATOM     14  C   UNL     1      20.150  -4.568  22.204  0.00  0.00    +0.156 A 
ATOM     15  N   UNL     1      19.189  -5.288  22.894  0.00  0.00    -0.274 N 
ATOM     16  C   UNL     1      17.990  -5.675  22.138  0.00  0.00    +0.171 C 
ATOM     17  C   UNL     1      16.882  -5.975  23.152  0.00  0.00    +0.185 C 
ATOM     18  O   UNL     1      17.434  -6.511  24.362  0.00  0.00    -0.376 OA
ATOM     19  C   UNL     1      18.630  -7.281  24.204  0.00  0.00    +0.185 C 
ATOM     20  C   UNL     1      19.761  -6.418  23.637  0.00  0.00    +0.171 C 
ATOM     21  N   UNL     1      21.362  -5.068  21.982  0.00  0.00    -0.249 NA
ATOM     22  C   UNL     1      22.295  -4.372  21.330  0.00  0.00    +0.105 A 
ATOM     32  N   UNL     1      22.099  -3.148  20.884  0.00  0.00    -0.287 NA
ATOM     33  C   UNL     1      20.927  -2.530  21.055  0.00  0.00    +0.062 A 
ATOM     34  C   UNL     1      20.693  -1.225  20.589  0.00  0.00    +0.051 A 
ATOM     35  C   UNL     1      19.465  -0.668  20.823  0.00  0.00    +0.054 A 
ENDROOT
BRANCH  22  23
ATOM     23  C   UNL     1      23.636  -4.966  21.096  0.00  0.00    +0.055 A 
ATOM     24  C   UNL     1      24.176  -5.928  21.959  0.00  0.00    +0.125 A 
ATOM     25  N   UNL     1      25.380  -6.415  21.701  0.00  0.00    -0.247 NA
ATOM     26  C   UNL     1      26.069  -6.004  20.642  0.00  0.00    +0.196 A 
ATOM     27  N   UNL     1      27.323  -6.537  20.404  0.00  0.00    -0.300 N 
ATOM     28  H   UNL     1      27.712  -7.244  21.044  0.00  0.00    +0.185 HD
ATOM     29  H   UNL     1      27.868  -6.227  19.587  0.00  0.00    +0.185 HD
ATOM     30  N   UNL     1      25.590  -5.093  19.804  0.00  0.00    -0.247 NA
ATOM     31  C   UNL     1      24.397  -4.558  19.994  0.00  0.00    +0.125 A 
ENDBRANCH  22  23
BRANCH  11  10
ATOM     10  C   UNL     1      17.095  -0.799  21.746  0.00  0.00    +0.224 C 
BRANCH  10   8
ATOM      5  C   UNL     1      15.121   0.445  18.151  0.00  0.00    +0.030 C 
ATOM      6  C   UNL     1      14.744   1.172  19.458  0.00  0.00    +0.057 C 
ATOM      7  C   UNL     1      15.161   0.368  20.707  0.00  0.00    +0.133 C 
ATOM      8  N   UNL     1      16.540  -0.126  20.561  0.00  0.00    +0.250 N 
ATOM      9  H   UNL     1      17.122   0.680  20.395  0.00  0.00    +0.205 HD
ATOM     36  C   UNL     1      16.615  -0.974  19.378  0.00  0.00    +0.133 C 
ATOM     37  C   UNL     1      16.578  -0.002  18.212  0.00  0.00    +0.057 C 
BRANCH   5   2
ATOM      1  C   UNL     1      15.540   2.706  17.127  0.00  0.00    +0.041 C 
ATOM      2  C   UNL     1      14.925   1.321  16.908  0.00  0.00    +0.064 C 
ATOM     38  C   UNL     1      15.612   0.658  15.709  0.00  0.00    +0.041 C 
BRANCH   2   3
ATOM      3  O   UNL     1      13.528   1.441  16.636  0.00  0.00    -0.389 OA
ATOM      4  H   UNL     1      13.097   1.852  17.376  0.00  0.00    +0.210 HD
ENDBRANCH   2   3
ENDBRANCH   5   2
ENDBRANCH  10   8
ENDBRANCH  11  10
TORSDOF 5
