REMARK  Name = 4YJQ
REMARK  8 active torsions:
REMARK  status: ('A' for Active; 'I' for Inactive)
REMARK    1  A    between atoms: C_1  and  C_2
REMARK    2  A    between atoms: C_6  and  C_7
REMARK    3  A    between atoms: C_11  and  N_12
REMARK    4  A    between atoms: N_19  and  C_20
REMARK    5  A    between atoms: N_19  and  C_24
REMARK    6  A    between atoms: C_20  and  C_21
REMARK    7  A    between atoms: C_21  and  C_22
REMARK    8  A    between atoms: C_22  and  O_23
REMARK                            x       y       z     vdW  Elec       q    Type
REMARK                         _______ _______ _______ _____ _____    ______ ____
ROOT
ATOM      7  N   UNL     1      34.879  39.895  34.375  0.00  0.00    -0.284 N 
ATOM      8  H   UNL     1      34.898  40.032  35.375  0.00  0.00    +0.155 HD
ATOM      9  C   UNL     1      33.705  39.379  33.910  0.00  0.00    +0.221 A 
ATOM     10  N   UNL     1      33.644  38.832  32.694  0.00  0.00    -0.199 NA
ATOM     11  C   UNL     1      32.451  38.367  32.302  0.00  0.00    +0.131 A 
ATOM     12  N   UNL     1      32.370  37.848  31.007  0.00  0.00    -0.284 N 
ATOM     28  C   UNL     1      31.336  38.378  33.133  0.00  0.00    +0.064 A 
ATOM     29  C   UNL     1      31.511  38.973  34.356  0.00  0.00    +0.118 A 
ATOM     30  N   UNL     1      32.680  39.486  34.775  0.00  0.00    -0.223 NA
ENDROOT
BRANCH  12  13
ATOM     13  C   UNL     1      31.173  37.323  30.447  0.00  0.00    +0.046 A 
ATOM     14  C   UNL     1      30.741  36.037  30.838  0.00  0.00    +0.041 A 
ATOM     15  C   UNL     1      31.137  35.050  31.765  0.00  0.00    +0.144 A 
ATOM     16  N   UNL     1      30.347  33.997  31.714  0.00  0.00    -0.181 NA
ATOM     17  N   UNL     1      29.406  34.282  30.771  0.00  0.00    -0.277 N 
ATOM     18  H   UNL     1      28.620  33.684  30.576  0.00  0.00    +0.189 HD
ATOM     19  C   UNL     1      29.600  35.509  30.222  0.00  0.00    +0.068 A 
ATOM     20  C   UNL     1      28.886  36.203  29.255  0.00  0.00    +0.028 A 
ATOM     21  C   UNL     1      29.328  37.462  28.903  0.00  0.00    +0.004 A 
ATOM     22  C   UNL     1      30.434  38.034  29.509  0.00  0.00    +0.024 A 
ENDBRANCH  12  13
BRANCH   7   6
ATOM      4  C   UNL     1      37.853  39.414  32.150  0.00  0.00    +0.021 A 
ATOM      5  C   UNL     1      36.562  39.267  32.665  0.00  0.00    +0.035 A 
ATOM      6  C   UNL     1      36.161  39.989  33.783  0.00  0.00    +0.034 A 
ATOM     31  C   UNL     1      37.063  40.856  34.396  0.00  0.00    +0.023 A 
ATOM     32  C   UNL     1      38.353  40.980  33.900  0.00  0.00    +0.003 A 
ATOM     33  C   UNL     1      38.744  40.266  32.787  0.00  0.00    +0.012 A 
BRANCH   4   3
ATOM      1  C   UNL     1      40.808  38.115  31.214  0.00  0.00    +0.069 C 
ATOM      2  C   UNL     1      39.449  38.085  30.586  0.00  0.00    +0.084 A 
ATOM      3  C   UNL     1      38.290  38.628  30.997  0.00  0.00    +0.158 A 
ATOM     34  O   UNL     1      37.328  38.297  30.091  0.00  0.00    -0.442 OA
ATOM     35  C   UNL     1      37.992  37.563  29.164  0.00  0.00    +0.308 A 
ATOM     36  N   UNL     1      39.243  37.395  29.403  0.00  0.00    -0.221 NA
ENDBRANCH   4   3
ENDBRANCH   7   6
BRANCH  12  23
ATOM     23  C   UNL     1      33.561  37.822  30.133  0.00  0.00    +0.114 C 
BRANCH  23  24
ATOM     24  C   UNL     1      34.199  36.446  30.022  0.00  0.00    +0.047 C 
BRANCH  24  25
ATOM     25  C   UNL     1      34.897  36.008  31.271  0.00  0.00    +0.157 C 
BRANCH  25  26
ATOM     26  O   UNL     1      35.539  34.652  31.203  0.00  0.00    -0.395 OA
ATOM     27  H   UNL     1      34.922  34.012  30.814  0.00  0.00    +0.209 HD
ENDBRANCH  25  26
ENDBRANCH  24  25
ENDBRANCH  23  24
ENDBRANCH  12  23
TORSDOF 7
