REMARK  Name = 3QRU
REMARK  7 active torsions:
REMARK  status: ('A' for Active; 'I' for Inactive)
REMARK    1  A    between atoms: N_3  and  C_13
REMARK    2  A    between atoms: C_6  and  C_12
REMARK    3  A    between atoms: C_9  and  C_11
REMARK    4  A    between atoms: C_11  and  C_14
REMARK    5  A    between atoms: C_11  and  C_15
REMARK    6  A    between atoms: C_11  and  C_16
REMARK    7  A    between atoms: C_16  and  C_17
REMARK                            x       y       z     vdW  Elec       q    Type
REMARK                         _______ _______ _______ _____ _____    ______ ____
ROOT
ATOM      1  N   UNL     1     -51.604 104.440 -64.199  0.00  0.00    -0.169 NA
ATOM      2  C   UNL     1     -51.654 103.231 -63.627  0.00  0.00    +0.150 A 
ATOM      8  C   UNL     1     -52.700 103.211 -62.670  0.00  0.00    +0.006 A 
ATOM      9  C   UNL     1     -53.163 102.095 -61.750  0.00  0.00    +0.043 C 
ATOM     10  C   UNL     1     -54.623 102.323 -61.267  0.00  0.00    -0.000 C 
ATOM     16  C   UNL     1     -54.737 103.785 -60.693  0.00  0.00    +0.010 C 
ATOM     17  C   UNL     1     -54.465 104.871 -61.794  0.00  0.00    +0.055 C 
ATOM     18  C   UNL     1     -53.293 104.479 -62.686  0.00  0.00    +0.040 A 
ATOM     19  N   UNL     1     -52.594 105.181 -63.623  0.00  0.00    -0.281 N 
ATOM     20  H   UNL     1     -52.799 106.200 -63.878  0.00  0.00    +0.189 HD
ENDROOT
BRANCH   2   3
ATOM      3  C   UNL     1     -50.763 102.061 -63.923  0.00  0.00    +0.264 C 
ATOM      4  O   UNL     1     -50.849 100.976 -63.366  0.00  0.00    -0.269 OA
ATOM      5  N   UNL     1     -49.830 102.302 -64.881  0.00  0.00    -0.313 N 
ATOM      6  H   UNL     1     -49.791 103.268 -65.340  0.00  0.00    +0.149 HD
ATOM      7  C   UNL     1     -48.872 101.266 -65.302  0.00  0.00    +0.128 C 
ENDBRANCH   2   3
BRANCH  10  11
ATOM     11  C   UNL     1     -55.145 101.180 -60.274  0.00  0.00    -0.032 C 
ATOM     14  C   UNL     1     -54.910  99.761 -60.877  0.00  0.00    +0.011 C 
ATOM     15  C   UNL     1     -54.414 101.222 -58.898  0.00  0.00    +0.011 C 
BRANCH  11  12
ATOM     12  C   UNL     1     -56.696 101.383 -60.107  0.00  0.00    +0.003 C 
ATOM     13  C   UNL     1     -57.481 100.400 -59.210  0.00  0.00    +0.004 C 
ENDBRANCH  11  12
ENDBRANCH  10  11
TORSDOF 3
