REMARK  Name = 3eoc_ligand
REMARK  9 active torsions:
REMARK  status: ('A' for Active; 'I' for Inactive)
REMARK    1  A    between atoms: C7_4  and  C16_19
REMARK    2  A    between atoms: C10_5  and  C9_15
REMARK    3  A    between atoms: C20_8  and  O28_28
REMARK    4  A    between atoms: C21_9  and  O26_26
REMARK    5  A    between atoms: C22_10  and  O24_24
REMARK    6  A    between atoms: N17_20  and  C18_21
REMARK    7  A    between atoms: O24_24  and  C25_25
REMARK    8  A    between atoms: O26_26  and  C27_27
REMARK    9  A    between atoms: O28_28  and  C29_29
REMARK                            x       y       z     vdW  Elec       q    Type
REMARK                         _______ _______ _______ _____ _____    ______ ____
ROOT
ATOM      1  N   UNL     1       0.051  91.805  30.514  0.00  0.00    -0.146 N 
ATOM      2  C   UNL     1      -0.026  90.935  29.504  0.00  0.00    +0.162 A 
ATOM      3  N   UNL     1       0.358  89.770  30.029  0.00  0.00    -0.311 NA
ATOM      4  C   UNL     1       0.680  89.905  31.365  0.00  0.00    +0.023 A 
ATOM      5  C   UNL     1       1.131  88.759  32.147  0.00  0.00    +0.081 C 
ATOM     12  N   UNL     1      -0.253  93.224  30.507  0.00  0.00    -0.144 NA
ATOM     13  C   UNL     1      -0.071  93.826  31.692  0.00  0.00    +0.216 A 
ATOM     14  N   UNL     1      -0.329  95.202  31.821  0.00  0.00    -0.255 N 
ATOM     15  H   UNL     1      -0.221  95.602  32.764  0.00  0.00    +0.212 HD
ATOM     28  N   UNL     1       0.352  93.235  32.820  0.00  0.00    -0.248 NA
ATOM     29  C   UNL     1       0.636  91.928  32.849  0.00  0.00    +0.165 A 
ATOM     30  C   UNL     1       0.475  91.227  31.681  0.00  0.00    +0.142 A 
ENDROOT
BRANCH   2   6
ATOM      6  C   UNL     1      -0.408  91.164  28.097  0.00  0.00    +0.023 A 
ATOM      7  C   UNL     1       0.512  90.852  27.119  0.00  0.00    +0.010 A 
ATOM      8  C   UNL     1       0.194  91.059  25.796  0.00  0.00    -0.001 A 
ATOM      9  C   UNL     1      -1.043  91.573  25.470  0.00  0.00    -0.003 A 
ATOM     10  C   UNL     1      -1.958  91.880  26.455  0.00  0.00    -0.001 A 
ATOM     11  C   UNL     1      -1.645  91.678  27.782  0.00  0.00    +0.010 A 
ENDBRANCH   2   6
BRANCH  14  16
ATOM     16  C   UNL     1      -0.718  96.094  30.804  0.00  0.00    +0.036 A 
ATOM     17  C   UNL     1      -1.592  97.109  31.127  0.00  0.00    +0.005 A 
ATOM     18  C   UNL     1      -2.009  98.021  30.179  0.00  0.00    +0.102 A 
ATOM     21  C   UNL     1      -1.544  97.924  28.883  0.00  0.00    +0.135 A 
ATOM     24  C   UNL     1      -0.670  96.913  28.548  0.00  0.00    +0.102 A 
ATOM     27  C   UNL     1      -0.256  96.009  29.507  0.00  0.00    +0.005 A 
BRANCH  18  19
ATOM     19  O   UNL     1      -2.896  99.040  30.504  0.00  0.00    -0.331 OA
ATOM     20  C   UNL     1      -2.707  99.369  31.875  0.00  0.00    +0.228 C 
ENDBRANCH  18  19
BRANCH  21  22
ATOM     22  O   UNL     1      -1.956  98.826  27.915  0.00  0.00    -0.337 OA
ATOM     23  C   UNL     1      -1.053  99.923  27.970  0.00  0.00    +0.221 C 
ENDBRANCH  21  22
BRANCH  24  25
ATOM     25  O   UNL     1      -0.211  96.835  27.244  0.00  0.00    -0.331 OA
ATOM     26  C   UNL     1       0.261  95.509  27.046  0.00  0.00    +0.228 C 
ENDBRANCH  24  25
ENDBRANCH  14  16
TORSDOF 5
