REMARK  Name = 3qcy_ligand
REMARK  4 active torsions:
REMARK  status: ('A' for Active; 'I' for Inactive)
REMARK    1  A    between atoms: C11_11  and  C14_14
REMARK    2  A    between atoms: C13_13  and  N30_30
REMARK    3  A    between atoms: C16_16  and  N28_28
REMARK    4  A    between atoms: C18_18  and  C22_22
REMARK                            x       y       z     vdW  Elec       q    Type
REMARK                         _______ _______ _______ _____ _____    ______ ____
ROOT
ATOM      9  C   UNL     1     -46.748  22.430  11.122  0.00  0.00    +0.260 C 
ATOM     10  O   UNL     1     -45.931  23.179  12.030  0.00  0.00    -0.352 OA
ATOM     11  C   UNL     1     -44.655  22.554  12.217  0.00  0.00    +0.188 C 
ATOM     12  C   UNL     1     -44.846  21.160  12.785  0.00  0.00    +0.165 C 
ATOM     13  N   UNL     1     -45.622  20.530  11.746  0.00  0.00    -0.283 N 
ATOM     14  C   UNL     1     -45.434  19.138  11.573  0.00  0.00    +0.114 A 
ATOM     15  N   UNL     1     -46.380  18.427  10.952  0.00  0.00    -0.245 NA
ATOM     16  C   UNL     1     -46.152  17.123  10.769  0.00  0.00    +0.167 A 
ATOM     17  N   UNL     1     -47.156  16.390  10.126  0.00  0.00    -0.307 N 
ATOM     18  H   UNL     1     -48.020  16.859   9.819  0.00  0.00    +0.182 HD
ATOM     19  H   UNL     1     -47.031  15.381   9.960  0.00  0.00    +0.182 HD
ATOM     20  N   UNL     1     -45.039  16.483  11.152  0.00  0.00    -0.271 NA
ATOM     21  C   UNL     1     -44.098  17.208  11.762  0.00  0.00    +0.038 A 
ATOM     35  C   UNL     1     -44.255  18.557  11.989  0.00  0.00    +0.054 A 
ATOM     36  C   UNL     1     -46.982  21.028  11.666  0.00  0.00    +0.191 C 
ENDROOT
BRANCH  21  22
ATOM     22  C   UNL     1     -42.903  16.471  12.135  0.00  0.00    -0.001 A 
ATOM     23  C   UNL     1     -42.860  15.118  11.870  0.00  0.00    +0.012 A 
ATOM     24  C   UNL     1     -41.695  14.470  12.210  0.00  0.00    -0.048 A 
ATOM     25  N   UNL     1     -41.344  13.156  12.067  0.00  0.00    -0.440 NA
ATOM     26  N   UNL     1     -40.102  12.873  12.490  0.00  0.00    -0.255 N 
ATOM     27  H   UNL     1     -39.621  11.962  12.478  0.00  0.00    +0.254 HD
ATOM     28  C   UNL     1     -39.633  14.045  12.931  0.00  0.00    +0.241 A 
ATOM     32  C   UNL     1     -40.595  15.082  12.769  0.00  0.00    +0.079 A 
ATOM     33  C   UNL     1     -40.646  16.443  13.032  0.00  0.00    +0.030 A 
ATOM     34  C   UNL     1     -41.816  17.099  12.706  0.00  0.00    +0.018 A 
BRANCH  28  29
ATOM     29  N   UNL     1     -38.394  14.251  13.461  0.00  0.00    -0.261 N 
ATOM     30  H   UNL     1     -37.733  13.465  13.547  0.00  0.00    +0.210 HD
ATOM     31  H   UNL     1     -38.118  15.192  13.776  0.00  0.00    +0.210 HD
ENDBRANCH  28  29
ENDBRANCH  21  22
BRANCH   9   7
ATOM      5  N   UNL     1     -48.590  23.139   9.806  0.00  0.00    -0.232 N 
ATOM      6  H   UNL     1     -48.093  22.694   9.061  0.00  0.00    +0.226 HD
ATOM      7  C   UNL     1     -48.039  23.191  11.065  0.00  0.00    +0.235 C 
ATOM      8  O   UNL     1     -48.512  23.779  12.028  0.00  0.00    -0.382 OA
BRANCH   5   4
ATOM      1  C   UNL     1     -52.313  24.814   9.086  0.00  0.00    -0.029 A 
ATOM      2  C   UNL     1     -51.451  25.418   9.973  0.00  0.00    -0.018 A 
ATOM      3  C   UNL     1     -50.216  24.864  10.212  0.00  0.00    +0.009 A 
ATOM      4  C   UNL     1     -49.846  23.708   9.566  0.00  0.00    +0.066 A 
ATOM     37  C   UNL     1     -50.703  23.103   8.679  0.00  0.00    +0.009 A 
ATOM     38  C   UNL     1     -51.938  23.658   8.439  0.00  0.00    -0.018 A 
ENDBRANCH   5   4
ENDBRANCH   9   7
TORSDOF 4
