REMARK  Name = 2c6k_ligand
REMARK  5 active torsions:
REMARK  status: ('A' for Active; 'I' for Inactive)
REMARK    1  A    between atoms: S1_2  and  N6_4
REMARK    2  A    between atoms: S1_2  and  C16_5
REMARK    3  A    between atoms: C13_8  and  N5_11
REMARK    4  A    between atoms: N5_11  and  C9_12
REMARK    5  A    between atoms: N7_21  and  C1_22
REMARK                            x       y       z     vdW  Elec       q    Type
REMARK                         _______ _______ _______ _____ _____    ______ ____
ROOT
ATOM      9  C   UNL     1      11.719 -10.432  11.629  0.00  0.00    +0.242 A 
ATOM     10  C   UNL     1      12.245  -9.742  10.518  0.00  0.00    +0.087 A 
ATOM     11  C   UNL     1      13.366  -8.913  10.718  0.00  0.00    +0.094 A 
ATOM     12  N   UNL     1      13.963  -8.245   9.675  0.00  0.00    -0.301 N 
ATOM     13  H   UNL     1      14.963  -8.008   9.746  0.00  0.00    +0.185 HD
ATOM     20  N   UNL     1      13.908  -8.823  11.953  0.00  0.00    -0.274 NA
ATOM     21  C   UNL     1      13.394  -9.550  12.972  0.00  0.00    +0.205 A 
ATOM     22  N   UNL     1      13.770  -9.582  14.246  0.00  0.00    -0.308 NA
ATOM     23  C   UNL     1      12.908 -10.424  14.891  0.00  0.00    +0.124 A 
ATOM     24  N   UNL     1      12.018 -10.872  13.978  0.00  0.00    -0.186 NA
ATOM     25  N   UNL     1      12.324 -10.299  12.820  0.00  0.00    -0.088 N 
ENDROOT
BRANCH  12  14
ATOM     14  C   UNL     1      13.234  -7.860   8.473  0.00  0.00    +0.097 C 
ATOM     15  C   UNL     1      14.057  -6.727   7.863  0.00  0.00    +0.028 C 
ATOM     16  C   UNL     1      13.494  -6.368   6.491  0.00  0.00    +0.002 C 
ATOM     17  C   UNL     1      13.555  -7.590   5.579  0.00  0.00    +0.000 C 
ATOM     18  C   UNL     1      12.735  -8.723   6.190  0.00  0.00    +0.002 C 
ATOM     19  C   UNL     1      13.301  -9.080   7.562  0.00  0.00    +0.028 C 
ENDBRANCH  12  14
BRANCH   9   7
ATOM      7  N   UNL     1      10.632 -11.255  11.514  0.00  0.00    -0.223 N 
ATOM      8  H   UNL     1      10.488 -11.995  12.216  0.00  0.00    +0.226 HD
BRANCH   7   6
ATOM      3  C   UNL     1       7.848 -10.885   8.468  0.00  0.00    +0.097 A 
ATOM      4  C   UNL     1       8.490  -9.739   8.960  0.00  0.00    +0.016 A 
ATOM      5  C   UNL     1       9.424  -9.854   9.988  0.00  0.00    +0.019 A 
ATOM      6  C   UNL     1       9.740 -11.125  10.504  0.00  0.00    +0.071 A 
ATOM     26  C   UNL     1       9.090 -12.259  10.012  0.00  0.00    +0.019 A 
ATOM     27  C   UNL     1       8.150 -12.135   8.994  0.00  0.00    +0.016 A 
BRANCH   3   2
ATOM      1  O   UNL     1       6.240 -12.047   6.859  0.00  0.00    -0.152 OA
ATOM      2  S   UNL     1       6.656 -10.751   7.171  0.00  0.00    +0.061 S 
ATOM     31  O   UNL     1       5.604  -9.993   7.648  0.00  0.00    -0.152 OA
BRANCH   2  28
ATOM     28  N   UNL     1       7.348 -10.078   5.965  0.00  0.00    -0.262 NA
ATOM     29  H   UNL     1       7.017  -9.197   5.626  0.00  0.00    +0.163 HD
ATOM     30  H   UNL     1       8.127 -10.523   5.523  0.00  0.00    +0.163 HD
ENDBRANCH   2  28
ENDBRANCH   3   2
ENDBRANCH   7   6
ENDBRANCH   9   7
TORSDOF 5
