REMARK  Name = 4D9U
REMARK  16 active torsions:
REMARK  status: ('A' for Active; 'I' for Inactive)
REMARK    1  A    between atoms: N_1  and  C_2
REMARK    2  A    between atoms: N_5  and  C_6
REMARK    3  A    between atoms: C_6  and  C_7
REMARK    4  A    between atoms: C_7  and  C_8
REMARK    5  A    between atoms: C_8  and  O_9
REMARK    6  A    between atoms: C_10  and  C_11
REMARK    7  A    between atoms: C_11  and  C_12
REMARK    8  A    between atoms: C_12  and  C_13
REMARK    9  A    between atoms: C_12  and  C_20
REMARK   10  A    between atoms: C_13  and  O_14
REMARK   11  A    between atoms: O_14  and  C_15
REMARK   12  A    between atoms: C_15  and  C_16
REMARK   13  A    between atoms: C_15  and  C_17
REMARK   14  A    between atoms: C_15  and  C_18
REMARK   15  A    between atoms: C_22  and  C_23
REMARK   16  A    between atoms: C_26  and  C_27
REMARK                            x       y       z     vdW  Elec       q    Type
REMARK                         _______ _______ _______ _____ _____    ______ ____
ROOT
ATOM      4  C   UNL     1     -33.538  14.796 -21.081  0.00  0.00    +0.129 A 
ATOM      5  N   UNL     1     -34.175  15.349 -22.189  0.00  0.00    -0.220 NA
ATOM      6  C   UNL     1     -33.766  14.899 -23.405  0.00  0.00    +0.225 A 
ATOM      7  N   UNL     1     -32.822  13.976 -23.666  0.00  0.00    -0.218 NA
ATOM      8  C   UNL     1     -32.216  13.443 -22.529  0.00  0.00    +0.146 A 
ATOM      9  N   UNL     1     -31.201  12.462 -22.575  0.00  0.00    -0.328 N 
ATOM     10  C   UNL     1     -30.863  12.189 -21.204  0.00  0.00    +0.031 A 
ATOM     11  C   UNL     1     -31.610  13.011 -20.349  0.00  0.00    +0.016 A 
ATOM     35  C   UNL     1     -32.512  13.800 -21.172  0.00  0.00    +0.066 A 
ENDROOT
BRANCH  11  12
ATOM     12  C   UNL     1     -31.486  12.917 -18.856  0.00  0.00    -0.015 A 
ATOM     13  C   UNL     1     -32.401  12.163 -18.104  0.00  0.00    +0.009 A 
ATOM     14  C   UNL     1     -32.290  12.009 -16.722  0.00  0.00    +0.004 A 
ATOM     15  C   UNL     1     -31.244  12.582 -16.002  0.00  0.00    -0.050 A 
ATOM     16  C   UNL     1     -31.185  12.374 -14.520  0.00  0.00    +0.044 C 
ATOM     17  C   UNL     1     -30.315  13.318 -16.728  0.00  0.00    +0.004 A 
ATOM     18  C   UNL     1     -30.433  13.475 -18.113  0.00  0.00    +0.009 A 
ENDBRANCH  11  12
BRANCH   4   1
ATOM      1  N   UNL     1     -33.962  15.310 -19.882  0.00  0.00    -0.343 N 
ATOM      2  H   UNL     1     -34.732  16.053 -19.861  0.00  0.00    +0.144 HD
ATOM      3  H   UNL     1     -33.523  14.968 -18.968  0.00  0.00    +0.144 HD
ENDBRANCH   4   1
BRANCH  10  19
ATOM     19  C   UNL     1     -29.838  11.232 -20.598  0.00  0.00    +0.083 C 
BRANCH  19  20
ATOM     20  C   UNL     1     -28.542  11.224 -21.487  0.00  0.00    +0.205 C 
BRANCH  20  21
ATOM     21  C   UNL     1     -27.896  12.512 -21.333  0.00  0.00    +0.078 C 
ATOM     22  N   UNL     1     -27.441  13.558 -21.198  0.00  0.00    -0.196 NA
ENDBRANCH  20  21
BRANCH  20  23
ATOM     23  C   UNL     1     -27.447  10.169 -21.164  0.00  0.00    +0.325 C 
ATOM     24  O   UNL     1     -26.333  10.514 -20.779  0.00  0.00    -0.249 OA
BRANCH  23  25
ATOM     25  O   UNL     1     -27.759   8.851 -21.320  0.00  0.00    -0.458 OA
BRANCH  25  26
ATOM     26  C   UNL     1     -26.852   7.764 -21.060  0.00  0.00    +0.105 C 
ATOM     27  C   UNL     1     -26.184   7.909 -19.694  0.00  0.00    +0.055 C 
ATOM     28  C   UNL     1     -27.601   6.437 -21.166  0.00  0.00    +0.055 C 
ATOM     29  C   UNL     1     -25.713   7.768 -22.101  0.00  0.00    +0.055 C 
ENDBRANCH  25  26
ENDBRANCH  23  25
ENDBRANCH  20  23
ENDBRANCH  19  20
ENDBRANCH  10  19
BRANCH   9  30
ATOM     30  C   UNL     1     -30.741  11.990 -23.928  0.00  0.00    +0.126 C 
BRANCH  30  31
ATOM     31  C   UNL     1     -29.717  12.849 -24.741  0.00  0.00    +0.049 C 
BRANCH  31  32
ATOM     32  C   UNL     1     -29.221  12.008 -25.960  0.00  0.00    +0.157 C 
BRANCH  32  33
ATOM     33  O   UNL     1     -28.540  10.843 -25.582  0.00  0.00    -0.395 OA
ATOM     34  H   UNL     1     -27.698  11.099 -25.009  0.00  0.00    +0.209 HD
ENDBRANCH  32  33
ENDBRANCH  31  32
ENDBRANCH  30  31
ENDBRANCH   9  30
TORSDOF 12
