REMARK  Name = IZZ
REMARK  4 active torsions:
REMARK  status: ('A' for Active; 'I' for Inactive)
REMARK    1  A    between atoms: CAT_2  and  CAM_3
REMARK    2  A    between atoms: CAM_3  and  CAO_4
REMARK    3  A    between atoms: CAM_3  and  NAJ_7
REMARK    4  A    between atoms: CAB_16  and  CAH_17
REMARK                            x       y       z     vdW  Elec       q    Type
REMARK                         _______ _______ _______ _____ _____    ______ ____
ROOT
ATOM      7  N   VAL A   1     -13.086  12.731 -11.661  0.00  0.00    -0.218 NA
ATOM      8  C   UNK A   0     -13.352  11.883 -12.703  0.00  0.00    +0.168 A 
ATOM      9  N   UNK A   0     -12.445  10.964 -13.095  0.00  0.00    -0.147 NA
ATOM     10  N   UNK A   0     -12.674  10.156 -14.054  0.00  0.00    -0.209 N 
ATOM     11  C   UNK A   0     -11.912   9.118 -14.576  0.00  0.00    +0.104 A 
ATOM     19  C   UNK A   0     -12.653   8.492 -15.540  0.00  0.00    +0.120 A 
ATOM     20  N   UNK A   0     -13.828   9.095 -15.601  0.00  0.00    -0.223 NA
ATOM     21  C   UNK A   0     -13.832  10.112 -14.727  0.00  0.00    +0.164 A 
ATOM     22  C   UNK A   0     -14.838  11.039 -14.383  0.00  0.00    +0.042 A 
ATOM     23  C   UNK A   0     -14.559  11.914 -13.327  0.00  0.00    +0.041 A 
ENDROOT
BRANCH  11  12
ATOM     12  C   UNK A   0     -10.631   8.863 -14.095  0.00  0.00    +0.021 A 
ATOM     13  C   UNK A   0      -9.745   9.909 -13.751  0.00  0.00    +0.002 A 
ATOM     14  C   UNK A   0      -8.461   9.662 -13.266  0.00  0.00    +0.001 A 
ATOM     15  C   UNK A   0      -8.027   8.333 -13.106  0.00  0.00    +0.018 A 
ATOM     16  C   UNK A   0      -8.898   7.274 -13.435  0.00  0.00    +0.089 A 
ATOM     17  N   UNK A   0      -8.479   5.952 -13.267  0.00  0.00    -0.128 NA
ATOM     18  C   UNK A   0     -10.184   7.532 -13.931  0.00  0.00    +0.020 A 
ENDBRANCH  11  12
BRANCH   7   3
ATOM      3  CA  VAL A   1     -12.077  12.347 -10.658  0.00  0.00    +0.127 C 
BRANCH   3   4
ATOM      4  CB  VAL A   1     -10.642  12.614 -11.150  0.00  0.00    +0.023 C 
ATOM      5  CG2 VAL A   1      -9.624  11.829 -10.311  0.00  0.00    +0.002 C 
ATOM      6  CG1 VAL A   1     -10.349  14.117 -11.152  0.00  0.00    +0.002 C 
ENDBRANCH   3   4
BRANCH   3   2
ATOM      1  O   VAL A   1     -13.636  12.827  -8.922  0.00  0.00    -0.219 OA
ATOM      2  C   VAL A   1     -12.317  13.071  -9.284  0.00  0.00    +0.203 C 
ENDBRANCH   3   2
ENDBRANCH   7   3
TORSDOF 4
