REMARK  Name = 5NKA
REMARK  7 active torsions:
REMARK  status: ('A' for Active; 'I' for Inactive)
REMARK    1  A    between atoms: C_3  and  C_4
REMARK    2  A    between atoms: C_9  and  N_10
REMARK    3  A    between atoms: C_11  and  C_13
REMARK    4  A    between atoms: C_18  and  N_19
REMARK    5  A    between atoms: C_24  and  C_25
REMARK    6  A    between atoms: N_27  and  C_28
REMARK    7  A    between atoms: C_34  and  C_35
REMARK                            x       y       z     vdW  Elec       q    Type
REMARK                         _______ _______ _______ _____ _____    ______ ____
ROOT
ATOM      6  C   UNL     1      91.648  14.725   5.372  0.00  0.00    +0.039 A 
ATOM      7  C   UNL     1      91.247  14.514   6.676  0.00  0.00    +0.013 A 
ATOM      8  C   UNL     1      92.200  14.313   7.660  0.00  0.00    +0.003 A 
ATOM      9  C   UNL     1      93.555  14.352   7.322  0.00  0.00    +0.023 A 
ATOM     10  C   UNL     1      93.954  14.610   6.005  0.00  0.00    +0.034 A 
ATOM     30  C   UNL     1      92.998  14.765   5.048  0.00  0.00    +0.036 A 
ENDROOT
BRANCH  10  11
ATOM     11  N   UNL     1      95.247  14.630   5.531  0.00  0.00    -0.294 N 
ATOM     12  H   UNL     1      95.435  14.279   4.538  0.00  0.00    +0.154 HD
ATOM     13  C   UNL     1      96.276  15.070   6.261  0.00  0.00    +0.163 A 
ATOM     14  N   UNL     1      97.550  15.024   5.850  0.00  0.00    -0.232 NA
ATOM     15  C   UNL     1      98.443  15.524   6.763  0.00  0.00    +0.133 A 
ATOM     16  C   UNL     1      97.882  16.054   7.903  0.00  0.00    +0.095 A 
ATOM     29  S   UNL     1      96.153  15.850   7.806  0.00  0.00    -0.048 S 
BRANCH  16  17
ATOM     17  C   UNL     1      98.446  16.608   9.023  0.00  0.00    +0.257 C 
ATOM     18  N   UNL     1      99.783  16.877   9.089  0.00  0.00    -0.280 N 
ATOM     19  H   UNL     1     100.391  16.704   8.225  0.00  0.00    +0.155 HD
ATOM     28  O   UNL     1      97.705  16.821   9.984  0.00  0.00    -0.269 OA
BRANCH  18  20
ATOM     20  C   UNL     1     100.369  17.361  10.228  0.00  0.00    +0.055 A 
ATOM     21  C   UNL     1     100.734  16.495  11.274  0.00  0.00    -0.028 A 
ATOM     22  C   UNL     1     100.444  15.108  11.228  0.00  0.00    +0.045 C 
ATOM     23  C   UNL     1     101.361  16.999  12.403  0.00  0.00    +0.005 A 
ATOM     24  C   UNL     1     101.677  18.357  12.497  0.00  0.00    +0.002 A 
ATOM     25  C   UNL     1     101.364  19.209  11.443  0.00  0.00    +0.022 A 
ATOM     26  C   UNL     1     100.687  18.718  10.314  0.00  0.00    +0.062 A 
ATOM     27 CL   UNL     1     100.296  19.825   9.044  0.00  0.00    -0.082 Cl
ENDBRANCH  18  20
ENDBRANCH  16  17
ENDBRANCH  10  11
BRANCH   6   5
ATOM      3  N   UNL     1      90.644  16.226   4.009  0.00  0.00    -0.309 N 
ATOM      4  H   UNL     1      91.202  16.940   4.578  0.00  0.00    +0.149 HD
ATOM      5  C   UNL     1      90.750  14.936   4.339  0.00  0.00    +0.244 C 
ATOM     31  O   UNL     1      90.200  14.002   3.750  0.00  0.00    -0.270 OA
BRANCH   3   2
ATOM      1  C   UNL     1      88.405  17.038   3.377  0.00  0.00    +0.023 C 
ATOM      2  C   UNL     1      89.807  16.719   2.912  0.00  0.00    +0.073 C 
ATOM     32  C   UNL     1      90.469  17.983   2.372  0.00  0.00    +0.023 C 
ATOM     33  C   UNL     1      89.457  18.895   1.668  0.00  0.00    +0.011 C 
ATOM     34  C   UNL     1      88.259  18.140   1.060  0.00  0.00    +0.035 C 
ATOM     38  C   UNL     1      87.529  17.297   2.139  0.00  0.00    +0.011 C 
BRANCH  34  35
ATOM     35  C   UNL     1      88.660  17.310  -0.182  0.00  0.00    +0.045 C 
ATOM     36  O   UNL     1      87.722  16.849  -0.871  0.00  0.00    -0.549 OA
ATOM     37  O   UNL     1      89.879  17.202  -0.448  0.00  0.00    -0.549 OA
ENDBRANCH  34  35
ENDBRANCH   3   2
ENDBRANCH   6   5
TORSDOF 6
