REMARK  Name = 6O9D
REMARK  4 active torsions:
REMARK  status: ('A' for Active; 'I' for Inactive)
REMARK    1  A    between atoms: C14_2  and  C17_17
REMARK    2  A    between atoms: C5_3  and  N19_19
REMARK    3  A    between atoms: C6_4  and  N11_14
REMARK    4  A    between atoms: C20_20  and  C22_22
REMARK                            x       y       z     vdW  Elec       q    Type
REMARK                         _______ _______ _______ _____ _____    ______ ____
ROOT
ATOM      1  C   UNL     1      19.764   9.736  42.320  0.00  0.00    -0.130 A 
ATOM      2  C   UNL     1      18.867   9.825  43.410  0.00  0.00    +0.000 A 
ATOM      3  C   UNL     1      18.346  11.043  43.897  0.00  0.00    -0.130 A 
ATOM      4  C   UNL     1      17.526  11.043  44.988  0.00  0.00    -0.130 A 
ATOM      5  C   UNL     1      17.227   9.825  45.601  0.00  0.00    +0.250 A 
ATOM      6  N   UNL     1      17.677   8.649  45.184  0.00  0.00    -0.380 NA
ATOM      7  C   UNL     1      18.501   8.638  44.079  0.00  0.00    +0.000 A 
ATOM      8  C   UNL     1      19.012   7.401  43.627  0.00  0.00    -0.130 A 
ATOM      9  C   UNL     1      19.865   7.349  42.548  0.00  0.00    +0.000 A 
ATOM     18  C   UNL     1      20.274   8.533  41.899  0.00  0.00    +0.050 A 
ENDROOT
BRANCH   9  10
ATOM     10  N   UNL     1      20.279   6.089  42.000  0.00  0.00    -0.400 N 
ATOM     11  C   UNL     1      20.932   5.158  42.930  0.00  0.00    +0.100 C 
ATOM     12  C   UNL     1      21.552   3.965  42.198  0.00  0.00    -0.100 C 
ATOM     13  C   UNL     1      20.563   3.244  41.279  0.00  0.00    -0.050 C 
ATOM     16  C   UNL     1      19.857   4.262  40.382  0.00  0.00    -0.100 C 
ATOM     17  C   UNL     1      19.262   5.426  41.174  0.00  0.00    +0.100 C 
BRANCH  13  14
ATOM     14  C   UNL     1      21.271   2.191  40.443  0.00  0.00    +0.100 C 
ATOM     15  N   UNL     1      20.270   1.311  39.801  0.00  0.00    -0.900 NA
ENDBRANCH  13  14
ENDBRANCH   9  10
BRANCH  18  19
ATOM     19  N   UNL     1      21.236   8.467  40.860  0.00  0.00    -0.350 NA
ATOM     20  C   UNL     1      21.704   9.472  40.029  0.00  0.00    +0.600 C 
ATOM     30  O   UNL     1      21.485  10.670  40.201  0.00  0.00    -0.550 OA
BRANCH  20  21
ATOM     21  C   UNL     1      22.547   9.027  38.878  0.00  0.00    +0.000 A 
ATOM     22  C   UNL     1      22.967   7.719  38.587  0.00  0.00    +0.100 A 
ATOM     23  N   UNL     1      22.854   6.594  39.307  0.00  0.00    -0.150 NA
ATOM     24  C   UNL     1      23.328   5.465  38.744  0.00  0.00    +0.000 C 
ATOM     25  C   UNL     1      23.922   5.412  37.492  0.00  0.00    -0.100 C 
ATOM     26  C   UNL     1      24.046   6.597  36.798  0.00  0.00    +0.000 C 
ATOM     27  N   UNL     1      23.576   7.749  37.337  0.00  0.00    -0.150 N 
ATOM     28  N   UNL     1      23.617   9.026  36.814  0.00  0.00    -0.350 NA
ATOM     29  C   UNL     1      23.015   9.789  37.801  0.00  0.00    +0.000 A 
ENDBRANCH  20  21
ENDBRANCH  18  19
TORSDOF 4
