REMARK  Name = A7K
REMARK  3 active torsions:
REMARK  status: ('A' for Active; 'I' for Inactive)
REMARK    1  A    between atoms: C13_2  and  C10_4
REMARK    2  A    between atoms: C7_7  and  C5_9
REMARK    3  A    between atoms: C4_8  and  N2_15
REMARK                            x       y       z     vdW  Elec       q    Type
REMARK                         _______ _______ _______ _____ _____    ______ ____
ROOT
ATOM      1  C   UNL     1     -12.131  14.971 -16.776  0.00  0.00    +0.091 C 
ATOM      2  N   UNL     1     -11.836  13.560 -17.097  0.00  0.00    -0.308 N 
ATOM     11  C   UNL     1     -12.314  13.120 -18.416  0.00  0.00    +0.091 C 
ATOM     12  C   UNL     1     -11.767  14.007 -19.486  0.00  0.00    +0.024 C 
ATOM     13  C   UNL     1     -12.212  15.441 -19.236  0.00  0.00    +0.036 C 
ATOM     16  C   UNL     1     -11.669  15.903 -17.884  0.00  0.00    +0.024 C 
ENDROOT
BRANCH   2   3
ATOM      3  C   UNL     1     -11.306  12.567 -16.203  0.00  0.00    +0.045 A 
ATOM      4  C   UNL     1     -12.063  12.095 -15.134  0.00  0.00    +0.014 A 
ATOM      5  C   UNL     1     -11.568  11.115 -14.300  0.00  0.00    +0.001 A 
ATOM      6  C   UNL     1     -10.319  10.598 -14.516  0.00  0.00    -0.000 A 
ATOM      7  C   UNL     1      -9.555  11.049 -15.577  0.00  0.00    -0.002 A 
ATOM      8  C   UNL     1     -10.030  12.027 -16.452  0.00  0.00    +0.010 A 
BRANCH   8   9
ATOM      9  C   UNL     1      -9.149  12.513 -17.581  0.00  0.00    +0.137 C 
ATOM     10  N   UNL     1      -9.373  11.793 -18.860  0.00  0.00    -0.126 NA
ENDBRANCH   8   9
ENDBRANCH   2   3
BRANCH  13  14
ATOM     14  C   UNL     1     -11.817  16.365 -20.365  0.00  0.00    +0.182 C 
ATOM     15  O   UNL     1     -12.147  15.677 -21.560  0.00  0.00    -0.220 OA
ENDBRANCH  13  14
TORSDOF 3
