REMARK  Name = 3fzt_ligand
REMARK  10 active torsions:
REMARK  status: ('A' for Active; 'I' for Inactive)
REMARK    1  A    between atoms: C4_1  and  C24_24
REMARK    2  A    between atoms: C20_6  and  C24_24
REMARK    3  A    between atoms: C18_9  and  O33_33
REMARK    4  A    between atoms: C16_10  and  C1_12
REMARK    5  A    between atoms: C19_11  and  C15_20
REMARK    6  A    between atoms: C2_13  and  C24_24
REMARK    7  A    between atoms: C3_14  and  C24_24
REMARK    8  A    between atoms: C15_20  and  O33_33
REMARK    9  A    between atoms: C17_21  and  N31_31
REMARK   10  A    between atoms: C22_22  and  N30_30
REMARK                            x       y       z     vdW  Elec       q    Type
REMARK                         _______ _______ _______ _____ _____    ______ ____
ROOT
ATOM      9  N   UNL     1      -6.229  -1.601  12.152  0.00  0.00    -0.180 N 
ATOM     10  H   UNL     1      -6.933  -1.912  12.822  0.00  0.00    +0.234 HD
ATOM     11  C   UNL     1      -5.264  -2.475  11.814  0.00  0.00    +0.319 C 
ATOM     12  O   UNL     1      -4.411  -2.220  10.969  0.00  0.00    -0.381 OA
ATOM     13  N   UNL     1      -5.319  -3.666  12.451  0.00  0.00    -0.217 N 
ATOM     14  H   UNL     1      -6.144  -3.849  13.022  0.00  0.00    +0.221 HD
ATOM     15  C   UNL     1      -4.353  -4.663  12.398  0.00  0.00    +0.097 A 
ATOM     16  N   UNL     1      -4.113  -5.367  13.516  0.00  0.00    -0.238 NA
ATOM     17  N   UNL     1      -3.062  -6.227  13.289  0.00  0.00    -0.236 N 
ATOM     18  H   UNL     1      -2.683  -6.898  13.957  0.00  0.00    +0.243 HD
ATOM     19  C   UNL     1      -2.635  -6.033  12.068  0.00  0.00    +0.087 A 
ATOM     28  C   UNL     1      -3.409  -5.014  11.469  0.00  0.00    -0.005 A 
ENDROOT
BRANCH   9   8
ATOM      5  C   UNL     1      -6.280   1.580  10.396  0.00  0.00    -0.004 A 
ATOM      6  N   UNL     1      -6.834   1.899  11.535  0.00  0.00    -0.167 NA
ATOM      7  N   UNL     1      -6.896   0.751  12.339  0.00  0.00    -0.107 N 
ATOM      8  C   UNL     1      -6.342  -0.287  11.651  0.00  0.00    +0.219 A 
ATOM     36  C   UNL     1      -5.951   0.205  10.441  0.00  0.00    +0.003 A 
BRANCH   7  29
ATOM     29  C   UNL     1      -7.479   0.786  13.618  0.00  0.00    +0.123 A 
ATOM     30  C   UNL     1      -8.740   1.385  13.710  0.00  0.00    +0.033 A 
ATOM     31  C   UNL     1      -9.396   1.499  14.926  0.00  0.00    -0.006 A 
ATOM     32  C   UNL     1      -8.789   1.017  16.068  0.00  0.00    -0.049 A 
ATOM     33  C   UNL     1      -9.517   1.114  17.398  0.00  0.00    +0.083 C 
ATOM     34  C   UNL     1      -7.550   0.385  15.977  0.00  0.00    -0.006 A 
ATOM     35  C   UNL     1      -6.876   0.273  14.763  0.00  0.00    +0.033 A 
ENDBRANCH   7  29
BRANCH   5   2
ATOM      1  C   UNL     1      -5.834   3.961   9.866  0.00  0.00    -0.047 C 
ATOM      2  C   UNL     1      -6.049   2.560   9.268  0.00  0.00    -0.046 C 
ATOM      3  C   UNL     1      -4.868   2.164   8.372  0.00  0.00    -0.047 C 
ATOM      4  C   UNL     1      -7.290   2.570   8.385  0.00  0.00    -0.047 C 
ENDBRANCH   5   2
ENDBRANCH   9   8
BRANCH  19  20
ATOM     20  C   UNL     1      -1.456  -6.796  11.499  0.00  0.00    +0.298 C 
BRANCH  20  21
ATOM     21  O   UNL     1      -1.863  -7.705  10.494  0.00  0.00    -0.293 OA
BRANCH  21  22
ATOM     22  C   UNL     1      -0.919  -8.443   9.839  0.00  0.00    +0.123 A 
ATOM     23  C   UNL     1      -1.318  -9.257   8.789  0.00  0.00    +0.115 A 
ATOM     24  N   UNL     1      -0.418  -9.979   8.119  0.00  0.00    -0.307 NA
ATOM     25  C   UNL     1       0.867  -9.972   8.412  0.00  0.00    +0.073 A 
ATOM     26  C   UNL     1       1.343  -9.183   9.454  0.00  0.00    +0.025 A 
ATOM     27  C   UNL     1       0.438  -8.402  10.183  0.00  0.00    +0.053 A 
ENDBRANCH  21  22
ENDBRANCH  20  21
ENDBRANCH  19  20
TORSDOF 6
