REMARK  Name = 1oit_ligand
REMARK  4 active torsions:
REMARK  status: ('A' for Active; 'I' for Inactive)
REMARK    1  A    between atoms: C10_9  and  C9_10
REMARK    2  A    between atoms: C17_13  and  N16_24
REMARK    3  A    between atoms: C20_18  and  S23_20
REMARK    4  A    between atoms: S23_20  and  N24_22
REMARK                            x       y       z     vdW  Elec       q    Type
REMARK                         _______ _______ _______ _____ _____    ______ ____
ROOT
ATOM     13  N   UNL     1      10.444 -11.081  12.335  0.00  0.00    -0.234 N 
ATOM     14  H   UNL     1      10.063 -11.822  12.941  0.00  0.00    +0.222 HD
ATOM     15  C   UNL     1      11.557 -10.468  12.831  0.00  0.00    +0.234 A 
ATOM     16  N   UNL     1      11.959 -10.830  14.068  0.00  0.00    -0.217 NA
ATOM     17  C   UNL     1      13.060 -10.322  14.638  0.00  0.00    +0.147 A 
ATOM     18  C   UNL     1      13.837  -9.404  13.946  0.00  0.00    +0.113 A 
ATOM     19  C   UNL     1      13.426  -9.033  12.676  0.00  0.00    +0.118 A 
ATOM     30  N   UNL     1      12.303  -9.579  12.138  0.00  0.00    -0.228 NA
ENDROOT
BRANCH  19  20
ATOM     20  C   UNL     1      14.230  -8.045  11.891  0.00  0.00    +0.164 A 
ATOM     21  C   UNL     1      15.028  -7.075  12.385  0.00  0.00    +0.340 A 
ATOM     22  N   UNL     1      15.560  -6.431  11.421  0.00  0.00    -0.192 N 
ATOM     23  H   UNL     1      16.214  -5.639  11.499  0.00  0.00    +0.277 HD
ATOM     24  C   UNL     1      15.085  -7.006  10.236  0.00  0.00    +0.186 A 
ATOM     25  C   UNL     1      15.361  -6.673   8.922  0.00  0.00    +0.091 A 
ATOM     26  C   UNL     1      14.724  -7.457   7.959  0.00  0.00    +0.039 A 
ATOM     27  C   UNL     1      13.862  -8.506   8.301  0.00  0.00    +0.042 A 
ATOM     28  C   UNL     1      13.644  -8.773   9.649  0.00  0.00    +0.096 A 
ATOM     29  N   UNL     1      14.276  -8.000  10.542  0.00  0.00    -0.265 N 
ENDBRANCH  19  20
BRANCH  13  12
ATOM      1  C   UNL     1       8.701 -11.779  10.818  0.00  0.00    +0.021 A 
ATOM      2  C   UNL     1       7.913 -11.592   9.684  0.00  0.00    +0.018 A 
ATOM      3  C   UNL     1       8.119 -10.480   8.868  0.00  0.00    +0.098 A 
ATOM     10  C   UNL     1       9.107  -9.562   9.206  0.00  0.00    +0.018 A 
ATOM     11  C   UNL     1       9.897  -9.754  10.342  0.00  0.00    +0.021 A 
ATOM     12  C   UNL     1       9.724 -10.881  11.142  0.00  0.00    +0.070 A 
BRANCH   3   4
ATOM      4  S   UNL     1       7.198 -10.243   7.575  0.00  0.00    +0.061 S 
ATOM      5  O   UNL     1       6.081  -9.449   7.989  0.00  0.00    -0.152 OA
ATOM      9  O   UNL     1       6.724 -11.498   7.052  0.00  0.00    -0.152 OA
BRANCH   4   6
ATOM      6  N   UNL     1       8.004  -9.454   6.439  0.00  0.00    -0.262 NA
ATOM      7  H   UNL     1       8.953  -9.182   6.597  0.00  0.00    +0.163 HD
ATOM      8  H   UNL     1       7.558  -9.233   5.572  0.00  0.00    +0.163 HD
ENDBRANCH   4   6
ENDBRANCH   3   4
ENDBRANCH  13  12
TORSDOF 4
