REMARK  Name = 97K
REMARK  1 active torsions:
REMARK  status: ('A' for Active; 'I' for Inactive)
REMARK    1  A    between atoms: CAL_9  and  CAD_10
REMARK                            x       y       z     vdW  Elec       q    Type
REMARK                         _______ _______ _______ _____ _____    ______ ____
ROOT
ATOM      3  C   UNL     1       6.734  37.244  12.021  0.00  0.00    +0.165 A 
ATOM      4  N   UNL     1       7.499  37.988  12.898  0.00  0.00    -0.189 NA
ATOM      5  C   UNL     1       7.471  37.739  14.258  0.00  0.00    +0.282 A 
ATOM      6  O   UNL     1       8.230  38.378  14.947  0.00  0.00    -0.265 OA
ATOM      7  C   UNL     1       6.611  36.761  14.757  0.00  0.00    +0.076 A 
ATOM      8  C   UNL     1       6.524  36.460  16.115  0.00  0.00    +0.006 A 
ATOM      9  C   UNL     1       5.626  35.457  16.518  0.00  0.00    +0.000 A 
ATOM     10  C   UNL     1       4.871  34.726  15.579  0.00  0.00    +0.002 A 
ATOM     11  C   UNL     1       4.999  35.034  14.220  0.00  0.00    +0.019 A 
ATOM     12  C   UNL     1       5.854  36.031  13.824  0.00  0.00    +0.088 A 
ATOM     13  N   UNL     1       5.909  36.320  12.503  0.00  0.00    -0.226 NA
ENDROOT
BRANCH   3   2
ATOM      1  C   UNL     1       6.114  36.738   9.648  0.00  0.00    +0.006 A 
ATOM      2  C   UNL     1       6.706  37.563  10.630  0.00  0.00    +0.036 A 
ATOM     14  C   UNL     1       7.154  38.834  10.221  0.00  0.00    +0.005 A 
ATOM     15  C   UNL     1       7.074  39.220   8.874  0.00  0.00    +0.021 A 
ATOM     16  C   UNL     1       6.558  38.390   7.987  0.00  0.00    +0.104 A 
ATOM     17  N   UNL     1       6.375  38.540   6.672  0.00  0.00    -0.148 NA
ATOM     18  N   UNL     1       5.843  37.519   6.219  0.00  0.00    -0.146 NA
ATOM     19  C   UNL     1       5.658  36.634   7.218  0.00  0.00    +0.124 A 
ATOM     20  C   UNL     1       6.083  37.184   8.355  0.00  0.00    +0.040 A 
ENDBRANCH   3   2
TORSDOF 1
