REMARK  Name = 4QMS
REMARK  8 active torsions:
REMARK  status: ('A' for Active; 'I' for Inactive)
REMARK    1  A    between atoms: C_2  and  C_3
REMARK    2  A    between atoms: N_4  and  C_16
REMARK    3  A    between atoms: C_7  and  C_8
REMARK    4  A    between atoms: C_9  and  N_18
REMARK    5  A    between atoms: C_12  and  C_13
REMARK    6  A    between atoms: C_16  and  C_17
REMARK    7  A    between atoms: C_17  and  O_33
REMARK    8  A    between atoms: N_22  and  C_23
REMARK                            x       y       z     vdW  Elec       q    Type
REMARK                         _______ _______ _______ _____ _____    ______ ____
ROOT
ATOM      1  C   UNL     1      45.428   4.081  15.050  0.00  0.00    +0.133 A 
ATOM      2  N   UNL     1      44.442   3.565  14.351  0.00  0.00    -0.232 NA
ATOM      3  C   UNL     1      44.041   2.371  14.688  0.00  0.00    +0.164 A 
ATOM      4  S   UNL     1      44.951   1.744  16.046  0.00  0.00    -0.048 S 
ATOM      5  N   UNL     1      42.997   1.672  13.995  0.00  0.00    -0.279 N 
ATOM      6  H   UNL     1      42.152   2.328  14.008  0.00  0.00    +0.156 HD
ATOM     24  C   UNL     1      45.881   3.235  16.061  0.00  0.00    +0.095 A 
ENDROOT
BRANCH   5   7
ATOM      7  C   UNL     1      42.487   0.368  14.386  0.00  0.00    +0.130 A 
ATOM      8  N   UNL     1      42.947  -0.328  15.437  0.00  0.00    -0.217 NA
ATOM      9  C   UNL     1      42.440  -1.527  15.757  0.00  0.00    +0.130 A 
ATOM     10  N   UNL     1      41.451  -2.079  15.041  0.00  0.00    -0.218 NA
ATOM     11  C   UNL     1      40.935  -1.438  13.959  0.00  0.00    +0.127 A 
ATOM     12  N   UNL     1      39.852  -1.996  13.120  0.00  0.00    -0.313 N 
ATOM     13  C   UNL     1      39.554  -1.522  11.767  0.00  0.00    +0.122 C 
ATOM     14  C   UNL     1      39.379  -2.693  10.809  0.00  0.00    +0.103 C 
ATOM     15  N   UNL     1      38.558  -3.751  11.421  0.00  0.00    -0.297 NA
ATOM     16  C   UNL     1      39.069  -4.201  12.716  0.00  0.00    +0.103 C 
ATOM     21  C   UNL     1      39.079  -3.062  13.688  0.00  0.00    +0.122 C 
ATOM     22  C   UNL     1      43.007  -2.232  16.942  0.00  0.00    +0.088 C 
ATOM     23  C   UNL     1      41.451  -0.186  13.603  0.00  0.00    +0.087 A 
BRANCH  15  17
ATOM     17  C   UNL     1      37.149  -3.852  10.996  0.00  0.00    +0.112 C 
BRANCH  17  18
ATOM     18  C   UNL     1      37.072  -4.597   9.698  0.00  0.00    +0.171 C 
BRANCH  18  19
ATOM     19  O   UNL     1      35.839  -5.201   9.580  0.00  0.00    -0.394 OA
ATOM     20  H   UNL     1      35.700  -5.873  10.375  0.00  0.00    +0.209 HD
ENDBRANCH  18  19
ENDBRANCH  17  18
ENDBRANCH  15  17
ENDBRANCH   5   7
BRANCH  24  25
ATOM     25  C   UNL     1      46.975   3.549  17.043  0.00  0.00    +0.257 C 
ATOM     26  O   UNL     1      47.690   4.532  16.916  0.00  0.00    -0.269 OA
ATOM     27  N   UNL     1      47.146   2.661  18.157  0.00  0.00    -0.280 N 
ATOM     28  H   UNL     1      47.373   1.692  17.765  0.00  0.00    +0.155 HD
BRANCH  27  29
ATOM     29  C   UNL     1      48.186   3.000  19.120  0.00  0.00    +0.055 A 
ATOM     30  C   UNL     1      49.444   2.407  19.026  0.00  0.00    +0.062 A 
ATOM     31 CL   UNL     1      49.725   1.263  17.743  0.00  0.00    -0.082 Cl
ATOM     32  C   UNL     1      50.436   2.731  19.944  0.00  0.00    +0.022 A 
ATOM     33  C   UNL     1      50.144   3.658  20.952  0.00  0.00    +0.002 A 
ATOM     34  C   UNL     1      48.883   4.249  21.046  0.00  0.00    +0.005 A 
ATOM     35  C   UNL     1      47.889   3.930  20.127  0.00  0.00    -0.028 A 
ATOM     36  C   UNL     1      46.507   4.544  20.206  0.00  0.00    +0.045 C 
ENDBRANCH  27  29
ENDBRANCH  24  25
TORSDOF 6
