REMARK  Name = 4RC4
REMARK  12 active torsions:
REMARK  status: ('A' for Active; 'I' for Inactive)
REMARK    1  A    between atoms: N_1  and  C_2
REMARK    2  A    between atoms: C_2  and  C_3
REMARK    3  A    between atoms: C_3  and  N_4
REMARK    4  A    between atoms: N_4  and  C_5
REMARK    5  A    between atoms: C_9  and  O_10
REMARK    6  A    between atoms: C_13  and  N_17
REMARK    7  A    between atoms: C_14  and  O_15
REMARK    8  A    between atoms: C_16  and  O_18
REMARK    9  A    between atoms: N_17  and  C_20
REMARK   10  A    between atoms: C_20  and  C_22
REMARK   11  A    between atoms: C_22  and  N_24
REMARK   12  A    between atoms: C_23  and  O_25
REMARK                            x       y       z     vdW  Elec       q    Type
REMARK                         _______ _______ _______ _____ _____    ______ ____
ROOT
ATOM      8  C   UNL     1     -27.199 117.753  -1.853  0.00  0.00    +0.039 A 
ATOM      9  C   UNL     1     -26.787 118.969  -1.195  0.00  0.00    +0.050 A 
ATOM     10  C   UNL     1     -26.521 120.090  -2.043  0.00  0.00    +0.050 A 
ATOM     11  C   UNL     1     -26.075 121.310  -1.450  0.00  0.00    +0.138 A 
ATOM     12  C   UNL     1     -25.859 121.485  -0.010  0.00  0.00    +0.073 A 
ATOM     13  C   UNL     1     -25.410 122.718   0.528  0.00  0.00    +0.128 A 
ATOM     16  C   UNL     1     -25.223 122.836   1.884  0.00  0.00    +0.050 A 
ATOM     17  C   UNL     1     -25.457 121.797   2.699  0.00  0.00    +0.050 A 
ATOM     18  C   UNL     1     -25.893 120.619   2.207  0.00  0.00    +0.128 A 
ATOM     21  C   UNL     1     -26.101 120.417   0.832  0.00  0.00    +0.073 A 
ATOM     24  C   UNL     1     -26.675 120.016  -3.455  0.00  0.00    +0.039 A 
ATOM     32  C   UNL     1     -27.098 118.810  -3.992  0.00  0.00    +0.025 A 
ATOM     33  C   UNL     1     -26.571 119.111   0.275  0.00  0.00    +0.138 A 
ATOM     36  C   UNL     1     -27.344 117.720  -3.223  0.00  0.00    +0.025 A 
ENDROOT
BRANCH   8   6
ATOM      6  N   UNL     1     -27.481 116.557  -1.048  0.00  0.00    -0.342 N 
ATOM      7  H   UNL     1     -27.688 116.900  -0.056  0.00  0.00    +0.146 HD
BRANCH   6   5
ATOM      5  C   UNL     1     -26.494 115.484  -0.919  0.00  0.00    +0.116 C 
BRANCH   5   4
ATOM      4  C   UNL     1     -25.723 115.166  -2.236  0.00  0.00    +0.096 C 
BRANCH   4   1
ATOM      1  N   UNL     1     -25.924 113.787  -2.623  0.00  0.00    -0.329 NA
ATOM      2  H   UNL     1     -25.566 113.143  -1.848  0.00  0.00    +0.118 HD
ATOM      3  H   UNL     1     -26.967 113.609  -2.781  0.00  0.00    +0.118 HD
ENDBRANCH   4   1
ENDBRANCH   5   4
ENDBRANCH   6   5
ENDBRANCH   8   6
BRANCH  13  14
ATOM     14  O   UNL     1     -25.144 123.766  -0.294  0.00  0.00    -0.506 OA
ATOM     15  H   UNL     1     -25.748 124.582  -0.028  0.00  0.00    +0.292 HD
ENDBRANCH  13  14
BRANCH  18  19
ATOM     19  O   UNL     1     -26.112 119.566   3.044  0.00  0.00    -0.506 OA
ATOM     20  H   UNL     1     -27.111 119.254   2.961  0.00  0.00    +0.292 HD
ENDBRANCH  18  19
BRANCH  11  22
ATOM     22  O   UNL     1     -25.806 122.374  -2.264  0.00  0.00    -0.505 OA
ATOM     23  H   UNL     1     -25.047 122.114  -2.941  0.00  0.00    +0.292 HD
ENDBRANCH  11  22
BRANCH  24  25
ATOM     25  N   UNL     1     -26.410 121.200  -4.324  0.00  0.00    -0.342 N 
ATOM     26  H   UNL     1     -26.756 122.054  -3.779  0.00  0.00    +0.146 HD
BRANCH  25  27
ATOM     27  C   UNL     1     -25.055 121.537  -4.801  0.00  0.00    +0.116 C 
BRANCH  27  28
ATOM     28  C   UNL     1     -25.046 122.483  -6.028  0.00  0.00    +0.096 C 
BRANCH  28  29
ATOM     29  N   UNL     1     -23.780 122.395  -6.750  0.00  0.00    -0.329 NA
ATOM     30  H   UNL     1     -22.977 122.672  -6.099  0.00  0.00    +0.118 HD
ATOM     31  H   UNL     1     -23.632 121.391  -7.091  0.00  0.00    +0.118 HD
ENDBRANCH  28  29
ENDBRANCH  27  28
ENDBRANCH  25  27
ENDBRANCH  24  25
BRANCH  33  34
ATOM     34  O   UNL     1     -26.770 118.097   1.179  0.00  0.00    -0.505 OA
ATOM     35  H   UNL     1     -27.771 117.782   1.138  0.00  0.00    +0.292 HD
ENDBRANCH  33  34
TORSDOF 12
