REMARK  Name = BXM
REMARK  6 active torsions:
REMARK  status: ('A' for Active; 'I' for Inactive)
REMARK    1  A    between atoms: C1_1  and  C11_2
REMARK    2  A    between atoms: C13_4  and  N47_37
REMARK    3  A    between atoms: C21_8  and  C23_9
REMARK    4  A    between atoms: C28_12  and  C33_16
REMARK    5  A    between atoms: C4_19  and  N19_36
REMARK    6  A    between atoms: C50_24  and  C71_29
REMARK                            x       y       z     vdW  Elec       q    Type
REMARK                         _______ _______ _______ _____ _____    ______ ____
ROOT
ATOM     19  C   UNL     1     -43.044  18.021   9.464  0.00  0.00    +0.018 C 
ATOM     20  C   UNL     1     -42.336  17.849  10.723  0.00  0.00    +0.023 C 
ATOM     21  C   UNL     1     -41.775  16.674  11.125  0.00  0.00    +0.128 C 
ATOM     37  C   UNL     1     -41.875  15.468  10.275  0.00  0.00    +0.276 C 
ATOM     38  O   UNL     1     -41.383  14.374  10.577  0.00  0.00    -0.266 OA
ATOM     39  N   UNL     1     -42.567  15.629   9.047  0.00  0.00    -0.291 N 
ATOM     40  C   UNL     1     -42.670  14.437   8.158  0.00  0.00    +0.134 C 
ATOM     41  C   UNL     1     -43.132  16.872   8.713  0.00  0.00    +0.078 C 
ENDROOT
BRANCH  19   1
ATOM      1  C   UNL     1     -43.645  19.341   9.111  0.00  0.00    -0.001 A 
ATOM      2  C   UNL     1     -44.306  20.146  10.083  0.00  0.00    -0.000 A 
ATOM      3  C   UNL     1     -44.874  21.397   9.795  0.00  0.00    +0.001 A 
ATOM      4  C   UNL     1     -44.819  21.895   8.498  0.00  0.00    +0.016 A 
ATOM      5  C   UNL     1     -44.198  21.153   7.504  0.00  0.00    +0.070 A 
ATOM     42  C   UNL     1     -43.614  19.889   7.802  0.00  0.00    -0.006 A 
ATOM     43  C   UNL     1     -42.925  19.129   6.665  0.00  0.00    +0.032 C 
BRANCH   5   6
ATOM      6  N   UNL     1     -44.113  21.611   6.204  0.00  0.00    -0.176 NA
ATOM      7  C   UNL     1     -44.878  21.207   5.124  0.00  0.00    +0.269 C 
ATOM      8  O   UNL     1     -45.790  20.394   5.314  0.00  0.00    -0.268 OA
BRANCH   7   9
ATOM      9  C   UNL     1     -44.643  21.655   3.773  0.00  0.00    +0.055 A 
ATOM     10  C   UNL     1     -43.343  22.049   3.434  0.00  0.00    +0.004 A 
ATOM     11  C   UNL     1     -43.005  22.482   2.143  0.00  0.00    -0.004 A 
ATOM     12  C   UNL     1     -43.946  22.525   1.112  0.00  0.00    -0.023 A 
ATOM     13  C   UNL     1     -45.261  22.121   1.469  0.00  0.00    -0.004 A 
ATOM     18  C   UNL     1     -45.596  21.691   2.750  0.00  0.00    +0.004 A 
BRANCH  12  14
ATOM     14  C   UNL     1     -43.558  23.035  -0.263  0.00  0.00    +0.019 C 
ATOM     15  C   UNL     1     -43.354  24.551  -0.205  0.00  0.00    +0.004 C 
ATOM     16  C   UNL     1     -42.236  22.422  -0.799  0.00  0.00    +0.004 C 
ATOM     17  C   UNL     1     -44.685  22.757  -1.268  0.00  0.00    +0.004 C 
ENDBRANCH  12  14
ENDBRANCH   7   9
ENDBRANCH   5   6
ENDBRANCH  19   1
BRANCH  21  22
ATOM     22  N   UNL     1     -41.091  16.385  12.283  0.00  0.00    -0.189 NA
ATOM     23  C   UNL     1     -40.841  17.190  13.362  0.00  0.00    +0.152 A 
ATOM     24  C   UNL     1     -40.296  16.616  14.509  0.00  0.00    +0.036 A 
ATOM     25  C   UNL     1     -40.004  17.386  15.608  0.00  0.00    +0.009 A 
ATOM     26  C   UNL     1     -40.228  18.774  15.632  0.00  0.00    +0.073 A 
ATOM     35  C   UNL     1     -40.778  19.246  14.439  0.00  0.00    +0.105 A 
ATOM     36  N   UNL     1     -41.077  18.539  13.348  0.00  0.00    -0.227 NA
BRANCH  26  27
ATOM     27  C   UNL     1     -39.873  19.593  16.832  0.00  0.00    +0.251 C 
ATOM     28  N   UNL     1     -38.582  19.542  17.482  0.00  0.00    -0.271 N 
ATOM     29  C   UNL     1     -38.153  20.308  18.687  0.00  0.00    +0.126 C 
ATOM     30  C   UNL     1     -37.210  19.490  19.659  0.00  0.00    +0.164 C 
ATOM     31  O   UNL     1     -36.135  18.868  18.985  0.00  0.00    -0.350 OA
ATOM     32  C   UNL     1     -36.592  17.960  18.027  0.00  0.00    +0.164 C 
ATOM     33  C   UNL     1     -37.484  18.659  16.992  0.00  0.00    +0.126 C 
ATOM     34  O   UNL     1     -40.727  20.350  17.279  0.00  0.00    -0.270 OA
ENDBRANCH  26  27
ENDBRANCH  21  22
TORSDOF 6
