REMARK  Name = 4OTQ
REMARK  10 active torsions:
REMARK  status: ('A' for Active; 'I' for Inactive)
REMARK    1  A    between atoms: C_2  and  N_31
REMARK    2  A    between atoms: C_4  and  C_9
REMARK    3  A    between atoms: N_6  and  C_8
REMARK    4  A    between atoms: C_13  and  N_16
REMARK    5  A    between atoms: C_14  and  C_15
REMARK    6  A    between atoms: C_24  and  C_27
REMARK    7  A    between atoms: C_27  and  C_28
REMARK    8  A    between atoms: C_27  and  C_29
REMARK    9  A    between atoms: C_27  and  C_30
REMARK   10  A    between atoms: N_34  and  C_35
REMARK                            x       y       z     vdW  Elec       q    Type
REMARK                         _______ _______ _______ _____ _____    ______ ____
ROOT
ATOM      7  C   UNL     1      24.840   6.760   3.476  0.00  0.00    -0.012 A 
ATOM      8  C   UNL     1      24.755   7.693   4.565  0.00  0.00    -0.019 A 
ATOM      9  C   UNL     1      23.435   8.257   4.962  0.00  0.00    +0.046 C 
ATOM     10  C   UNL     1      25.942   8.006   5.201  0.00  0.00    +0.054 A 
ATOM     26  C   UNL     1      27.172   7.487   4.834  0.00  0.00    +0.026 A 
ATOM     27  C   UNL     1      27.247   6.563   3.745  0.00  0.00    +0.003 A 
ATOM     28  C   UNL     1      26.086   6.228   3.148  0.00  0.00    +0.009 A 
ENDROOT
BRANCH  10  11
ATOM     11  N   UNL     1      25.894   8.942   6.280  0.00  0.00    -0.267 N 
ATOM     12  C   UNL     1      25.627   8.508   7.558  0.00  0.00    +0.266 C 
ATOM     13  C   UNL     1      25.511   9.541   8.581  0.00  0.00    +0.065 A 
ATOM     14  C   UNL     1      25.165   9.210   9.897  0.00  0.00    +0.016 A 
ATOM     15  C   UNL     1      24.993  10.244  10.863  0.00  0.00    +0.005 A 
ATOM     16  C   UNL     1      25.100  11.592  10.465  0.00  0.00    -0.040 A 
ATOM     21  C   UNL     1      25.405  11.939   9.126  0.00  0.00    +0.032 A 
ATOM     22  C   UNL     1      25.620  10.897   8.197  0.00  0.00    +0.078 A 
ATOM     23  N   UNL     1      25.926  11.204   6.900  0.00  0.00    -0.237 NA
ATOM     24  O   UNL     1      25.419   7.329   7.795  0.00  0.00    -0.267 OA
ATOM     25  C   UNL     1      26.091  10.286   6.014  0.00  0.00    +0.207 C 
BRANCH  16  17
ATOM     17  C   UNL     1      24.916  12.732  11.469  0.00  0.00    -0.013 C 
ATOM     18  C   UNL     1      26.267  13.444  11.671  0.00  0.00    +0.015 C 
ATOM     19  C   UNL     1      24.438  12.203  12.842  0.00  0.00    +0.015 C 
ATOM     20  C   UNL     1      23.860  13.723  10.881  0.00  0.00    +0.015 C 
ENDBRANCH  16  17
ENDBRANCH  10  11
BRANCH   7   6
ATOM      1  C   UNL     1      21.447   5.472   1.195  0.00  0.00    +0.272 C 
ATOM      2  O   UNL     1      20.459   5.113   0.579  0.00  0.00    -0.266 OA
ATOM      3  N   UNL     1      21.366   5.561   2.597  0.00  0.00    -0.316 N 
ATOM      4  C   UNL     1      20.102   5.326   3.278  0.00  0.00    +0.152 C 
ATOM      5  C   UNL     1      22.454   5.975   3.295  0.00  0.00    +0.097 C 
ATOM      6  C   UNL     1      23.664   6.310   2.705  0.00  0.00    +0.001 C 
ATOM     29  C   UNL     1      23.763   6.235   1.256  0.00  0.00    +0.038 C 
ATOM     30  C   UNL     1      22.654   5.818   0.557  0.00  0.00    +0.101 C 
BRANCH  30  31
ATOM     31  N   UNL     1      22.615   5.690  -0.861  0.00  0.00    -0.265 N 
ATOM     32  H   UNL     1      21.647   5.582  -1.304  0.00  0.00    +0.157 HD
ATOM     33  C   UNL     1      23.665   5.690  -1.704  0.00  0.00    +0.304 C 
ATOM     34  N   UNL     1      23.334   5.463  -3.011  0.00  0.00    -0.302 N 
ATOM     35  H   UNL     1      22.315   5.312  -3.302  0.00  0.00    +0.150 HD
ATOM     36  C   UNL     1      24.436   5.431  -4.024  0.00  0.00    +0.129 C 
ATOM     37  O   UNL     1      24.812   5.884  -1.365  0.00  0.00    -0.253 OA
ENDBRANCH  30  31
ENDBRANCH   7   6
TORSDOF 4
