REMARK  Name = SGV
REMARK  3 active torsions:
REMARK  status: ('A' for Active; 'I' for Inactive)
REMARK    1  A    between atoms: C7_8  and  C10_12
REMARK    2  A    between atoms: N9_10  and  C1'_11
REMARK    3  A    between atoms: C4'_19  and  C5'_21
REMARK                            x       y       z     vdW  Elec       q    Type
REMARK                         _______ _______ _______ _____ _____    ______ ____
ROOT
ATOM      1  N   UNL     1      27.654 -31.033  26.954  0.00  0.00    -0.206 NA
ATOM      2  C   UNL     1      28.483 -31.276  28.023  0.00  0.00    +0.202 A 
ATOM      3  N   UNL     1      28.923 -32.556  28.260  0.00  0.00    -0.206 NA
ATOM      4  C   UNL     1      28.526 -33.570  27.427  0.00  0.00    +0.150 A 
ATOM      5  N   UNL     1      28.827 -34.926  27.411  0.00  0.00    -0.287 N 
ATOM     15  C   UNL     1      28.169 -35.512  26.380  0.00  0.00    +0.084 A 
ATOM     16  C   UNL     1      27.483 -34.522  25.712  0.00  0.00    +0.080 A 
ATOM     20  C   UNL     1      27.711 -33.325  26.365  0.00  0.00    +0.075 A 
ATOM     21  C   UNL     1      27.266 -32.034  26.134  0.00  0.00    +0.174 A 
ATOM     22  N   UNL     1      26.450 -31.258  25.228  0.00  0.00    -0.107 NA
ENDROOT
BRANCH   5   6
ATOM      6  C1* UNL     1      29.646 -35.574  28.452  0.00  0.00    +0.240 C 
ATOM      7  C2* UNL     1      28.767 -35.887  29.661  0.00  0.00    +0.234 C 
ATOM      8  O2* UNL     1      29.595 -35.978  30.808  0.00  0.00    -0.216 OA
ATOM      9  C3* UNL     1      28.241 -37.252  29.271  0.00  0.00    +0.216 C 
ATOM     10  O3* UNL     1      27.686 -37.974  30.351  0.00  0.00    -0.218 OA
ATOM     11  C4* UNL     1      29.478 -37.902  28.672  0.00  0.00    +0.183 C 
ATOM     14  O4* UNL     1      30.126 -36.810  27.961  0.00  0.00    -0.331 OA
BRANCH  11  12
ATOM     12  C5* UNL     1      29.245 -39.062  27.737  0.00  0.00    +0.214 C 
ATOM     13  O5* UNL     1      28.622 -38.632  26.538  0.00  0.00    -0.218 OA
ENDBRANCH  11  12
ENDBRANCH   5   6
BRANCH  16  17
ATOM     17  C   UNL     1      26.654 -34.928  24.463  0.00  0.00    +0.286 C 
ATOM     18  O   UNL     1      25.821 -34.154  23.996  0.00  0.00    -0.267 OA
ATOM     19  N   UNL     1      26.874 -36.255  23.849  0.00  0.00    -0.084 NA
ENDBRANCH  16  17
TORSDOF 3
