REMARK  Name = 78J
REMARK  4 active torsions:
REMARK  status: ('A' for Active; 'I' for Inactive)
REMARK    1  A    between atoms: N15_9  and  C17_10
REMARK    2  A    between atoms: C30_15  and  O32_16
REMARK    3  A    between atoms: O32_16  and  C33_17
REMARK    4  A    between atoms: C33_17  and  C36_18
REMARK                            x       y       z     vdW  Elec       q    Type
REMARK                         _______ _______ _______ _____ _____    ______ ____
ROOT
ATOM     10  C   UNL     1      15.229   6.477   6.159  0.00  0.00    +0.235 C 
ATOM     11  C   UNL     1      15.501   7.885   5.628  0.00  0.00    +0.072 C 
ATOM     12  C   UNL     1      16.075   7.790   4.233  0.00  0.00    +0.093 C 
ATOM     13  N   UNL     1      15.104   7.152   3.340  0.00  0.00    -0.215 NA
ATOM     14  C   UNL     1      14.782   5.792   3.776  0.00  0.00    +0.122 C 
ATOM     15  C   UNL     1      14.296   5.711   5.219  0.00  0.00    +0.179 C 
ENDROOT
BRANCH  10   9
ATOM      1  C   UNL     1      10.889   5.361  12.689  0.00  0.00    +0.035 C 
ATOM      2  C   UNL     1      11.879   5.374  11.551  0.00  0.00    +0.030 C 
ATOM      3  C   UNL     1      12.685   4.313  11.385  0.00  0.00    -0.016 C 
ATOM      4  C   UNL     1      13.639   4.306  10.307  0.00  0.00    +0.093 C 
ATOM      5  C   UNL     1      14.518   3.257  10.051  0.00  0.00    +0.034 C 
ATOM      6  C   UNL     1      15.386   3.378   8.988  0.00  0.00    +0.232 C 
ATOM      7  N   UNL     1      15.436   4.444   8.171  0.00  0.00    -0.032 NA
ATOM      8  C   UNL     1      14.599   5.485   8.366  0.00  0.00    +0.373 C 
ATOM      9  N   UNL     1      14.705   6.531   7.518  0.00  0.00    -0.032 NA
ATOM     24  C   UNL     1      13.693   5.417   9.457  0.00  0.00    +0.145 C 
ATOM     25  N   UNL     1      12.839   6.479   9.681  0.00  0.00    -0.172 NA
ATOM     26  C   UNL     1      11.927   6.539  10.677  0.00  0.00    +0.265 C 
ATOM     27  O   UNL     1      11.207   7.528  10.789  0.00  0.00    -0.268 OA
ENDBRANCH  10   9
BRANCH  15  16
ATOM     16  O   UNL     1      14.218   4.355   5.692  0.00  0.00    -0.350 OA
BRANCH  16  17
ATOM     17  C   UNL     1      13.674   3.376   4.801  0.00  0.00    +0.142 C 
BRANCH  17  18
ATOM     18  C   UNL     1      12.590   2.571   5.473  0.00  0.00    +0.030 C 
ATOM     19  C   UNL     1      13.135   1.774   6.650  0.00  0.00    +0.003 C 
ATOM     20  C   UNL     1      12.081   0.878   7.290  0.00  0.00    +0.000 C 
ATOM     21  C   UNL     1      11.467  -0.061   6.271  0.00  0.00    +0.000 C 
ATOM     22  C   UNL     1      10.895   0.716   5.103  0.00  0.00    +0.000 C 
ATOM     23  C   UNL     1      11.948   1.618   4.471  0.00  0.00    +0.003 C 
ENDBRANCH  17  18
ENDBRANCH  16  17
ENDBRANCH  15  16
TORSDOF 4
