REMARK  Name = 4idv_ligand
REMARK  11 active torsions:
REMARK  status: ('A' for Active; 'I' for Inactive)
REMARK    1  A    between atoms: C17_6  and  O2_7
REMARK    2  A    between atoms: O2_7  and  C18_8
REMARK    3  A    between atoms: C18_8  and  C19_9
REMARK    4  A    between atoms: C19_9  and  O3_10
REMARK    5  A    between atoms: O3_10  and  C20_11
REMARK    6  A    between atoms: C14_12  and  C11_13
REMARK    7  A    between atoms: C6_21  and  C5_22
REMARK    8  A    between atoms: C4_23  and  C1_24
REMARK    9  A    between atoms: C1_24  and  C3_25
REMARK   10  A    between atoms: C1_24  and  C2_26
REMARK   11  A    between atoms: C1_24  and  O1_27
REMARK                            x       y       z     vdW  Elec       q    Type
REMARK                         _______ _______ _______ _____ _____    ______ ____
ROOT
ATOM      9  C   UNL     1      17.483  14.877  87.048  0.00  0.00    +0.009 A 
ATOM     10  C   UNL     1      16.152  14.457  87.146  0.00  0.00    -0.010 A 
ATOM     11  C   UNL     1      15.488  13.335  87.615  0.00  0.00    +0.000 A 
ATOM     12  C   UNL     1      14.094  13.279  87.598  0.00  0.00    +0.010 A 
ATOM     20  C   UNL     1      13.329  14.305  87.088  0.00  0.00    -0.004 A 
ATOM     21  C   UNL     1      13.944  15.436  86.614  0.00  0.00    +0.016 A 
ATOM     22  C   UNL     1      15.326  15.489  86.650  0.00  0.00    +0.071 A 
ATOM     23  N   UNL     1      16.165  16.469  86.260  0.00  0.00    -0.269 N 
ATOM     24  H   UNL     1      15.863  17.366  85.853  0.00  0.00    +0.233 HD
ATOM     25  C   UNL     1      17.436  16.127  86.470  0.00  0.00    +0.152 A 
ENDROOT
BRANCH   9   8
ATOM      1  N   UNL     1      19.589  10.927  88.612  0.00  0.00    -0.311 N 
ATOM      2  H   UNL     1      20.415  10.352  88.830  0.00  0.00    +0.179 HD
ATOM      3  H   UNL     1      18.643  10.549  88.766  0.00  0.00    +0.179 HD
ATOM      4  C   UNL     1      19.744  12.166  88.128  0.00  0.00    +0.165 A 
ATOM      5  N   UNL     1      20.971  12.579  87.958  0.00  0.00    -0.277 NA
ATOM      6  C   UNL     1      21.144  13.825  87.471  0.00  0.00    +0.110 A 
ATOM      7  C   UNL     1      20.064  14.650  87.137  0.00  0.00    +0.126 A 
ATOM      8  C   UNL     1      18.751  14.100  87.396  0.00  0.00    +0.061 A 
ATOM     31  N   UNL     1      18.635  12.840  87.891  0.00  0.00    -0.275 NA
BRANCH   7  26
ATOM     26  O   UNL     1      20.193  15.966  86.653  0.00  0.00    -0.313 OA
BRANCH  26  27
ATOM     27  C   UNL     1      21.193  16.567  85.867  0.00  0.00    +0.220 C 
BRANCH  27  28
ATOM     28  C   UNL     1      20.746  17.999  85.481  0.00  0.00    +0.192 C 
BRANCH  28  29
ATOM     29  O   UNL     1      19.845  18.128  84.377  0.00  0.00    -0.380 OA
ATOM     30  C   UNL     1      18.889  19.167  84.333  0.00  0.00    +0.194 C 
ENDBRANCH  28  29
ENDBRANCH  27  28
ENDBRANCH  26  27
ENDBRANCH   7  26
ENDBRANCH   9   8
BRANCH  12  13
ATOM     13  C   UNL     1      13.504  12.115  88.077  0.00  0.00    -0.073 C 
ATOM     14  C   UNL     1      12.978  11.090  88.467  0.00  0.00    -0.068 C 
BRANCH  14  15
ATOM     15  C   UNL     1      12.345   9.814  88.910  0.00  0.00    +0.120 C 
ATOM     18  C   UNL     1      13.187   8.667  88.414  0.00  0.00    +0.054 C 
ATOM     19  C   UNL     1      12.253   9.864  90.389  0.00  0.00    +0.054 C 
BRANCH  15  16
ATOM     16  O   UNL     1      11.075   9.701  88.386  0.00  0.00    -0.377 OA
ATOM     17  H   UNL     1      11.127   9.668  87.438  0.00  0.00    +0.211 HD
ENDBRANCH  15  16
ENDBRANCH  14  15
ENDBRANCH  12  13
TORSDOF 8
