REMARK  Name = 4C8B
REMARK  9 active torsions:
REMARK  status: ('A' for Active; 'I' for Inactive)
REMARK    1  A    between atoms: N_2  and  C_12
REMARK    2  A    between atoms: C_3  and  C_4
REMARK    3  A    between atoms: C_5  and  C_26
REMARK    4  A    between atoms: C_9  and  N_29
REMARK    5  A    between atoms: C_11  and  C_33
REMARK    6  A    between atoms: C_12  and  C_31
REMARK    7  A    between atoms: C_23  and  C_24
REMARK    8  A    between atoms: C_25  and  C_27
REMARK    9  A    between atoms: C_38  and  N_39
REMARK                            x       y       z     vdW  Elec       q    Type
REMARK                         _______ _______ _______ _____ _____    ______ ____
ROOT
ATOM      9  C   UNL     1       9.403  -4.089  -2.909  0.00  0.00    +0.248 C 
ATOM     10  N   UNL     1       8.757  -5.340  -2.490  0.00  0.00    -0.281 N 
ATOM     11  H   UNL     1       7.693  -5.324  -2.374  0.00  0.00    +0.155 HD
ATOM     30  O   UNL     1      10.631  -3.988  -3.066  0.00  0.00    -0.270 OA
ENDROOT
BRANCH   9   8
ATOM      6  C   UNL     1       8.593  -0.409  -3.485  0.00  0.00    +0.029 A 
ATOM      7  C   UNL     1       9.276  -1.649  -3.367  0.00  0.00    +0.030 A 
ATOM      8  C   UNL     1       8.584  -2.814  -3.046  0.00  0.00    +0.038 A 
ATOM     31  C   UNL     1       7.236  -2.723  -2.749  0.00  0.00    +0.013 A 
ATOM     32  C   UNL     1       6.580  -1.476  -2.839  0.00  0.00    +0.005 A 
ATOM     33  C   UNL     1       7.262  -0.299  -3.190  0.00  0.00    -0.035 A 
ATOM     34  C   UNL     1       6.573   1.030  -3.269  0.00  0.00    +0.045 C 
BRANCH   6   5
ATOM      4  C   UNL     1      10.113   1.725  -4.077  0.00  0.00    -0.040 C 
ATOM      5  C   UNL     1       9.462   0.771  -3.837  0.00  0.00    -0.059 C 
BRANCH   4   3
ATOM      1  N   UNL     1      12.165   4.694  -3.855  0.00  0.00    -0.233 NA
ATOM      2  C   UNL     1      11.417   3.736  -3.325  0.00  0.00    +0.150 A 
ATOM      3  C   UNL     1      10.992   2.887  -4.350  0.00  0.00    +0.136 A 
ATOM     35  N   UNL     1      11.522   3.363  -5.518  0.00  0.00    -0.205 N 
ATOM     36  N   UNL     1      11.435   2.907  -6.809  0.00  0.00    -0.172 NA
ATOM     37  C   UNL     1      12.048   3.591  -7.785  0.00  0.00    +0.133 A 
ATOM     38  C   UNL     1      12.771   4.727  -7.507  0.00  0.00    +0.025 A 
ATOM     39  C   UNL     1      12.890   5.204  -6.214  0.00  0.00    +0.050 A 
ATOM     40  C   UNL     1      12.237   4.495  -5.183  0.00  0.00    +0.155 A 
ENDBRANCH   4   3
ENDBRANCH   6   5
ENDBRANCH   9   8
BRANCH  10  12
ATOM     12  C   UNL     1       9.420  -6.576  -2.223  0.00  0.00    +0.034 A 
ATOM     13  C   UNL     1      10.664  -6.481  -1.547  0.00  0.00    +0.036 A 
ATOM     14  C   UNL     1      11.409  -7.620  -1.199  0.00  0.00    +0.061 A 
ATOM     19  C   UNL     1      10.864  -8.853  -1.473  0.00  0.00    -0.022 A 
ATOM     28  C   UNL     1       9.624  -8.954  -2.112  0.00  0.00    +0.007 A 
ATOM     29  C   UNL     1       8.891  -7.815  -2.478  0.00  0.00    +0.024 A 
BRANCH  14  15
ATOM     15  C   UNL     1      12.731  -7.481  -0.485  0.00  0.00    +0.418 C 
ATOM     16  F   UNL     1      13.756  -7.857  -1.271  0.00  0.00    -0.166 F 
ATOM     17  F   UNL     1      12.932  -6.227  -0.044  0.00  0.00    -0.166 F 
ATOM     18  F   UNL     1      12.638  -8.244   0.619  0.00  0.00    -0.166 F 
ENDBRANCH  14  15
BRANCH  19  20
ATOM     20  C   UNL     1      11.531 -10.187  -1.128  0.00  0.00    +0.120 C 
BRANCH  20  21
ATOM     21  N   UNL     1      10.954 -11.251  -1.997  0.00  0.00    -0.296 NA
ATOM     22  C   UNL     1      10.587 -12.514  -1.402  0.00  0.00    +0.100 C 
ATOM     23  C   UNL     1      11.135 -13.678  -2.199  0.00  0.00    +0.099 C 
ATOM     24  N   UNL     1      10.731 -13.576  -3.574  0.00  0.00    -0.303 NA
ATOM     25  C   UNL     1      10.827 -14.732  -4.457  0.00  0.00    +0.105 C 
ATOM     26  C   UNL     1      10.793 -12.259  -4.182  0.00  0.00    +0.099 C 
ATOM     27  C   UNL     1      11.561 -11.280  -3.323  0.00  0.00    +0.100 C 
ENDBRANCH  20  21
ENDBRANCH  19  20
ENDBRANCH  10  12
TORSDOF 7
