REMARK  Name = 5H8E
REMARK  11 active torsions:
REMARK  status: ('A' for Active; 'I' for Inactive)
REMARK    1  A    between atoms: C_1  and  C_31
REMARK    2  A    between atoms: C_2  and  N_29
REMARK    3  A    between atoms: C_5  and  N_27
REMARK    4  A    between atoms: C_6  and  N_27
REMARK    5  A    between atoms: C_7  and  C_8
REMARK    6  A    between atoms: C_7  and  N_27
REMARK    7  A    between atoms: C_8  and  N_28
REMARK    8  A    between atoms: C_11  and  N_20
REMARK    9  A    between atoms: C_13  and  C_18
REMARK   10  A    between atoms: N_20  and  C_21
REMARK   11  A    between atoms: N_23  and  C_24
REMARK                            x       y       z     vdW  Elec       q    Type
REMARK                         _______ _______ _______ _____ _____    ______ ____
ROOT
ATOM     18  N   UNL     1      18.270  67.176  32.721  0.00  0.00    -0.200 N 
ATOM     19  H   UNL     1      18.199  67.352  31.668  0.00  0.00    +0.298 HD
ATOM     20  C   UNL     1      19.280  67.890  33.343  0.00  0.00    +0.324 C 
ATOM     21  N   UNL     1      19.456  67.809  34.673  0.00  0.00    -0.015 NA
ATOM     22  C   UNL     1      20.516  68.463  35.177  0.00  0.00    +0.430 C 
ATOM     23  N   UNL     1      21.359  69.271  34.422  0.00  0.00    -0.068 N 
ATOM     24  C   UNL     1      21.193  69.360  33.039  0.00  0.00    +0.291 C 
ATOM     30  N   UNL     1      22.303  69.903  35.205  0.00  0.00    -0.195 N 
ATOM     31  H   UNL     1      23.029  70.631  34.910  0.00  0.00    +0.194 HD
ATOM     32  C   UNL     1      22.089  69.379  36.438  0.00  0.00    +0.134 C 
ATOM     33  C   UNL     1      20.933  68.584  36.498  0.00  0.00    +0.151 C 
ATOM     36  C   UNL     1      20.115  68.644  32.513  0.00  0.00    +0.193 C 
ENDROOT
BRANCH  18  17
ATOM      6  C   UNL     1      16.305  64.984  35.011  0.00  0.00    +0.059 A 
ATOM      7  C   UNL     1      15.421  64.410  34.083  0.00  0.00    +0.051 A 
ATOM     15  C   UNL     1      15.485  64.773  32.735  0.00  0.00    +0.029 A 
ATOM     16  C   UNL     1      16.459  65.655  32.300  0.00  0.00    +0.051 A 
ATOM     17  C   UNL     1      17.314  66.258  33.215  0.00  0.00    +0.121 A 
ATOM     37  C   UNL     1      17.287  65.858  34.551  0.00  0.00    +0.074 A 
BRANCH   6   4
ATOM      1  C   UNL     1      16.431  65.287  37.545  0.00  0.00    +0.214 C 
ATOM      2  C   UNL     1      16.534  66.784  37.465  0.00  0.00    +0.109 C 
ATOM      3  O   UNL     1      16.482  64.701  38.619  0.00  0.00    -0.276 OA
ATOM      4  N   UNL     1      16.085  64.669  36.384  0.00  0.00    -0.284 N 
ATOM      5  H   UNL     1      15.536  63.762  36.531  0.00  0.00    +0.155 HD
ENDBRANCH   6   4
BRANCH   7   8
ATOM      8  N   UNL     1      14.485  63.360  34.531  0.00  0.00    -0.330 N 
ATOM     14  C   UNL     1      13.193  63.767  35.047  0.00  0.00    +0.129 C 
BRANCH   8   9
ATOM      9  C   UNL     1      14.489  62.064  33.720  0.00  0.00    +0.119 C 
BRANCH   9  10
ATOM     10  C   UNL     1      15.819  61.331  33.798  0.00  0.00    +0.096 C 
BRANCH  10  11
ATOM     11  N   UNL     1      16.020  60.683  35.112  0.00  0.00    -0.329 NA
ATOM     12  H   UNL     1      16.003  61.425  35.883  0.00  0.00    +0.118 HD
ATOM     13  H   UNL     1      15.238  59.973  35.284  0.00  0.00    +0.118 HD
ENDBRANCH  10  11
ENDBRANCH   9  10
ENDBRANCH   8   9
ENDBRANCH   7   8
ENDBRANCH  18  17
BRANCH  24  25
ATOM     25  N   UNL     1      22.111  70.063  32.251  0.00  0.00    -0.234 N 
ATOM     26  H   UNL     1      22.936  70.542  32.736  0.00  0.00    +0.291 HD
BRANCH  25  27
ATOM     27  C   UNL     1      21.999  70.175  30.799  0.00  0.00    +0.165 C 
ATOM     28  C   UNL     1      21.225  71.297  30.240  0.00  0.00    +0.051 C 
ATOM     29  C   UNL     1      22.704  71.277  30.119  0.00  0.00    +0.051 C 
ENDBRANCH  25  27
ENDBRANCH  24  25
BRANCH  33  34
ATOM     34  C   UNL     1      20.352  67.962  37.640  0.00  0.00    +0.106 C 
ATOM     35  N   UNL     1      19.903  67.446  38.550  0.00  0.00    -0.191 NA
ENDBRANCH  33  34
TORSDOF 9
