REMARK  Name = 971
REMARK  3 active torsions:
REMARK  status: ('A' for Active; 'I' for Inactive)
REMARK    1  A    between atoms: C9_2  and  N5_6
REMARK    2  A    between atoms: C18_17  and  C19_18
REMARK    3  A    between atoms: C23_22  and  N25_24
REMARK                            x       y       z     vdW  Elec       q    Type
REMARK                         _______ _______ _______ _____ _____    ______ ____
ROOT
ATOM      5  C   UNL     1      22.402  34.320   0.520  0.00  0.00    +0.132 A 
ATOM      6  N   UNL     1      22.455  34.263   1.811  0.00  0.00    -0.228 NA
ATOM      7  C   UNL     1      22.771  35.275   2.532  0.00  0.00    +0.121 A 
ATOM      8  C   UNL     1      23.089  36.455   1.939  0.00  0.00    +0.124 A 
ATOM      9  N   UNL     1      23.456  37.650   2.399  0.00  0.00    -0.146 NA
ATOM     10  N   UNL     1      23.676  38.486   1.359  0.00  0.00    -0.146 NA
ATOM     11  C   UNL     1      23.436  37.877   0.262  0.00  0.00    +0.122 A 
ATOM     24  C   UNL     1      23.051  36.538   0.565  0.00  0.00    +0.045 A 
ATOM     25  C   UNL     1      22.696  35.437  -0.174  0.00  0.00    +0.037 A 
ENDROOT
BRANCH   5   4
ATOM      1  C   UNL     1      21.348  31.024   0.072  0.00  0.00    +0.246 C 
ATOM      2  O   UNL     1      21.051  30.105   0.750  0.00  0.00    -0.273 OA
ATOM      3  C   UNL     1      21.147  32.374   0.619  0.00  0.00    +0.178 C 
ATOM      4  N   UNL     1      22.069  33.183  -0.109  0.00  0.00    -0.283 N 
ATOM     26  C   UNL     1      21.777  33.228  -1.515  0.00  0.00    +0.114 C 
ATOM     27  C   UNL     1      22.260  31.890  -2.029  0.00  0.00    +0.115 C 
ATOM     28  N   UNL     1      21.862  30.835  -1.124  0.00  0.00    -0.275 N 
ATOM     29  C   UNL     1      22.036  29.477  -1.577  0.00  0.00    +0.115 C 
ENDBRANCH   5   4
BRANCH  11  12
ATOM     12  C   UNL     1      23.560  38.485  -1.055  0.00  0.00    +0.102 A 
ATOM     13  C   UNL     1      23.886  39.802  -1.137  0.00  0.00    +0.021 A 
ATOM     14  C   UNL     1      24.000  40.402  -2.346  0.00  0.00    +0.004 A 
ATOM     15  C   UNL     1      23.756  39.643  -3.448  0.00  0.00    +0.034 A 
ATOM     16  C   UNL     1      23.432  38.333  -3.275  0.00  0.00    +0.132 A 
ATOM     23  N   UNL     1      23.332  37.792  -2.117  0.00  0.00    -0.229 NA
BRANCH  16  17
ATOM     17  N   UNL     1      23.172  37.546  -4.341  0.00  0.00    -0.290 N 
ATOM     18  C   UNL     1      23.436  36.174  -4.034  0.00  0.00    +0.111 C 
ATOM     19  C   UNL     1      22.856  35.343  -5.152  0.00  0.00    +0.110 C 
ATOM     20  N   UNL     1      23.572  35.732  -6.349  0.00  0.00    -0.214 NA
ATOM     21  C   UNL     1      23.255  37.112  -6.656  0.00  0.00    +0.110 C 
ATOM     22  C   UNL     1      23.828  37.967  -5.549  0.00  0.00    +0.111 C 
ENDBRANCH  16  17
ENDBRANCH  11  12
TORSDOF 3
