REMARK  Name = 3ptg_ligand
REMARK  5 active torsions:
REMARK  status: ('A' for Active; 'I' for Inactive)
REMARK    1  A    between atoms: N2_2  and  C11_11
REMARK    2  A    between atoms: C11_11  and  C12_12
REMARK    3  A    between atoms: N14_14  and  C15_15
REMARK    4  A    between atoms: C18_18  and  C25_25
REMARK    5  A    between atoms: C19_19  and  C20_20
REMARK                            x       y       z     vdW  Elec       q    Type
REMARK                         _______ _______ _______ _____ _____    ______ ____
ROOT
ATOM     13  C   UNL     1       1.522  -1.860  31.975  0.00  0.00    +0.244 C 
ATOM     14  N   UNL     1       0.833  -1.218  31.056  0.00  0.00    -0.204 N 
ATOM     15  H   UNL     1       1.112  -0.287  30.819  0.00  0.00    +0.243 HD
ATOM     28  O   UNL     1       1.122  -2.943  32.406  0.00  0.00    -0.376 OA
ENDROOT
BRANCH  14  16
ATOM     16  C   UNL     1      -0.243  -1.756  30.408  0.00  0.00    +0.154 A 
ATOM     17  C   UNL     1      -0.822  -1.182  29.179  0.00  0.00    +0.043 A 
ATOM     24  C   UNL     1      -2.011  -1.942  28.665  0.00  0.00    -0.072 A 
ATOM     25  C   UNL     1      -2.891  -1.699  27.447  0.00  0.00    +0.056 C 
ATOM     26  C   UNL     1      -2.332  -3.052  29.480  0.00  0.00    +0.005 A 
ATOM     27  S   UNL     1      -1.164  -3.146  30.809  0.00  0.00    -0.024 S 
BRANCH  17  18
ATOM     18  C   UNL     1      -0.196   0.022  28.550  0.00  0.00    +0.119 A 
ATOM     19  N   UNL     1       0.802   0.684  29.125  0.00  0.00    -0.242 N 
ATOM     20  H   UNL     1       1.231   0.498  30.043  0.00  0.00    +0.240 HD
ATOM     21  C   UNL     1       1.133   1.658  28.241  0.00  0.00    +0.233 A 
ATOM     22  N   UNL     1       0.351   1.569  27.158  0.00  0.00    -0.273 NA
ATOM     23  N   UNL     1      -0.511   0.485  27.371  0.00  0.00    -0.284 NA
ENDBRANCH  17  18
ENDBRANCH  14  16
BRANCH  13  12
ATOM     12  C   UNL     1       2.804  -1.191  32.416  0.00  0.00    +0.318 C 
BRANCH  12  11
ATOM      1  C   UNL     1       2.307   1.173  33.045  0.00  0.00    +0.074 A 
ATOM      2  C   UNL     1       1.349   0.805  33.989  0.00  0.00    +0.001 A 
ATOM      3  C   UNL     1       0.837   1.742  34.892  0.00  0.00    -0.031 A 
ATOM      4  C   UNL     1       1.236   3.072  34.896  0.00  0.00    -0.037 A 
ATOM      5  C   UNL     1       2.194   3.487  33.975  0.00  0.00    -0.022 A 
ATOM      6  C   UNL     1       2.758   2.572  33.072  0.00  0.00    -0.018 A 
ATOM      7  C   UNL     1       3.800   3.009  32.071  0.00  0.00    +0.079 C 
ATOM      8  C   UNL     1       3.511   2.274  30.770  0.00  0.00    +0.156 C 
ATOM      9  C   UNL     1       3.481   0.785  30.993  0.00  0.00    +0.208 C 
ATOM     10  O   UNL     1       4.029   0.097  30.124  0.00  0.00    -0.385 OA
ATOM     11  N   UNL     1       2.870   0.265  32.103  0.00  0.00    -0.203 N 
ENDBRANCH  12  11
ENDBRANCH  13  12
TORSDOF 4
