REMARK  Name = 4C02
REMARK  4 active torsions:
REMARK  status: ('A' for Active; 'I' for Inactive)
REMARK    1  A    between atoms: C_1  and  O_2
REMARK    2  A    between atoms: O_2  and  C_3
REMARK    3  A    between atoms: C_6  and  C_9
REMARK    4  A    between atoms: C_13  and  C_18
REMARK                            x       y       z     vdW  Elec       q    Type
REMARK                         _______ _______ _______ _____ _____    ______ ____
ROOT
ATOM      7  C   UNL     1     -48.641  11.094  17.893  0.00  0.00    -0.001 C 
ATOM      8  C   UNL     1     -49.754  10.329  18.243  0.00  0.00    +0.118 C 
ATOM      9  N   UNL     1     -50.892  10.340  17.439  0.00  0.00    -0.244 N 
ATOM     10  N   UNL     1     -52.064   9.648  17.645  0.00  0.00    -0.298 N 
ATOM     11  H   UNL     1     -52.278   8.969  18.444  0.00  0.00    +0.187 HD
ATOM     12  C   UNL     1     -52.896  10.002  16.627  0.00  0.00    +0.114 A 
ATOM     13  C   UNL     1     -52.267  10.911  15.780  0.00  0.00    +0.043 A 
ATOM     20  C   UNL     1     -50.980  11.080  16.358  0.00  0.00    +0.157 A 
ATOM     21  N   UNL     1     -49.892  11.860  15.981  0.00  0.00    -0.260 NA
ATOM     22  C   UNL     1     -48.758  11.854  16.716  0.00  0.00    +0.181 C 
ENDROOT
BRANCH   7   6
ATOM      3  C   UNL     1     -45.087  11.205  20.310  0.00  0.00    +0.120 A 
ATOM      4  C   UNL     1     -45.039  11.500  18.974  0.00  0.00    +0.046 A 
ATOM      5  C   UNL     1     -46.193  11.461  18.175  0.00  0.00    +0.012 A 
ATOM      6  C   UNL     1     -47.436  11.114  18.714  0.00  0.00    -0.018 A 
ATOM     23  C   UNL     1     -47.495  10.844  20.080  0.00  0.00    +0.012 A 
ATOM     24  C   UNL     1     -46.347  10.881  20.867  0.00  0.00    +0.046 A 
BRANCH   3   2
ATOM      1  C   UNL     1     -43.828  10.653  22.343  0.00  0.00    +0.277 C 
ATOM      2  O   UNL     1     -43.863  11.258  21.072  0.00  0.00    -0.495 OA
ENDBRANCH   3   2
ENDBRANCH   7   6
BRANCH  13  14
ATOM     14  C   UNL     1     -52.840  11.470  14.634  0.00  0.00    -0.010 A 
ATOM     15  C   UNL     1     -52.149  11.696  13.459  0.00  0.00    +0.028 A 
ATOM     16  C   UNL     1     -52.799  12.246  12.363  0.00  0.00    +0.111 A 
ATOM     17  N   UNL     1     -54.103  12.542  12.430  0.00  0.00    -0.263 NA
ATOM     18  C   UNL     1     -54.819  12.327  13.535  0.00  0.00    +0.111 A 
ATOM     19  C   UNL     1     -54.191  11.785  14.645  0.00  0.00    +0.028 A 
ENDBRANCH  13  14
TORSDOF 3
