REMARK  Name = 2yiq_ligand
REMARK  8 active torsions:
REMARK  status: ('A' for Active; 'I' for Inactive)
REMARK    1  A    between atoms: CAT_9  and  NAF_10
REMARK    2  A    between atoms: CAS_11  and  CAQ_13
REMARK    3  A    between atoms: CAK_21  and  CAI_22
REMARK    4  A    between atoms: CAI_22  and  CAJ_23
REMARK    5  A    between atoms: NAD_24  and  NAC_25
REMARK    6  A    between atoms: NAC_25  and  CAH_26
REMARK    7  A    between atoms: CAH_26  and  NAB_27
REMARK    8  A    between atoms: CAH_26  and  NAA_28
REMARK                            x       y       z     vdW  Elec       q    Type
REMARK                         _______ _______ _______ _____ _____    ______ ____
ROOT
ATOM      6  C   UNL     1     -36.361  33.067   9.044  0.00  0.00    +0.151 A 
ATOM      7  C   UNL     1     -36.010  34.208   9.664  0.00  0.00    +0.005 A 
ATOM      8  C   UNL     1     -35.504  33.854  10.859  0.00  0.00    -0.014 A 
ATOM      9  C   UNL     1     -35.585  32.465  10.961  0.00  0.00    +0.070 A 
ATOM     10  C   UNL     1     -35.120  31.824  12.119  0.00  0.00    +0.018 A 
ATOM     11  C   UNL     1     -34.600  32.584  13.168  0.00  0.00    -0.005 A 
ATOM     12  C   UNL     1     -34.530  33.990  13.088  0.00  0.00    -0.013 A 
ATOM     25  C   UNL     1     -34.992  34.613  11.915  0.00  0.00    +0.000 A 
ATOM     26  N   UNL     1     -36.130  31.997   9.817  0.00  0.00    -0.264 N 
ATOM     27  H   UNL     1     -36.327  31.023   9.587  0.00  0.00    +0.227 HD
ENDROOT
BRANCH   6   5
ATOM      3  N   UNL     1     -37.642  31.793   7.484  0.00  0.00    -0.185 N 
ATOM      4  H   UNL     1     -37.545  31.105   8.231  0.00  0.00    +0.281 HD
ATOM      5  C   UNL     1     -37.036  32.974   7.673  0.00  0.00    +0.296 C 
ATOM     28  O   UNL     1     -37.135  33.952   6.939  0.00  0.00    -0.347 OA
BRANCH   3   2
ATOM      1  C   UNL     1     -38.295  32.104   5.189  0.00  0.00    +0.129 A 
ATOM      2  C   UNL     1     -38.366  31.420   6.410  0.00  0.00    +0.140 A 
ATOM     29  C   UNL     1     -39.214  30.301   6.558  0.00  0.00    +0.063 A 
ATOM     30  C   UNL     1     -39.999  29.877   5.477  0.00  0.00    +0.041 A 
ATOM     31  C   UNL     1     -39.932  30.557   4.259  0.00  0.00    +0.033 A 
ATOM     32  C   UNL     1     -40.559  30.376   3.087  0.00  0.00    +0.074 A 
ATOM     33  C   UNL     1     -40.129  31.320   2.245  0.00  0.00    +0.227 A 
ATOM     34  N   UNL     1     -39.232  32.107   2.864  0.00  0.00    -0.237 N 
ATOM     35  H   UNL     1     -38.745  32.902   2.450  0.00  0.00    +0.245 HD
ATOM     36  C   UNL     1     -39.091  31.665   4.113  0.00  0.00    +0.117 A 
ENDBRANCH   3   2
ENDBRANCH   6   5
BRANCH  12  13
ATOM     13  C   UNL     1     -34.004  34.742  14.175  0.00  0.00    +0.039 C 
ATOM     14  N   UNL     1     -34.170  34.237  15.418  0.00  0.00    -0.227 NA
ATOM     24  C   UNL     1     -33.312  36.106  13.968  0.00  0.00    +0.108 C 
BRANCH  14  15
ATOM     15  N   UNL     1     -33.761  34.766  16.479  0.00  0.00    -0.256 N 
ATOM     16  H   UNL     1     -33.246  35.646  16.445  0.00  0.00    +0.209 HD
BRANCH  15  17
ATOM     17  C   UNL     1     -34.000  34.177  17.655  0.00  0.00    +0.136 C 
BRANCH  17  18
ATOM     18  N   UNL     1     -34.691  33.032  17.709  0.00  0.00    -0.358 NA
ATOM     19  H   UNL     1     -34.871  32.587  18.609  0.00  0.00    +0.163 HD
ATOM     20  H   UNL     1     -35.038  32.605  16.850  0.00  0.00    +0.163 HD
ENDBRANCH  17  18
BRANCH  17  21
ATOM     21  N   UNL     1     -33.623  34.749  18.788  0.00  0.00    -0.358 NA
ATOM     22  H   UNL     1     -33.811  34.289  19.679  0.00  0.00    +0.163 HD
ATOM     23  H   UNL     1     -33.144  35.650  18.770  0.00  0.00    +0.163 HD
ENDBRANCH  17  21
ENDBRANCH  15  17
ENDBRANCH  14  15
ENDBRANCH  12  13
TORSDOF 7
