REMARK  Name = 1PXM
REMARK  5 active torsions:
REMARK  status: ('A' for Active; 'I' for Inactive)
REMARK    1  A    between atoms: O_1  and  C_2
REMARK    2  A    between atoms: C_4  and  N_8
REMARK    3  A    between atoms: C_13  and  C_15
REMARK    4  A    between atoms: C_16  and  C_17
REMARK    5  A    between atoms: C_19  and  C_21
REMARK                            x       y       z     vdW  Elec       q    Type
REMARK                         _______ _______ _______ _____ _____    ______ ____
ROOT
ATOM      8  N   UNL     1      16.486  46.686  12.947  0.00  0.00    -0.283 N 
ATOM      9  H   UNL     1      16.865  47.520  13.501  0.00  0.00    +0.155 HD
ATOM     10  C   UNL     1      15.397  46.000  13.554  0.00  0.00    +0.220 A 
ATOM     11  N   UNL     1      14.644  45.144  12.907  0.00  0.00    -0.214 NA
ATOM     12  C   UNL     1      13.633  44.504  13.549  0.00  0.00    +0.084 A 
ATOM     20  C   UNL     1      13.394  44.770  14.935  0.00  0.00    +0.049 A 
ATOM     21  C   UNL     1      14.256  45.708  15.550  0.00  0.00    +0.116 A 
ATOM     22  N   UNL     1      15.240  46.299  14.844  0.00  0.00    -0.223 NA
ENDROOT
BRANCH  12  13
ATOM     13  C   UNL     1      12.866  43.565  12.786  0.00  0.00    +0.060 A 
ATOM     14  S   UNL     1      13.619  43.001  11.328  0.00  0.00    -0.071 S 
ATOM     15  C   UNL     1      12.336  42.021  10.952  0.00  0.00    +0.076 A 
ATOM     16  C   UNL     1      12.382  41.197   9.701  0.00  0.00    +0.074 C 
ATOM     17  N   UNL     1      11.347  42.057  11.828  0.00  0.00    -0.249 NA
ATOM     18  C   UNL     1      11.617  42.926  12.883  0.00  0.00    +0.055 A 
ATOM     19  C   UNL     1      10.543  43.047  13.961  0.00  0.00    +0.067 C 
ENDBRANCH  12  13
BRANCH   8   7
ATOM      3  C   UNL     1      17.600  45.230   9.526  0.00  0.00    +0.119 A 
ATOM      4  C   UNL     1      18.665  46.118   9.261  0.00  0.00    +0.045 A 
ATOM      5  C   UNL     1      18.992  47.149  10.178  0.00  0.00    +0.005 A 
ATOM      6  C   UNL     1      18.239  47.292  11.372  0.00  0.00    +0.023 A 
ATOM      7  C   UNL     1      17.167  46.420  11.675  0.00  0.00    +0.037 A 
ATOM     23  C   UNL     1      16.852  45.376  10.727  0.00  0.00    +0.068 A 
BRANCH   3   1
ATOM      1  O   UNL     1      17.324  44.261   8.606  0.00  0.00    -0.507 OA
ATOM      2  H   UNL     1      17.420  43.316   9.053  0.00  0.00    +0.292 HD
ENDBRANCH   3   1
ENDBRANCH   8   7
TORSDOF 3
