REMARK  Name = HRY
REMARK  6 active torsions:
REMARK  status: ('A' for Active; 'I' for Inactive)
REMARK    1  A    between atoms: C3_5  and  C6_8
REMARK    2  A    between atoms: N5_21  and  C23_22
REMARK    3  A    between atoms: C23_22  and  C24_23
REMARK    4  A    between atoms: C24_23  and  N6_24
REMARK    5  A    between atoms: N3_30  and  C12_31
REMARK    6  A    between atoms: C12_31  and  C13_32
REMARK                            x       y       z     vdW  Elec       q    Type
REMARK                         _______ _______ _______ _____ _____    ______ ____
ROOT
ATOM      1  N   UNL     1      15.912  -5.546  46.440  0.00  0.00    -0.214 NA
ATOM      2  C   UNL     1      15.554  -4.336  47.030  0.00  0.00    +0.087 A 
ATOM      3  C   UNL     1      15.041  -4.302  48.318  0.00  0.00    +0.019 A 
ATOM      4  C   UNL     1      14.614  -3.121  48.900  0.00  0.00    +0.002 A 
ATOM      5  C   UNL     1      14.756  -1.929  48.149  0.00  0.00    +0.002 A 
ATOM     14  C   UNL     1      15.187  -1.978  46.877  0.00  0.00    +0.004 A 
ATOM     15  C   UNL     1      15.660  -3.170  46.319  0.00  0.00    +0.051 A 
ATOM     16  C   UNL     1      16.132  -3.223  44.983  0.00  0.00    +0.152 A 
ATOM     17  N   UNL     1      16.457  -4.421  44.451  0.00  0.00    -0.197 NA
ATOM     18  N   UNL     1      16.257  -2.128  44.202  0.00  0.00    -0.215 NA
ATOM     27  C   UNL     1      16.319  -5.593  45.183  0.00  0.00    +0.221 A 
ATOM     28  N   UNL     1      16.768  -6.767  44.573  0.00  0.00    -0.275 N 
ATOM     29  C   UNL     1      16.607  -8.111  45.150  0.00  0.00    +0.111 C 
ATOM     30  C   UNL     1      15.265  -8.481  44.556  0.00  0.00    +0.094 C 
ATOM     31  N   UNL     1      15.149  -8.469  43.071  0.00  0.00    -0.269 NA
ATOM     37  C   UNL     1      15.716  -7.162  42.520  0.00  0.00    +0.094 C 
ATOM     38  C   UNL     1      17.132  -6.826  43.145  0.00  0.00    +0.111 C 
ENDROOT
BRANCH   5   6
ATOM      6  C   UNL     1      14.288  -0.624  48.734  0.00  0.00    +0.018 C 
ATOM      7  C   UNL     1      13.229  -0.670  49.631  0.00  0.00    +0.078 C 
ATOM      8  N   UNL     1      12.741   0.499  50.118  0.00  0.00    -0.292 N 
ATOM      9  C   UNL     1      11.658   0.361  51.098  0.00  0.00    +0.134 C 
ATOM     10  C   UNL     1      13.261   1.719  49.751  0.00  0.00    +0.261 C 
ATOM     11  O   UNL     1      12.709   2.773  50.227  0.00  0.00    -0.267 OA
ATOM     12  C   UNL     1      14.293   1.775  48.811  0.00  0.00    +0.061 C 
ATOM     13  C   UNL     1      14.771   0.575  48.308  0.00  0.00    +0.006 C 
ENDBRANCH   5   6
BRANCH  18  19
ATOM     19  C   UNL     1      16.539  -2.322  42.783  0.00  0.00    +0.140 C 
BRANCH  19  20
ATOM     20  C   UNL     1      15.273  -2.173  41.917  0.00  0.00    +0.000 A 
ATOM     21  C   UNL     1      14.018  -1.905  42.469  0.00  0.00    +0.009 A 
ATOM     22  C   UNL     1      12.848  -1.764  41.717  0.00  0.00    +0.057 A 
ATOM     23 CL   UNL     1      11.260  -1.419  42.554  0.00  0.00    -0.082 Cl
ATOM     24  C   UNL     1      12.965  -1.909  40.344  0.00  0.00    +0.011 A 
ATOM     25  C   UNL     1      14.197  -2.189  39.760  0.00  0.00    +0.001 A 
ATOM     26  C   UNL     1      15.354  -2.327  40.537  0.00  0.00    -0.003 A 
ENDBRANCH  19  20
ENDBRANCH  18  19
BRANCH  31  32
ATOM     32  C   UNL     1      13.730  -8.853  42.812  0.00  0.00    +0.090 C 
BRANCH  32  33
ATOM     33  C   UNL     1      13.481  -9.004  41.341  0.00  0.00    +0.090 C 
BRANCH  33  34
ATOM     34  N   UNL     1      12.200  -9.607  40.917  0.00  0.00    -0.269 NA
ATOM     35  C   UNL     1      10.940  -8.923  41.355  0.00  0.00    +0.090 C 
ATOM     36  C   UNL     1      12.274  -9.521  39.432  0.00  0.00    +0.090 C 
ENDBRANCH  33  34
ENDBRANCH  32  33
ENDBRANCH  31  32
TORSDOF 6
