REMARK  Name = 5VD0
REMARK  9 active torsions:
REMARK  status: ('A' for Active; 'I' for Inactive)
REMARK    1  A    between atoms: C_1  and  N_2
REMARK    2  A    between atoms: N_5  and  C_8
REMARK    3  A    between atoms: C_11  and  N_12
REMARK    4  A    between atoms: N_19  and  C_20
REMARK    5  A    between atoms: C_20  and  C_21
REMARK    6  A    between atoms: C_28  and  C_32
REMARK    7  A    between atoms: C_32  and  C_33
REMARK    8  A    between atoms: C_32  and  C_34
REMARK    9  A    between atoms: C_32  and  O_35
REMARK                            x       y       z     vdW  Elec       q    Type
REMARK                         _______ _______ _______ _____ _____    ______ ____
ROOT
ATOM     10  N   UNL     1     -13.281   0.560   2.049  0.00  0.00    -0.284 N 
ATOM     11  H   UNL     1     -12.721  -0.161   1.953  0.00  0.00    +0.155 HD
ATOM     12  C   UNL     1     -14.597   0.268   2.237  0.00  0.00    +0.221 A 
ATOM     13  N   UNL     1     -15.565   1.207   2.415  0.00  0.00    -0.194 NA
ATOM     14  C   UNL     1     -16.857   0.871   2.598  0.00  0.00    +0.172 A 
ATOM     15  N   UNL     1     -17.948   1.635   2.792  0.00  0.00    -0.213 N 
ATOM     16  C   UNL     1     -17.874   3.001   2.788  0.00  0.00    +0.155 A 
ATOM     17  C   UNL     1     -16.793   3.771   3.273  0.00  0.00    +0.048 A 
ATOM     18  C   UNL     1     -16.853   5.173   3.170  0.00  0.00    +0.005 A 
ATOM     19  C   UNL     1     -17.961   5.796   2.571  0.00  0.00    +0.026 A 
ATOM     20  C   UNL     1     -19.012   4.997   2.074  0.00  0.00    +0.074 A 
ATOM     26  N   UNL     1     -18.900   3.654   2.210  0.00  0.00    -0.230 NA
ATOM     27  N   UNL     1     -19.003   0.835   2.898  0.00  0.00    -0.238 N 
ATOM     31  C   UNL     1     -18.626  -0.473   2.803  0.00  0.00    +0.279 A 
ATOM     32  O   UNL     1     -19.455  -1.443   2.891  0.00  0.00    -0.265 OA
ATOM     33  C   UNL     1     -17.225  -0.452   2.604  0.00  0.00    +0.103 A 
ATOM     34  C   UNL     1     -16.250  -1.442   2.426  0.00  0.00    +0.131 A 
ATOM     35  N   UNL     1     -14.963  -1.039   2.249  0.00  0.00    -0.222 NA
ENDROOT
BRANCH  10   9
ATOM      6  C   UNL     1     -11.212   4.272   1.898  0.00  0.00    +0.030 A 
ATOM      7  C   UNL     1     -10.577   3.019   2.103  0.00  0.00    +0.025 A 
ATOM      8  C   UNL     1     -11.293   1.813   2.147  0.00  0.00    +0.025 A 
ATOM      9  C   UNL     1     -12.688   1.792   1.986  0.00  0.00    +0.034 A 
ATOM     36  C   UNL     1     -13.342   3.024   1.782  0.00  0.00    +0.025 A 
ATOM     37  C   UNL     1     -12.625   4.226   1.740  0.00  0.00    +0.025 A 
BRANCH   6   5
ATOM      1  C   UNL     1      -9.173   9.252   3.424  0.00  0.00    +0.105 C 
ATOM      2  N   UNL     1      -9.408   8.046   2.587  0.00  0.00    -0.302 NA
ATOM      3  C   UNL     1      -8.842   6.789   3.167  0.00  0.00    +0.103 C 
ATOM      4  C   UNL     1      -9.072   5.596   2.196  0.00  0.00    +0.120 C 
ATOM      5  N   UNL     1     -10.486   5.474   1.859  0.00  0.00    -0.328 N 
ATOM     38  C   UNL     1     -11.001   6.690   1.246  0.00  0.00    +0.120 C 
ATOM     39  C   UNL     1     -10.842   7.886   2.215  0.00  0.00    +0.103 C 
ENDBRANCH   6   5
ENDBRANCH  10   9
BRANCH  20  21
ATOM     21  C   UNL     1     -20.238   5.550   1.432  0.00  0.00    +0.102 C 
ATOM     24  C   UNL     1     -20.611   4.678   0.199  0.00  0.00    +0.048 C 
ATOM     25  C   UNL     1     -21.432   5.565   2.427  0.00  0.00    +0.048 C 
BRANCH  21  22
ATOM     22  O   UNL     1     -20.018   6.891   0.980  0.00  0.00    -0.383 OA
ATOM     23  H   UNL     1     -20.147   7.457   1.656  0.00  0.00    +0.211 HD
ENDBRANCH  21  22
ENDBRANCH  20  21
BRANCH  27  28
ATOM     28  C   UNL     1     -20.378   1.214   3.130  0.00  0.00    +0.172 C 
BRANCH  28  29
ATOM     29  C   UNL     1     -20.707   0.798   4.480  0.00  0.00    -0.012 C 
ATOM     30  C   UNL     1     -21.751   0.017   4.782  0.00  0.00    +0.005 C 
ENDBRANCH  28  29
ENDBRANCH  27  28
TORSDOF 6
