REMARK  Name = 4txc_ligand
REMARK  13 active torsions:
REMARK  status: ('A' for Active; 'I' for Inactive)
REMARK    1  A    between atoms: CBF_1  and  OBE_2
REMARK    2  A    between atoms: OBE_2  and  CAZ_3
REMARK    3  A    between atoms: CBA_5  and  OBD_6
REMARK    4  A    between atoms: CAX_9  and  CAV_10
REMARK    5  A    between atoms: CAG_18  and  CAB_19
REMARK    6  A    between atoms: CAF_24  and  CAH_25
REMARK    7  A    between atoms: CAH_25  and  OAI_26
REMARK    8  A    between atoms: CAH_25  and  NAJ_27
REMARK    9  A    between atoms: NAJ_27  and  CAK_28
REMARK   10  A    between atoms: CAK_28  and  CAL_29
REMARK   11  A    between atoms: CAL_29  and  NAM_30
REMARK   12  A    between atoms: NAM_30  and  CAO_31
REMARK   13  A    between atoms: NAM_30  and  CAN_32
REMARK                            x       y       z     vdW  Elec       q    Type
REMARK                         _______ _______ _______ _____ _____    ______ ____
ROOT
ATOM      8  C   UNL     1      61.170  90.904  13.310  0.00  0.00    +0.061 C 
ATOM      9  N   UNL     1      60.528  89.891  13.898  0.00  0.00    -0.255 NA
ATOM     10  N   UNL     1      59.430  89.451  13.398  0.00  0.00    -0.227 N 
ATOM     11  C   UNL     1      58.693  88.406  13.792  0.00  0.00    +0.149 C 
ATOM     30  C   UNL     1      57.610  88.326  13.000  0.00  0.00    +0.338 C 
ATOM     31  N   UNL     1      57.670  89.324  12.098  0.00  0.00    -0.185 N 
ATOM     32  H   UNL     1      56.981  89.526  11.360  0.00  0.00    +0.276 HD
ATOM     33  C   UNL     1      58.796  90.002  12.344  0.00  0.00    +0.198 C 
ATOM     34  C   UNL     1      59.333  91.063  11.755  0.00  0.00    +0.122 C 
ATOM     35  C   UNL     1      60.533  91.562  12.258  0.00  0.00    +0.085 C 
ENDROOT
BRANCH   8   7
ATOM      3  C   UNL     1      63.889  91.698  15.635  0.00  0.00    +0.127 A 
ATOM      4  C   UNL     1      64.563  92.689  14.910  0.00  0.00    +0.125 A 
ATOM      5  C   UNL     1      64.149  93.083  13.640  0.00  0.00    +0.021 A 
ATOM      6  C   UNL     1      63.019  92.454  13.128  0.00  0.00    -0.006 A 
ATOM      7  C   UNL     1      62.318  91.480  13.854  0.00  0.00    -0.005 A 
ATOM     38  C   UNL     1      62.758  91.077  15.110  0.00  0.00    +0.033 A 
BRANCH   3   2
ATOM      1  C   UNL     1      63.686  90.367  17.566  0.00  0.00    +0.229 C 
ATOM      2  O   UNL     1      64.403  91.385  16.866  0.00  0.00    -0.323 OA
ENDBRANCH   3   2
BRANCH   4  36
ATOM     36  O   UNL     1      65.664  93.223  15.493  0.00  0.00    -0.331 OA
ATOM     37  H   UNL     1      66.039  93.880  14.918  0.00  0.00    +0.248 HD
ENDBRANCH   4  36
ENDBRANCH   8   7
BRANCH  11  12
ATOM     12  C   UNL     1      58.948  87.565  14.823  0.00  0.00    +0.050 A 
ATOM     13  C   UNL     1      58.088  86.497  15.076  0.00  0.00    +0.056 A 
ATOM     14  C   UNL     1      58.337  85.617  16.138  0.00  0.00    +0.033 A 
ATOM     15  C   UNL     1      59.445  85.791  16.966  0.00  0.00    +0.059 A 
ATOM     16  C   UNL     1      60.298  86.867  16.742  0.00  0.00    +0.061 A 
ATOM     29  C   UNL     1      60.049  87.728  15.677  0.00  0.00    +0.062 A 
BRANCH  16  17
ATOM     17  C   UNL     1      61.448  87.047  17.527  0.00  0.00    +0.258 C 
BRANCH  17  18
ATOM     18  N   UNL     1      61.631  85.912  18.447  0.00  0.00    +0.266 N 
ATOM     19  H   UNL     1      60.904  85.937  19.144  0.00  0.00    +0.206 HD
ATOM     20  H   UNL     1      61.565  85.054  17.923  0.00  0.00    +0.206 HD
BRANCH  18  21
ATOM     21  C   UNL     1      62.938  85.959  19.121  0.00  0.00    +0.185 C 
BRANCH  21  22
ATOM     22  C   UNL     1      64.057  85.886  18.063  0.00  0.00    +0.182 C 
BRANCH  22  23
ATOM     23  N   UNL     1      65.388  85.882  18.692  0.00  0.00    +0.235 N 
ATOM     24  H   UNL     1      66.104  85.860  17.983  0.00  0.00    +0.203 HD
ATOM     25  C   UNL     1      65.534  87.090  19.519  0.00  0.00    +0.190 C 
ATOM     26  C   UNL     1      65.504  84.700  19.563  0.00  0.00    +0.190 C 
ENDBRANCH  22  23
ENDBRANCH  21  22
ENDBRANCH  18  21
ENDBRANCH  17  18
BRANCH  17  27
ATOM     27  O   UNL     1      61.397  88.278  18.261  0.00  0.00    -0.340 OA
ATOM     28  H   UNL     1      62.209  88.394  18.740  0.00  0.00    +0.219 HD
ENDBRANCH  17  27
ENDBRANCH  16  17
ENDBRANCH  11  12
TORSDOF 10
