REMARK  Name = 3cqw_ligand
REMARK  0 active torsions:
REMARK  status: ('A' for Active; 'I' for Inactive)
REMARK                            x       y       z     vdW  Elec       q    Type
REMARK                         _______ _______ _______ _____ _____    ______ ____
ROOT
ATOM      1  C   UNL     1       3.505   3.664  15.779  0.00  0.00    +0.137 A 
ATOM      2  N   UNL     1       3.536   4.998  15.813  0.00  0.00    -0.277 NA
ATOM      3  C   UNL     1       4.660   5.653  16.133  0.00  0.00    +0.148 A 
ATOM      4  N   UNL     1       5.769   4.966  16.399  0.00  0.00    -0.273 NA
ATOM      5  C   UNL     1       5.810   3.628  16.424  0.00  0.00    +0.123 A 
ATOM      6  N   UNL     1       7.058   3.039  16.720  0.00  0.00    -0.281 N 
ATOM      7  C   UNL     1       8.269   3.879  16.878  0.00  0.00    +0.153 C 
ATOM      8  C   UNL     1       8.448   4.416  18.316  0.00  0.00    +0.104 C 
ATOM      9  C   UNL     1       8.154   3.392  19.370  0.00  0.00    +0.052 A 
ATOM     10  N   UNL     1       8.556   3.312  20.686  0.00  0.00    -0.271 N 
ATOM     11  H   UNL     1       9.044   4.046  21.220  0.00  0.00    +0.235 HD
ATOM     12  C   UNL     1       8.194   2.098  21.147  0.00  0.00    +0.197 A 
ATOM     13  N   UNL     1       7.621   1.413  20.162  0.00  0.00    -0.337 NA
ATOM     14  C   UNL     1       7.598   2.215  19.042  0.00  0.00    +0.012 A 
ATOM     15  C   UNL     1       7.164   1.879  17.636  0.00  0.00    +0.177 C 
ATOM     16  N   UNL     1       2.462   2.791  15.504  0.00  0.00    -0.265 N 
ATOM     17  H   UNL     1       1.494   3.065  15.282  0.00  0.00    +0.233 HD
ATOM     18  C   UNL     1       2.929   1.505  15.576  0.00  0.00    +0.134 A 
ATOM     19  C   UNL     1       4.238   1.487  15.880  0.00  0.00    +0.045 A 
ATOM     20 CL   UNL     1       5.189   0.034  16.018  0.00  0.00    -0.104 Cl
ATOM     21  C   UNL     1       4.655   2.897  16.070  0.00  0.00    +0.057 A 
ENDROOT
TORSDOF 0
