REMARK  Name = 3AC2
REMARK  13 active torsions:
REMARK  status: ('A' for Active; 'I' for Inactive)
REMARK    1  A    between atoms: C_1  and  N_17
REMARK    2  A    between atoms: C_5  and  C_24
REMARK    3  A    between atoms: C_6  and  N_11
REMARK    4  A    between atoms: C_8  and  C_10
REMARK    5  A    between atoms: N_11  and  C_12
REMARK    6  A    between atoms: C_12  and  C_13
REMARK    7  A    between atoms: C_13  and  N_14
REMARK    8  A    between atoms: C_13  and  C_15
REMARK    9  A    between atoms: C_13  and  C_16
REMARK   10  A    between atoms: C_20  and  O_27
REMARK   11  A    between atoms: C_22  and  O_28
REMARK   12  A    between atoms: O_27  and  C_30
REMARK   13  A    between atoms: O_28  and  C_29
REMARK                            x       y       z     vdW  Elec       q    Type
REMARK                         _______ _______ _______ _____ _____    ______ ____
ROOT
ATOM      1  C   UNL     1      26.457  37.021   8.741  0.00  0.00    +0.207 C 
ATOM     13  C   UNL     1      25.052  37.444   8.702  0.00  0.00    +0.105 C 
ATOM     19  C   UNL     1      24.406  36.572   7.716  0.00  0.00    +0.162 C 
ATOM     20  N   UNL     1      23.130  36.535   7.272  0.00  0.00    -0.233 NA
ATOM     21  C   UNL     1      22.846  35.618   6.322  0.00  0.00    +0.044 C 
ATOM     22  C   UNL     1      21.440  35.486   5.791  0.00  0.00    +0.066 C 
ATOM     23  C   UNL     1      23.870  34.786   5.838  0.00  0.00    +0.066 C 
ATOM     24  C   UNL     1      25.173  34.893   6.341  0.00  0.00    +0.117 C 
ATOM     34  N   UNL     1      25.411  35.802   7.289  0.00  0.00    -0.242 N 
ATOM     35  N   UNL     1      26.689  36.022   7.856  0.00  0.00    -0.191 NA
ATOM     36  H   UNL     1      27.610  35.523   7.639  0.00  0.00    +0.150 HD
ENDROOT
BRANCH   1   2
ATOM      2  N   UNL     1      27.366  37.607   9.544  0.00  0.00    -0.251 NA
ATOM      3  C   UNL     1      28.683  37.271   9.517  0.00  0.00    +0.068 C 
ATOM      4  C   UNL     1      29.214  36.346   8.598  0.00  0.00    +0.069 C 
ATOM      5  C   UNL     1      30.580  36.012   8.628  0.00  0.00    +0.107 C 
ATOM      8  C   UNL     1      31.405  36.627   9.565  0.00  0.00    +0.147 C 
ATOM      9  C   UNL     1      30.874  37.547  10.475  0.00  0.00    +0.107 C 
ATOM     12  C   UNL     1      29.516  37.876  10.451  0.00  0.00    +0.069 C 
BRANCH   5   6
ATOM      6  O   UNL     1      31.117  35.083   7.760  0.00  0.00    -0.499 OA
ATOM      7  C   UNL     1      32.439  35.214   7.218  0.00  0.00    +0.276 C 
ENDBRANCH   5   6
BRANCH   9  10
ATOM     10  O   UNL     1      31.694  38.102  11.422  0.00  0.00    -0.499 OA
ATOM     11  C   UNL     1      32.698  37.271  12.026  0.00  0.00    +0.276 C 
ENDBRANCH   9  10
ENDBRANCH   1   2
BRANCH  13  14
ATOM     14  C   UNL     1      24.383  38.473   9.514  0.00  0.00    +0.245 C 
ATOM     15  N   UNL     1      23.034  38.551   9.597  0.00  0.00    -0.325 N 
ATOM     16  H   UNL     1      22.578  39.311  10.196  0.00  0.00    +0.145 HD
ATOM     17  H   UNL     1      22.424  37.852   9.063  0.00  0.00    +0.145 HD
ATOM     18  O   UNL     1      25.174  39.203  10.078  0.00  0.00    -0.271 OA
ENDBRANCH  13  14
BRANCH  24  25
ATOM     25  N   UNL     1      26.171  34.096   5.884  0.00  0.00    -0.328 NA
ATOM     26  H   UNL     1      26.717  34.380   5.009  0.00  0.00    +0.147 HD
BRANCH  25  27
ATOM     27  C   UNL     1      26.506  32.858   6.572  0.00  0.00    +0.124 C 
BRANCH  27  28
ATOM     28  C   UNL     1      27.843  32.338   6.049  0.00  0.00    +0.026 C 
ATOM     29  C   UNL     1      27.597  31.628   4.714  0.00  0.00    +0.029 C 
ATOM     30  C   UNL     1      28.858  33.479   5.888  0.00  0.00    +0.029 C 
BRANCH  28  31
ATOM     31  N   UNL     1      28.372  31.376   7.025  0.00  0.00    -0.324 NA
ATOM     32  H   UNL     1      28.509  31.863   7.968  0.00  0.00    +0.119 HD
ATOM     33  H   UNL     1      27.681  30.567   7.139  0.00  0.00    +0.119 HD
ENDBRANCH  28  31
ENDBRANCH  27  28
ENDBRANCH  25  27
ENDBRANCH  24  25
TORSDOF 8
