REMARK  Name = 5IDP
REMARK  4 active torsions:
REMARK  status: ('A' for Active; 'I' for Inactive)
REMARK    1  A    between atoms: C_4  and  C_7
REMARK    2  A    between atoms: C_10  and  C_11
REMARK    3  A    between atoms: C_45  and  O_47
REMARK    4  A    between atoms: C_50  and  O_52
REMARK                            x       y       z     vdW  Elec       q    Type
REMARK                         _______ _______ _______ _____ _____    ______ ____
ROOT
ATOM      1  C   UNL     1      -5.746 -13.194  16.764  0.00  0.00    +0.443 C 
ATOM      4  O   UNL     1      -4.959 -13.322  15.837  0.00  0.00    -0.255 OA
ENDROOT
BRANCH   1   2
ATOM      2  O   UNL     1      -5.286 -13.231  18.015  0.00  0.00    -0.483 OA
ATOM      3  H   UNL     1      -5.949 -13.123  18.822  0.00  0.00    +0.295 HD
ENDBRANCH   1   2
TORSDOF 1
