REMARK  Name = 15G
REMARK  5 active torsions:
REMARK  status: ('A' for Active; 'I' for Inactive)
REMARK    1  A    between atoms: C14_11  and  C15_12
REMARK    2  A    between atoms: C19_14  and  C20_15
REMARK    3  A    between atoms: C20_15  and  O3_23
REMARK    4  A    between atoms: C17_19  and  O2_22
REMARK    5  A    between atoms: O3_23  and  C4_24
REMARK                            x       y       z     vdW  Elec       q    Type
REMARK                         _______ _______ _______ _____ _____    ______ ____
ROOT
ATOM      8  C   UNL     1      36.297 -15.046  28.318  0.00  0.00    +0.103 A 
ATOM      9  N   UNL     1      36.567 -14.162  29.362  0.00  0.00    -0.241 NA
ATOM     10  C   UNL     1      37.201 -13.003  29.104  0.00  0.00    +0.135 A 
ATOM     11  C   UNL     1      37.610 -12.688  27.726  0.00  0.00    +0.159 A 
ATOM     14  C   UNL     1      37.340 -13.615  26.632  0.00  0.00    +0.054 A 
ATOM     25  C   UNL     1      36.644 -14.868  26.953  0.00  0.00    +0.023 A 
ENDROOT
BRANCH  14  15
ATOM     15  C   UNL     1      37.763 -13.385  25.207  0.00  0.00    +0.084 A 
ATOM     16  C   UNL     1      38.389 -12.231  24.749  0.00  0.00    +0.025 A 
ATOM     17  C   UNL     1      38.587 -12.505  23.394  0.00  0.00    +0.070 A 
ATOM     18  C   UNL     1      38.079 -13.771  23.142  0.00  0.00    +0.065 A 
ATOM     19  C   UNL     1      38.123 -14.395  21.766  0.00  0.00    +0.069 C 
ATOM     20  C   UNL     1      38.370 -13.266  20.770  0.00  0.00    +0.122 C 
ATOM     21  N   UNL     1      39.157 -12.127  21.249  0.00  0.00    -0.201 NA
ATOM     22  C   UNL     1      39.170 -11.690  22.448  0.00  0.00    +0.266 C 
ATOM     23  O   UNL     1      39.684 -10.610  22.706  0.00  0.00    -0.268 OA
ATOM     24  N   UNL     1      37.572 -14.312  24.254  0.00  0.00    -0.249 NA
ENDBRANCH  14  15
BRANCH  11  12
ATOM     12  O   UNL     1      38.275 -11.437  27.604  0.00  0.00    -0.470 OA
ATOM     13  C   UNL     1      37.641 -10.321  27.943  0.00  0.00    +0.253 C 
ENDBRANCH  11  12
BRANCH   8   7
ATOM      7  C   UNL     1      35.551 -16.266  28.643  0.00  0.00    +0.251 C 
BRANCH   7   6
ATOM      6  O   UNL     1      36.310 -17.417  28.554  0.00  0.00    -0.469 OA
BRANCH   6   5
ATOM      1  C   UNL     1      34.166 -21.021  28.116  0.00  0.00    +0.168 A 
ATOM      2  C   UNL     1      33.615 -19.942  28.934  0.00  0.00    +0.170 A 
ATOM      3  F   UNL     1      32.469 -20.103  29.497  0.00  0.00    -0.202 F 
ATOM      4  C   UNL     1      34.313 -18.731  29.100  0.00  0.00    +0.069 A 
ATOM      5  C   UNL     1      35.600 -18.619  28.409  0.00  0.00    +0.141 A 
ATOM     26  C   UNL     1      36.182 -19.697  27.576  0.00  0.00    +0.039 A 
ATOM     27  F   UNL     1      33.462 -22.138  28.006  0.00  0.00    -0.202 F 
ATOM     28  C   UNL     1      35.450 -20.950  27.413  0.00  0.00    +0.035 A 
ENDBRANCH   6   5
ENDBRANCH   7   6
ENDBRANCH   8   7
TORSDOF 5
