REMARK  Name = 4QD6
REMARK  7 active torsions:
REMARK  status: ('A' for Active; 'I' for Inactive)
REMARK    1  A    between atoms: C_2  and  S_7
REMARK    2  A    between atoms: C_4  and  N_16
REMARK    3  A    between atoms: S_7  and  C_8
REMARK    4  A    between atoms: N_16  and  C_23
REMARK    5  A    between atoms: N_17  and  C_18
REMARK    6  A    between atoms: C_20  and  C_30
REMARK    7  A    between atoms: C_26  and  O_29
REMARK                            x       y       z     vdW  Elec       q    Type
REMARK                         _______ _______ _______ _____ _____    ______ ____
ROOT
ATOM      1  C   UNL     1       5.221  24.441  20.693  0.00  0.00    +0.073 C 
ATOM      2  C   UNL     1       3.864  24.125  20.708  0.00  0.00    +0.132 C 
ATOM      3  N   UNL     1       3.269  23.733  21.843  0.00  0.00    -0.227 NA
ATOM     15  N   UNL     1       3.090  24.244  19.613  0.00  0.00    -0.329 N 
ATOM     16  H   UNL     1       2.047  24.011  19.669  0.00  0.00    +0.169 HD
ATOM     17  C   UNL     1       3.621  24.653  18.452  0.00  0.00    +0.100 C 
ATOM     28  C   UNL     1       4.998  24.971  18.359  0.00  0.00    +0.069 C 
ATOM     29  C   UNL     1       5.792  24.863  19.505  0.00  0.00    +0.100 C 
ENDROOT
BRANCH   3   4
ATOM      4  C   UNL     1       1.934  23.530  21.910  0.00  0.00    +0.244 C 
ATOM      5  N   UNL     1       1.558  23.213  23.132  0.00  0.00    -0.147 NA
ATOM      6  N   UNL     1       0.197  22.957  23.171  0.00  0.00    -0.151 NA
ATOM      7  C   UNL     1      -0.184  23.156  21.933  0.00  0.00    +0.093 C 
ATOM     14  C   UNL     1       0.845  23.510  21.067  0.00  0.00    +0.063 C 
BRANCH   7   8
ATOM      8  C   UNL     1      -1.618  22.926  21.827  0.00  0.00    +0.002 C 
ATOM      9  C   UNL     1      -2.283  23.300  20.662  0.00  0.00    +0.010 C 
ATOM     10  C   UNL     1      -3.672  23.070  20.580  0.00  0.00    +0.001 C 
ATOM     11  C   UNL     1      -4.329  22.467  21.643  0.00  0.00    +0.000 C 
ATOM     12  C   UNL     1      -3.600  22.106  22.800  0.00  0.00    +0.001 C 
ATOM     13  C   UNL     1      -2.241  22.351  22.920  0.00  0.00    +0.010 C 
ENDBRANCH   7   8
ENDBRANCH   3   4
BRANCH  29  30
ATOM     30  S   UNL     1       7.357  25.219  19.522  0.00  0.00    +0.025 S 
ATOM     31  O   UNL     1       8.160  24.110  19.995  0.00  0.00    -0.164 OA
ATOM     32  O   UNL     1       7.740  25.606  18.194  0.00  0.00    -0.164 OA
BRANCH  30  33
ATOM     33  C   UNL     1       7.754  26.419  20.540  0.00  0.00    +0.094 C 
ATOM     34  C   UNL     1       8.650  26.159  21.592  0.00  0.00    +0.027 C 
ATOM     35  C   UNL     1       9.041  27.151  22.494  0.00  0.00    +0.002 C 
ATOM     36  C   UNL     1       8.518  28.435  22.337  0.00  0.00    +0.000 C 
ATOM     37  C   UNL     1       7.626  28.709  21.294  0.00  0.00    +0.002 C 
ATOM     38  C   UNL     1       7.248  27.716  20.394  0.00  0.00    +0.027 C 
ENDBRANCH  30  33
ENDBRANCH  29  30
BRANCH  17  18
ATOM     18  N   UNL     1       2.738  24.707  17.426  0.00  0.00    -0.328 NA
ATOM     19  H   UNL     1       2.995  25.257  16.545  0.00  0.00    +0.148 HD
BRANCH  18  20
ATOM     20  C   UNL     1       1.444  24.034  17.492  0.00  0.00    +0.072 C 
ATOM     21  C   UNL     1       0.444  24.783  16.619  0.00  0.00    +0.025 C 
ATOM     22  C   UNL     1      -0.921  24.124  16.458  0.00  0.00    +0.033 C 
ATOM     23  C   UNL     1      -0.853  22.626  16.140  0.00  0.00    +0.115 C 
ATOM     26  C   UNL     1       0.259  21.888  16.908  0.00  0.00    +0.033 C 
ATOM     27  C   UNL     1       1.597  22.624  16.937  0.00  0.00    +0.025 C 
BRANCH  23  24
ATOM     24  O   UNL     1      -2.112  22.039  16.500  0.00  0.00    -0.392 OA
ATOM     25  H   UNL     1      -2.111  21.021  16.243  0.00  0.00    +0.210 HD
ENDBRANCH  23  24
ENDBRANCH  18  20
ENDBRANCH  17  18
TORSDOF 7
