REMARK  Name = 1OZ1
REMARK  3 active torsions:
REMARK  status: ('A' for Active; 'I' for Inactive)
REMARK    1  A    between atoms: O_1  and  N_2
REMARK    2  A    between atoms: C_9  and  C_10
REMARK    3  A    between atoms: C_17  and  C_18
REMARK                            x       y       z     vdW  Elec       q    Type
REMARK                         _______ _______ _______ _____ _____    ______ ____
ROOT
ATOM      3  N   UNL     1      21.696  14.016  33.060  0.00  0.00    -0.221 N 
ATOM      4  C   UNL     1      20.770  13.000  32.792  0.00  0.00    +0.087 A 
ATOM     11  C   UNL     1      19.526  13.682  32.598  0.00  0.00    +0.036 A 
ATOM     19  C   UNL     1      19.784  15.096  32.764  0.00  0.00    +0.099 A 
ATOM     20  N   UNL     1      18.911  16.164  32.678  0.00  0.00    -0.253 NA
ATOM     21  C   UNL     1      19.449  17.395  32.913  0.00  0.00    +0.111 A 
ATOM     22  C   UNL     1      20.794  17.645  33.206  0.00  0.00    +0.022 A 
ATOM     23  C   UNL     1      21.692  16.569  33.274  0.00  0.00    +0.032 A 
ATOM     24  C   UNL     1      21.148  15.274  33.056  0.00  0.00    +0.096 A 
ENDROOT
BRANCH  11  12
ATOM     12  C   UNL     1      18.219  13.065  32.310  0.00  0.00    -0.014 A 
ATOM     13  C   UNL     1      17.432  13.449  31.202  0.00  0.00    +0.011 A 
ATOM     14  C   UNL     1      16.190  12.843  30.970  0.00  0.00    +0.039 A 
ATOM     15  C   UNL     1      15.722  11.850  31.850  0.00  0.00    +0.123 A 
ATOM     16  F   UNL     1      14.535  11.256  31.614  0.00  0.00    -0.205 F 
ATOM     17  C   UNL     1      16.479  11.442  32.948  0.00  0.00    +0.039 A 
ATOM     18  C   UNL     1      17.720  12.065  33.183  0.00  0.00    +0.011 A 
ENDBRANCH  11  12
BRANCH   4   5
ATOM      5  C   UNL     1      21.197  11.567  32.722  0.00  0.00    +0.004 A 
ATOM      6  C   UNL     1      20.660  10.674  31.771  0.00  0.00    +0.029 A 
ATOM      7  C   UNL     1      21.123   9.357  31.723  0.00  0.00    +0.111 A 
ATOM      8  N   UNL     1      22.085   8.874  32.542  0.00  0.00    -0.263 NA
ATOM      9  C   UNL     1      22.620   9.738  33.459  0.00  0.00    +0.111 A 
ATOM     10  C   UNL     1      22.209  11.069  33.582  0.00  0.00    +0.029 A 
ENDBRANCH   4   5
BRANCH   3   1
ATOM      1  O   UNL     1      22.958  13.816  33.269  0.00  0.00    -0.282 OA
ATOM      2  H   UNL     1      23.343  12.839  33.265  0.00  0.00    +0.245 HD
ENDBRANCH   3   1
TORSDOF 3
