REMARK  Name = 5owl
REMARK  3 active torsions:
REMARK  status: ('A' for Active; 'I' for Inactive)
REMARK    1  A    between atoms: C14_7  and  C15_10
REMARK    2  A    between atoms: C14_7  and  N7_13
REMARK    3  A    between atoms: C16_8  and  C15_10
REMARK                            x       y       z     vdW  Elec       q    Type
REMARK                         _______ _______ _______ _____ _____    ______ ____
ROOT
ATOM      1  C   UNL     1      -5.205 -46.144   4.889  0.00  0.00    +0.105 A 
ATOM      2  C   UNL     1      -5.984 -45.098   4.320  0.00  0.00    +0.061 A 
ATOM      3 BR   UNL     1      -6.119 -44.950   2.386  0.00  0.00    -0.047 Br
ATOM      4  C   UNL     1      -6.644 -44.191   5.149  0.00  0.00    +0.049 A 
ATOM      5 BR   UNL     1      -7.714 -42.758   4.389  0.00  0.00    -0.048 Br
ATOM      6  C   UNL     1      -6.538 -44.311   6.538  0.00  0.00    +0.049 A 
ATOM      7 BR   UNL     1      -7.451 -43.054   7.711  0.00  0.00    -0.048 Br
ATOM      8  C   UNL     1      -5.776 -45.334   7.094  0.00  0.00    +0.059 A 
ATOM      9 BR   UNL     1      -5.676 -45.439   9.030  0.00  0.00    -0.047 Br
ATOM     10  N   UNL     1      -4.473 -47.143   4.324  0.00  0.00    -0.235 NA
ATOM     11  C   UNL     1      -3.937 -47.854   5.299  0.00  0.00    +0.200 A 
ATOM     12  N   UNL     1      -4.287 -47.352   6.472  0.00  0.00    -0.330 N 
ATOM     17  C   UNL     1      -5.096 -46.267   6.255  0.00  0.00    +0.085 A 
ENDROOT
BRANCH  12  13
ATOM     13  C   UNL     1      -3.874 -47.910   7.751  0.00  0.00    +0.125 C 
BRANCH  13  14
ATOM     14  C   UNL     1      -2.911 -47.015   8.528  0.00  0.00    +0.037 C 
BRANCH  14  15
ATOM     15  C   UNL     1      -2.825 -47.434   9.995  0.00  0.00    +0.079 C 
ATOM     16  N   UNL     1      -3.330 -46.388  10.867  0.00  0.00    -0.094 NA
ENDBRANCH  14  15
ENDBRANCH  13  14
ENDBRANCH  12  13
TORSDOF 3
