REMARK  Name = 069
REMARK  2 active torsions:
REMARK  status: ('A' for Active; 'I' for Inactive)
REMARK    1  A    between atoms: C1_4  and  C_5
REMARK    2  A    between atoms: C1_15  and  C_16
REMARK                            x       y       z     vdW  Elec       q    Type
REMARK                         _______ _______ _______ _____ _____    ______ ____
ROOT
ATOM      1  C   UNL     1      17.074  25.774  29.133  0.00  0.00    +0.196 A 
ATOM      2  O   UNL     1      16.109  26.383  29.861  0.00  0.00    -0.287 OA
ATOM      3  C   UNL     1      18.368  26.249  29.272  0.00  0.00    +0.044 A 
ATOM      4  C   UNL     1      19.406  25.708  28.533  0.00  0.00    +0.026 A 
ATOM      9  C   UNL     1      19.101  24.639  27.655  0.00  0.00    +0.002 A 
ATOM     10  C   UNL     1      17.792  24.145  27.538  0.00  0.00    +0.003 A 
ATOM     11  C   UNL     1      16.748  24.727  28.284  0.00  0.00    +0.042 A 
ENDROOT
BRANCH   4   5
ATOM      5  C   UNL     1      20.840  26.327  28.671  0.00  0.00    +0.110 C 
ATOM      6  O   UNL     1      21.073  27.261  29.469  0.00  0.00    -0.536 OA
ATOM      7  N   UNL     1      21.739  25.845  27.804  0.00  0.00    -0.198 NA
ATOM      8  O   UNL     1      23.034  26.319  27.739  0.00  0.00    -0.402 OA
ENDBRANCH   4   5
TORSDOF 1
