REMARK  Name = 3hub_ligand
REMARK  10 active torsions:
REMARK  status: ('A' for Active; 'I' for Inactive)
REMARK    1  A    between atoms: CAC_1  and  NBG_2
REMARK    2  A    between atoms: NBG_2  and  CAD_3
REMARK    3  A    between atoms: CAV_4  and  CAU_6
REMARK    4  A    between atoms: CAU_6  and  CBB_8
REMARK    5  A    between atoms: NBJ_12  and  CAE_13
REMARK    6  A    between atoms: CBA_18  and  CAW_19
REMARK    7  A    between atoms: CBF_22  and  CAB_24
REMARK    8  A    between atoms: CBE_26  and  CAA_27
REMARK    9  A    between atoms: NBH_28  and  CAR_29
REMARK   10  A    between atoms: CAR_29  and  CAZ_30
REMARK                            x       y       z     vdW  Elec       q    Type
REMARK                         _______ _______ _______ _____ _____    ______ ____
ROOT
ATOM     12  C   UNL     1      19.633   1.890 -24.952  0.00  0.00    +0.200 C 
ATOM     13  N   UNL     1      19.981   1.129 -23.883  0.00  0.00    -0.261 N 
ATOM     14  C   UNL     1      19.719   1.661 -22.487  0.00  0.00    +0.192 C 
ATOM     15  C   UNL     1      20.887   1.535 -21.550  0.00  0.00    +0.085 C 
ATOM     16  N   UNL     1      21.256   0.104 -21.676  0.00  0.00    +0.252 N 
ATOM     17  H   UNL     1      20.422  -0.420 -21.461  0.00  0.00    +0.205 HD
ATOM     26  C   UNL     1      21.681  -0.288 -23.043  0.00  0.00    +0.161 C 
ATOM     27  C   UNL     1      21.930   2.543 -22.067  0.00  0.00    +0.066 C 
ATOM     28  C   UNL     1      20.504  -0.238 -23.971  0.00  0.00    +0.142 C 
ATOM     29  C   UNL     1      19.429  -1.235 -23.452  0.00  0.00    +0.039 C 
ATOM     30  O   UNL     1      19.820   1.520 -26.097  0.00  0.00    -0.389 OA
ENDROOT
BRANCH  12  11
ATOM      5  C   UNL     1      19.911   6.916 -24.988  0.00  0.00    +0.051 A 
ATOM      6  C   UNL     1      19.051   7.834 -24.503  0.00  0.00    +0.162 A 
ATOM      7  N   UNL     1      18.040   7.188 -23.904  0.00  0.00    -0.256 N 
ATOM      8  C   UNL     1      18.215   5.856 -24.023  0.00  0.00    +0.077 A 
ATOM      9  C   UNL     1      17.462   4.754 -23.611  0.00  0.00    +0.034 A 
ATOM     10  C   UNL     1      17.907   3.474 -23.905  0.00  0.00    +0.046 A 
ATOM     11  C   UNL     1      19.093   3.287 -24.636  0.00  0.00    +0.047 A 
ATOM     31  C   UNL     1      19.840   4.368 -25.065  0.00  0.00    +0.009 A 
ATOM     32 CL   UNL     1      16.903   2.158 -23.379  0.00  0.00    -0.074 Cl
ATOM     33  C   UNL     1      16.963   7.846 -23.196  0.00  0.00    +0.217 C 
ATOM     34  C   UNL     1      19.406   5.650 -24.746  0.00  0.00    -0.001 A 
BRANCH   5   4
ATOM      4  C   UNL     1      21.124   7.188 -25.885  0.00  0.00    +0.213 C 
ATOM     35  O   UNL     1      21.521   6.257 -26.574  0.00  0.00    -0.359 OA
BRANCH   4   3
ATOM      1  C   UNL     1      23.334   7.509 -27.914  0.00  0.00    +0.170 C 
ATOM      2  N   UNL     1      22.782   8.699 -27.148  0.00  0.00    -0.270 N 
ATOM      3  C   UNL     1      21.749   8.585 -26.231  0.00  0.00    +0.263 C 
ATOM     36  O   UNL     1      21.304   9.542 -25.595  0.00  0.00    -0.362 OA
ATOM     37  C   UNL     1      23.385  10.028 -27.380  0.00  0.00    +0.170 C 
ENDBRANCH   4   3
ENDBRANCH   5   4
ENDBRANCH  12  11
BRANCH  16  18
ATOM     18  C   UNL     1      22.279  -0.319 -20.746  0.00  0.00    +0.195 C 
BRANCH  18  19
ATOM     19  C   UNL     1      22.789  -1.777 -20.874  0.00  0.00    -0.002 A 
ATOM     20  C   UNL     1      21.967  -2.833 -20.428  0.00  0.00    -0.002 A 
ATOM     21  C   UNL     1      22.435  -4.158 -20.498  0.00  0.00    +0.024 A 
ATOM     22  C   UNL     1      23.728  -4.415 -20.984  0.00  0.00    +0.125 A 
ATOM     23  F   UNL     1      24.168  -5.704 -21.034  0.00  0.00    -0.189 F 
ATOM     24  C   UNL     1      24.550  -3.355 -21.439  0.00  0.00    +0.024 A 
ATOM     25  C   UNL     1      24.091  -2.030 -21.383  0.00  0.00    -0.002 A 
ENDBRANCH  18  19
ENDBRANCH  16  18
TORSDOF 5
