REMARK  Name = 5VCY
REMARK  13 active torsions:
REMARK  status: ('A' for Active; 'I' for Inactive)
REMARK    1  A    between atoms: C_1  and  O_22
REMARK    2  A    between atoms: O_2  and  C_24
REMARK    3  A    between atoms: O_2  and  C_36
REMARK    4  A    between atoms: C_3  and  C_13
REMARK    5  A    between atoms: C_3  and  N_34
REMARK    6  A    between atoms: C_7  and  C_27
REMARK    7  A    between atoms: C_13  and  C_14
REMARK    8  A    between atoms: C_14  and  O_23
REMARK    9  A    between atoms: C_15  and  N_35
REMARK   10  A    between atoms: N_21  and  C_28
REMARK   11  A    between atoms: N_21  and  C_31
REMARK   12  A    between atoms: O_22  and  C_29
REMARK   13  A    between atoms: O_23  and  C_30
REMARK                            x       y       z     vdW  Elec       q    Type
REMARK                         _______ _______ _______ _____ _____    ______ ____
ROOT
ATOM      3  C   UNL     1     -14.107  -3.644  -1.760  0.00  0.00    +0.162 A 
ATOM      4  C   UNL     1     -13.050  -2.716  -1.655  0.00  0.00    +0.164 A 
ATOM     16  C   UNL     1     -13.272  -1.332  -1.597  0.00  0.00    +0.077 A 
ATOM     17  C   UNL     1     -14.630  -0.877  -1.660  0.00  0.00    +0.076 A 
ATOM     18  C   UNL     1     -15.706  -1.773  -1.763  0.00  0.00    +0.026 A 
ATOM     19  C   UNL     1     -17.059  -1.246  -1.769  0.00  0.00    +0.060 A 
ATOM     20  C   UNL     1     -17.253   0.161  -1.694  0.00  0.00    +0.091 A 
ATOM     21  C   UNL     1     -16.123   0.967  -1.624  0.00  0.00    +0.132 A 
ATOM     36  N   UNL     1     -14.838   0.479  -1.612  0.00  0.00    -0.254 NA
ATOM     37  C   UNL     1     -15.409  -3.189  -1.814  0.00  0.00    +0.061 A 
ENDROOT
BRANCH   3   2
ATOM      1  C   UNL     1     -14.928  -5.922  -1.636  0.00  0.00    +0.277 C 
ATOM      2  O   UNL     1     -13.885  -5.033  -1.785  0.00  0.00    -0.491 OA
ENDBRANCH   3   2
BRANCH  20  22
ATOM     22  C   UNL     1     -18.623   0.876  -1.640  0.00  0.00    +0.103 C 
ATOM     23  N   UNL     1     -19.562   1.335  -1.662  0.00  0.00    -0.191 NA
ENDBRANCH  20  22
BRANCH  19  24
ATOM     24  N   UNL     1     -18.170  -2.241  -1.909  0.00  0.00    -0.312 N 
ATOM     25  H   UNL     1     -17.867  -3.119  -2.279  0.00  0.00    +0.152 HD
BRANCH  24  26
ATOM     26  C   UNL     1     -19.405  -1.781  -2.484  0.00  0.00    +0.053 A 
ATOM     27  C   UNL     1     -20.592  -2.029  -1.748  0.00  0.00    +0.064 A 
ATOM     28  C   UNL     1     -21.802  -1.522  -2.210  0.00  0.00    +0.045 A 
ATOM     29  C   UNL     1     -21.873  -0.769  -3.378  0.00  0.00    +0.084 A 
ATOM     30  C   UNL     1     -20.745  -0.498  -4.114  0.00  0.00    +0.140 A 
ATOM     33 CL   UNL     1     -23.379  -0.162  -3.895  0.00  0.00    -0.080 Cl
ATOM     34 CL   UNL     1     -20.527  -2.928  -0.299  0.00  0.00    -0.082 Cl
ATOM     35  C   UNL     1     -19.482  -1.034  -3.634  0.00  0.00    +0.072 A 
BRANCH  30  31
ATOM     31  O   UNL     1     -20.819   0.252  -5.257  0.00  0.00    -0.494 OA
ATOM     32  C   UNL     1     -19.634   0.617  -5.998  0.00  0.00    +0.277 C 
ENDBRANCH  30  31
ENDBRANCH  24  26
ENDBRANCH  19  24
BRANCH   4   5
ATOM      5  O   UNL     1     -11.703  -3.248  -1.587  0.00  0.00    -0.488 OA
BRANCH   5   6
ATOM      6  C   UNL     1     -10.694  -2.407  -1.175  0.00  0.00    +0.230 C 
BRANCH   6   7
ATOM      7  C   UNL     1      -9.480  -3.299  -0.906  0.00  0.00    +0.056 C 
BRANCH   7   8
ATOM      8  C   UNL     1      -9.377  -4.376  -1.988  0.00  0.00    +0.088 C 
BRANCH   8   9
ATOM      9  N   UNL     1      -8.065  -5.037  -1.950  0.00  0.00    -0.300 NA
ATOM     10  C   UNL     1      -7.583  -5.348  -0.641  0.00  0.00    +0.100 C 
ATOM     11  C   UNL     1      -6.281  -6.113  -0.760  0.00  0.00    +0.099 C 
ATOM     12  N   UNL     1      -6.356  -7.327  -1.514  0.00  0.00    -0.303 NA
ATOM     13  C   UNL     1      -6.829  -7.017  -2.833  0.00  0.00    +0.099 C 
ATOM     14  C   UNL     1      -5.065  -8.018  -1.587  0.00  0.00    +0.105 C 
ATOM     15  C   UNL     1      -8.128  -6.240  -2.781  0.00  0.00    +0.100 C 
ENDBRANCH   8   9
ENDBRANCH   7   8
ENDBRANCH   6   7
ENDBRANCH   5   6
ENDBRANCH   4   5
TORSDOF 10
