REMARK  Name = JQ1
REMARK  5 active torsions:
REMARK  status: ('A' for Active; 'I' for Inactive)
REMARK    1  A    between atoms: CAM_13  and  CAS_19
REMARK    2  A    between atoms: CAM_13  and  CBC_29
REMARK    3  A    between atoms: OAQ_17  and  CAS_19
REMARK    4  A    between atoms: OAQ_17  and  CBE_31
REMARK    5  A    between atoms: CAT_20  and  CAW_23
REMARK                            x       y       z     vdW  Elec       q    Type
REMARK                         _______ _______ _______ _____ _____    ______ ____
ROOT
ATOM      1  C   UNL     1      10.133  -6.313 -28.351  0.00  0.00    +0.074 C 
ATOM      2  C   UNL     1      10.764  -4.978 -28.179  0.00  0.00    +0.148 A 
ATOM      3  N   UNL     1      12.059  -4.730 -27.866  0.00  0.00    -0.133 NA
ATOM      4  N   UNL     1      12.224  -3.476 -27.810  0.00  0.00    -0.131 NA
ATOM      5  C   UNL     1      11.078  -2.870 -28.112  0.00  0.00    +0.170 A 
ATOM      6  C   UNL     1      10.785  -1.357 -28.205  0.00  0.00    +0.173 C 
ATOM      7  N   UNL     1       9.780  -1.064 -27.171  0.00  0.00    -0.264 NA
ATOM      8  C   UNL     1       8.526  -1.512 -27.222  0.00  0.00    +0.078 C 
ATOM     15  C   UNL     1       8.122  -2.443 -28.232  0.00  0.00    +0.036 A 
ATOM     16  C   UNL     1       8.897  -3.521 -28.696  0.00  0.00    +0.097 A 
ATOM     17  S   UNL     1       8.051  -4.376 -29.919  0.00  0.00    -0.074 S 
ATOM     18  C   UNL     1       6.659  -3.328 -29.824  0.00  0.00    +0.005 A 
ATOM     19  C   UNL     1       5.372  -3.549 -30.703  0.00  0.00    +0.038 C 
ATOM     20  C   UNL     1       6.895  -2.341 -28.914  0.00  0.00    -0.016 A 
ATOM     21  C   UNL     1       5.948  -1.228 -28.564  0.00  0.00    +0.031 C 
ATOM     30  N   UNL     1      10.147  -3.808 -28.323  0.00  0.00    -0.274 N 
ENDROOT
BRANCH   8   9
ATOM      9  C   UNL     1       7.679  -1.135 -26.131  0.00  0.00    +0.017 A 
ATOM     10  C   UNL     1       7.870   0.053 -25.386  0.00  0.00    +0.001 A 
ATOM     11  C   UNL     1       7.057   0.405 -24.276  0.00  0.00    +0.000 A 
ATOM     12  C   UNL     1       6.026  -0.457 -23.937  0.00  0.00    +0.000 A 
ATOM     13  C   UNL     1       5.860  -1.651 -24.633  0.00  0.00    +0.000 A 
ATOM     14  C   UNL     1       6.663  -1.976 -25.705  0.00  0.00    +0.001 A 
ENDBRANCH   8   9
BRANCH   6  22
ATOM     22  C   UNL     1      11.982  -0.421 -28.022  0.00  0.00    +0.142 C 
BRANCH  22  23
ATOM     23  C   UNL     1      11.425   0.988 -28.245  0.00  0.00    +0.319 C 
ATOM     24  O   UNL     1      11.940   1.983 -27.790  0.00  0.00    -0.250 OA
BRANCH  23  25
ATOM     25  O   UNL     1      10.281   1.143 -28.946  0.00  0.00    -0.456 OA
BRANCH  25  26
ATOM     26  C   UNL     1       9.650   2.461 -28.980  0.00  0.00    +0.136 C 
ATOM     27  C   UNL     1       9.296   2.883 -27.550  0.00  0.00    +0.044 C 
ATOM     28  C   UNL     1      10.493   3.563 -29.658  0.00  0.00    +0.044 C 
ATOM     29  C   UNL     1       8.403   2.191 -29.817  0.00  0.00    +0.044 C 
ENDBRANCH  25  26
ENDBRANCH  23  25
ENDBRANCH  22  23
ENDBRANCH   6  22
TORSDOF 5
