REMARK  Name = 4ra5_ligand
REMARK  7 active torsions:
REMARK  status: ('A' for Active; 'I' for Inactive)
REMARK    1  A    between atoms: C1_1  and  N2_2
REMARK    2  A    between atoms: C4_4  and  C5_5
REMARK    3  A    between atoms: C4_4  and  N7_7
REMARK    4  A    between atoms: N7_7  and  C8_8
REMARK    5  A    between atoms: N7_7  and  C9_9
REMARK    6  A    between atoms: C13_13  and  C15_14
REMARK    7  A    between atoms: C25_24  and  C26_25
REMARK                            x       y       z     vdW  Elec       q    Type
REMARK                         _______ _______ _______ _____ _____    ______ ____
ROOT
ATOM      7  C   UNL     1     -25.653   3.061 -27.618  0.00  0.00    +0.032 A 
ATOM      8  C   UNL     1     -25.006   4.303 -27.403  0.00  0.00    -0.018 A 
ATOM     15  C   UNL     1     -23.986   4.690 -28.277  0.00  0.00    +0.004 A 
ATOM     16  C   UNL     1     -23.613   3.877 -29.338  0.00  0.00    +0.107 A 
ATOM     17  O   UNL     1     -22.627   4.272 -30.180  0.00  0.00    -0.313 OA
ATOM     18  C   UNL     1     -22.759   3.906 -31.550  0.00  0.00    +0.298 C 
ATOM     19  C   UNL     1     -23.104   2.441 -31.653  0.00  0.00    +0.147 C 
ATOM     20  N   UNL     1     -22.700   1.769 -32.676  0.00  0.00    -0.221 NA
ATOM     21  N   UNL     1     -22.995   0.405 -32.818  0.00  0.00    -0.208 N 
ATOM     22  H   UNL     1     -22.739  -0.058 -33.666  0.00  0.00    +0.226 HD
ATOM     23  C   UNL     1     -23.612  -0.304 -31.849  0.00  0.00    +0.230 C 
ATOM     24  O   UNL     1     -23.865  -1.481 -31.996  0.00  0.00    -0.388 OA
ATOM     25  C   UNL     1     -24.002   0.365 -30.559  0.00  0.00    +0.231 C 
ATOM     26  C   UNL     1     -23.186  -0.246 -29.405  0.00  0.00    +0.064 C 
ATOM     27  N   UNL     1     -23.819   1.839 -30.614  0.00  0.00    -0.229 N 
ATOM     28  C   UNL     1     -24.261   2.651 -29.551  0.00  0.00    +0.088 A 
ATOM     29  C   UNL     1     -25.267   2.259 -28.674  0.00  0.00    +0.014 A 
ENDROOT
BRANCH   8   9
ATOM      9  C   UNL     1     -25.331   5.239 -26.294  0.00  0.00    -0.034 A 
ATOM     10  C   UNL     1     -25.303   4.788 -24.967  0.00  0.00    -0.002 A 
ATOM     11  C   UNL     1     -25.586   5.661 -23.927  0.00  0.00    -0.005 A 
ATOM     12  C   UNL     1     -25.893   6.986 -24.193  0.00  0.00    -0.007 A 
ATOM     13  C   UNL     1     -25.915   7.445 -25.507  0.00  0.00    -0.005 A 
ATOM     14  C   UNL     1     -25.630   6.583 -26.556  0.00  0.00    -0.002 A 
ENDBRANCH   8   9
BRANCH   7   6
ATOM      6  N   UNL     1     -26.689   2.517 -26.855  0.00  0.00    -0.302 N 
ATOM     30  C   UNL     1     -26.371   1.511 -25.834  0.00  0.00    +0.158 C 
BRANCH   6   5
ATOM      1  C   UNL     1     -29.539   5.593 -25.871  0.00  0.00    +0.191 C 
ATOM      2  N   UNL     1     -29.536   4.318 -26.615  0.00  0.00    +0.237 N 
ATOM      3  H   UNL     1     -30.455   4.110 -26.974  0.00  0.00    +0.203 HD
ATOM      4  C   UNL     1     -28.438   4.265 -27.607  0.00  0.00    +0.167 C 
ATOM      5  C   UNL     1     -28.095   2.838 -27.138  0.00  0.00    +0.125 C 
ATOM     31  C   UNL     1     -28.740   1.745 -28.004  0.00  0.00    +0.048 C 
ATOM     32  C   UNL     1     -28.888   3.218 -25.872  0.00  0.00    +0.167 C 
ENDBRANCH   6   5
ENDBRANCH   7   6
TORSDOF 3
