REMARK  Name = 3tv6_ligand
REMARK  9 active torsions:
REMARK  status: ('A' for Active; 'I' for Inactive)
REMARK    1  A    between atoms: C5_5  and  N10_10
REMARK    2  A    between atoms: C7_7  and  O28_28
REMARK    3  A    between atoms: C11_11  and  C12_12
REMARK    4  A    between atoms: C15_15  and  N21_21
REMARK    5  A    between atoms: N21_21  and  S22_22
REMARK    6  A    between atoms: S22_22  and  C23_23
REMARK    7  A    between atoms: C23_23  and  C24_24
REMARK    8  A    between atoms: C24_24  and  C25_25
REMARK    9  A    between atoms: O28_28  and  C29_29
REMARK                            x       y       z     vdW  Elec       q    Type
REMARK                         _______ _______ _______ _____ _____    ______ ____
ROOT
ATOM     10  N   UNL     1      15.257 -26.982  -1.386  0.00  0.00    -0.235 N 
ATOM     11  H   UNL     1      15.460 -27.940  -1.099  0.00  0.00    +0.223 HD
ATOM     12  C   UNL     1      14.085 -26.863  -2.036  0.00  0.00    +0.225 C 
ATOM     13  O   UNL     1      13.648 -25.801  -2.484  0.00  0.00    -0.379 OA
ENDROOT
BRANCH  10   9
ATOM      1  C   UNL     1      17.257 -23.925  -0.477  0.00  0.00    +0.057 A 
ATOM      2  C   UNL     1      17.458 -22.549  -0.238  0.00  0.00    +0.167 A 
ATOM      5  N   UNL     1      18.762 -22.374   0.105  0.00  0.00    -0.196 NA
ATOM      6  N   UNL     1      19.402 -23.590   0.093  0.00  0.00    -0.220 N 
ATOM      7  H   UNL     1      20.385 -23.750   0.312  0.00  0.00    +0.236 HD
ATOM      8  C   UNL     1      16.099 -24.650  -0.859  0.00  0.00    +0.035 A 
ATOM      9  C   UNL     1      16.283 -26.052  -1.009  0.00  0.00    +0.083 A 
ATOM     30  C   UNL     1      17.569 -26.608  -0.774  0.00  0.00    +0.095 A 
ATOM     31  N   UNL     1      18.651 -25.876  -0.406  0.00  0.00    -0.290 NA
ATOM     32  C   UNL     1      18.502 -24.540  -0.259  0.00  0.00    +0.142 A 
BRANCH   2   3
ATOM      3  O   UNL     1      16.607 -21.491  -0.295  0.00  0.00    -0.313 OA
ATOM      4  C   UNL     1      16.724 -20.497   0.720  0.00  0.00    +0.231 C 
ENDBRANCH   2   3
ENDBRANCH  10   9
BRANCH  12  14
ATOM     14  C   UNL     1      13.315 -28.139  -2.238  0.00  0.00    +0.107 A 
ATOM     15  C   UNL     1      12.832 -28.972  -1.196  0.00  0.00    +0.134 A 
ATOM     16  F   UNL     1      13.049 -28.650   0.101  0.00  0.00    -0.193 F 
ATOM     17  C   UNL     1      12.117 -30.159  -1.492  0.00  0.00    +0.012 A 
ATOM     18  C   UNL     1      11.871 -30.524  -2.835  0.00  0.00    +0.006 A 
ATOM     19  C   UNL     1      12.348 -29.691  -3.870  0.00  0.00    +0.098 A 
ATOM     28  C   UNL     1      13.056 -28.517  -3.566  0.00  0.00    +0.167 A 
ATOM     29  F   UNL     1      13.501 -27.737  -4.566  0.00  0.00    -0.191 F 
BRANCH  19  20
ATOM     20  N   UNL     1      12.157 -29.974  -5.150  0.00  0.00    -0.192 N 
ATOM     21  H   UNL     1      12.535 -29.304  -5.820  0.00  0.00    +0.213 HD
BRANCH  20  22
ATOM     22  S   UNL     1      11.358 -31.321  -5.809  0.00  0.00    +0.059 S 
ATOM     23  O   UNL     1      11.417 -31.148  -7.270  0.00  0.00    -0.150 OA
ATOM     24  O   UNL     1      10.095 -31.417  -5.066  0.00  0.00    -0.150 OA
BRANCH  22  25
ATOM     25  C   UNL     1      12.435 -32.727  -5.331  0.00  0.00    +0.194 C 
BRANCH  25  26
ATOM     26  C   UNL     1      13.548 -33.047  -6.342  0.00  0.00    +0.022 C 
ATOM     27  C   UNL     1      14.905 -32.473  -5.919  0.00  0.00    +0.005 C 
ENDBRANCH  25  26
ENDBRANCH  22  25
ENDBRANCH  20  22
ENDBRANCH  19  20
ENDBRANCH  12  14
TORSDOF 7
