REMARK  Name = 2b55_ligand
REMARK  6 active torsions:
REMARK  status: ('A' for Active; 'I' for Inactive)
REMARK    1  A    between atoms: N1_1  and  C2_2
REMARK    2  A    between atoms: C2_2  and  C3_3
REMARK    3  A    between atoms: N8_6  and  C20_9
REMARK    4  A    between atoms: C20_9  and  C21_10
REMARK    5  A    between atoms: N24_11  and  C25_12
REMARK    6  A    between atoms: C35_22  and  C36_23
REMARK                            x       y       z     vdW  Elec       q    Type
REMARK                         _______ _______ _______ _____ _____    ______ ____
ROOT
ATOM     16  C   UNL     1      28.171  12.158  15.156  0.00  0.00    +0.085 A 
ATOM     17  C   UNL     1      27.255  12.249  14.005  0.00  0.00    +0.055 A 
ATOM     18  C   UNL     1      26.885  11.253  13.014  0.00  0.00    +0.141 C 
ATOM     19  O   UNL     1      27.196  10.067  13.009  0.00  0.00    -0.367 OA
ATOM     20  C   UNL     1      26.054  11.957  12.058  0.00  0.00    +0.053 A 
ATOM     21  C   UNL     1      25.355  11.775  10.802  0.00  0.00    +0.029 A 
ATOM     28  N   UNL     1      24.772  13.024  10.491  0.00  0.00    -0.222 NA
ATOM     29  N   UNL     1      25.106  14.064  11.544  0.00  0.00    -0.220 N 
ATOM     30  H   UNL     1      24.833  15.057  11.578  0.00  0.00    +0.254 HD
ATOM     31  C   UNL     1      25.885  13.331  12.466  0.00  0.00    +0.098 A 
ATOM     32  C   UNL     1      26.644  13.543  13.680  0.00  0.00    +0.011 A 
ATOM     33  C   UNL     1      26.942  14.728  14.493  0.00  0.00    -0.007 A 
ATOM     34  C   UNL     1      27.861  14.635  15.643  0.00  0.00    -0.006 A 
ATOM     35  C   UNL     1      28.479  13.343  15.985  0.00  0.00    +0.021 A 
ENDROOT
BRANCH  21  22
ATOM     22  C   UNL     1      25.202  10.526   9.953  0.00  0.00    +0.044 C 
ATOM     23  C   UNL     1      26.492   9.837   9.502  0.00  0.00    +0.017 C 
ATOM     24  C   UNL     1      26.240   8.484   8.826  0.00  0.00    +0.002 C 
ATOM     25  C   UNL     1      25.222   8.629   7.683  0.00  0.00    +0.000 C 
ATOM     26  C   UNL     1      23.908   9.226   8.180  0.00  0.00    +0.002 C 
ATOM     27  C   UNL     1      24.145  10.580   8.846  0.00  0.00    +0.017 C 
ENDBRANCH  21  22
BRANCH  16  14
ATOM     12  C   UNL     1      29.599  10.467  16.259  0.00  0.00    +0.252 C 
ATOM     13  O   UNL     1      30.026  11.266  17.091  0.00  0.00    -0.378 OA
ATOM     14  N   UNL     1      28.740  10.870  15.322  0.00  0.00    -0.225 N 
ATOM     15  H   UNL     1      28.463  10.179  14.654  0.00  0.00    +0.229 HD
BRANCH  12  11
ATOM     11  C   UNL     1      29.993   8.999  16.291  0.00  0.00    +0.278 C 
BRANCH  11   9
ATOM      6  C   UNL     1      29.559   6.526  12.685  0.00  0.00    +0.044 C 
ATOM      7  C   UNL     1      30.734   7.480  12.932  0.00  0.00    +0.059 C 
ATOM      8  C   UNL     1      30.373   8.702  13.772  0.00  0.00    +0.133 C 
ATOM      9  N   UNL     1      29.712   8.297  15.029  0.00  0.00    +0.253 N 
ATOM     10  H   UNL     1      30.365   7.555  15.228  0.00  0.00    +0.205 HD
ATOM     36  C   UNL     1      28.554   7.390  14.876  0.00  0.00    +0.133 C 
ATOM     37  C   UNL     1      28.915   6.170  14.029  0.00  0.00    +0.059 C 
BRANCH   6   5
ATOM      5  C   UNL     1      28.532   7.190  11.759  0.00  0.00    +0.131 C 
BRANCH   5   1
ATOM      1  N   UNL     1      29.094   7.515  10.431  0.00  0.00    +0.219 N 
ATOM      2  H   UNL     1      29.869   8.150  10.540  0.00  0.00    +0.199 HD
ATOM      3  H   UNL     1      29.413   6.669   9.985  0.00  0.00    +0.199 HD
ATOM      4  H   UNL     1      28.383   7.948   9.862  0.00  0.00    +0.199 HD
ENDBRANCH   5   1
ENDBRANCH   6   5
ENDBRANCH  11   9
ENDBRANCH  12  11
ENDBRANCH  16  14
TORSDOF 6
