REMARK  Name = 3wf7_ligand
REMARK  3 active torsions:
REMARK  status: ('A' for Active; 'I' for Inactive)
REMARK    1  A    between atoms: C08_8  and  C09_9
REMARK    2  A    between atoms: N11_11  and  C12_12
REMARK    3  A    between atoms: C14_14  and  C15_15
REMARK                            x       y       z     vdW  Elec       q    Type
REMARK                         _______ _______ _______ _____ _____    ______ ____
ROOT
ATOM      1  N   UNL     1       7.358 -13.518  15.377  0.00  0.00    -0.295 NA
ATOM      2  C   UNL     1       7.326 -13.440  14.025  0.00  0.00    +0.102 A 
ATOM      3  N   UNL     1       6.202 -13.412  13.220  0.00  0.00    -0.286 NA
ATOM      4  C   UNL     1       6.673 -13.324  11.902  0.00  0.00    +0.251 A 
ATOM      5  N   UNL     1       8.015 -13.280  11.830  0.00  0.00    -0.241 N 
ATOM      6  H   UNL     1       8.598 -13.206  10.985  0.00  0.00    +0.238 HD
ATOM      7  C   UNL     1       8.446 -13.358  13.174  0.00  0.00    +0.155 A 
ATOM      8  C   UNL     1       9.716 -13.361  13.808  0.00  0.00    +0.157 A 
ATOM      9  N   UNL     1      10.912 -13.282  13.109  0.00  0.00    -0.287 N 
ATOM     10  C   UNL     1      12.083 -12.698  13.759  0.00  0.00    +0.140 C 
ATOM     11  C   UNL     1      12.854 -11.663  12.907  0.00  0.00    +0.050 C 
ATOM     12  C   UNL     1      12.839 -11.877  11.350  0.00  0.00    +0.113 C 
ATOM     27  C   UNL     1      11.551 -12.540  10.897  0.00  0.00    +0.050 C 
ATOM     28  C   UNL     1      11.126 -13.699  11.761  0.00  0.00    +0.140 C 
ATOM     29  N   UNL     1       9.785 -13.440  15.166  0.00  0.00    -0.269 NA
ATOM     30  C   UNL     1       8.617 -13.524  15.854  0.00  0.00    +0.148 A 
ENDROOT
BRANCH  12  13
ATOM     13  C   UNL     1      13.123 -10.572  10.640  0.00  0.00    +0.207 C 
ATOM     14  N   UNL     1      14.397  -9.986  10.819  0.00  0.00    -0.228 N 
ATOM     15  H   UNL     1      15.037 -10.481  11.407  0.00  0.00    +0.226 HD
ATOM     26  O   UNL     1      12.259 -10.067   9.928  0.00  0.00    -0.385 OA
BRANCH  14  16
ATOM     16  C   UNL     1      14.872  -8.758  10.249  0.00  0.00    +0.095 A 
ATOM     17  C   UNL     1      16.222  -8.399  10.381  0.00  0.00    +0.065 A 
ATOM     18  C   UNL     1      16.698  -7.222   9.849  0.00  0.00    +0.023 A 
ATOM     19  C   UNL     1      15.856  -6.353   9.176  0.00  0.00    +0.029 A 
ATOM     20  C   UNL     1      14.529  -6.704   9.055  0.00  0.00    +0.034 A 
ATOM     25  C   UNL     1      14.027  -7.882   9.570  0.00  0.00    +0.059 A 
BRANCH  20  21
ATOM     21  C   UNL     1      13.590  -5.789   8.335  0.00  0.00    +0.373 C 
ATOM     22  F   UNL     1      12.844  -6.407   7.407  0.00  0.00    -0.221 F 
ATOM     23  F   UNL     1      14.158  -4.755   7.696  0.00  0.00    -0.221 F 
ATOM     24  F   UNL     1      12.698  -5.226   9.157  0.00  0.00    -0.221 F 
ENDBRANCH  20  21
ENDBRANCH  14  16
ENDBRANCH  12  13
TORSDOF 3
