REMARK  Name = 3l8s_ligand
REMARK  10 active torsions:
REMARK  status: ('A' for Active; 'I' for Inactive)
REMARK    1  A    between atoms: CAI_9  and  CAJ_10
REMARK    2  A    between atoms: CAI_9  and  CAM_13
REMARK    3  A    between atoms: CAJ_10  and  CAN_14
REMARK    4  A    between atoms: CAM_13  and  NAS_19
REMARK    5  A    between atoms: CAN_14  and  NBF_32
REMARK    6  A    between atoms: CAQ_17  and  OAU_21
REMARK    7  A    between atoms: CAQ_17  and  CBC_29
REMARK    8  A    between atoms: NAT_20  and  CBD_30
REMARK    9  A    between atoms: OAU_21  and  CBB_28
REMARK   10  A    between atoms: CAW_23  and  CBE_31
REMARK                            x       y       z     vdW  Elec       q    Type
REMARK                         _______ _______ _______ _____ _____    ______ ____
ROOT
ATOM      5  C   UNL     1      21.919   2.441 -23.341  0.00  0.00    +0.125 A 
ATOM      6  C   UNL     1      21.862   3.833 -23.307  0.00  0.00    +0.179 A 
ATOM      7  S   UNL     1      22.246   4.305 -21.738  0.00  0.00    +0.021 S 
ATOM      8  N   UNL     1      22.521   2.794 -21.108  0.00  0.00    -0.296 NA
ATOM     24  C   UNL     1      22.301   1.888 -22.087  0.00  0.00    +0.142 A 
ENDROOT
BRANCH   6   9
ATOM      9  N   UNL     1      21.519   4.626 -24.333  0.00  0.00    -0.176 N 
ATOM     10  H   UNL     1      21.160   4.175 -25.175  0.00  0.00    +0.253 HD
ATOM     11  C   UNL     1      21.610   5.964 -24.341  0.00  0.00    +0.309 C 
ATOM     12  N   UNL     1      21.184   6.551 -25.475  0.00  0.00    -0.264 N 
ATOM     13  H   UNL     1      20.881   5.944 -26.237  0.00  0.00    +0.186 HD
ATOM     23  O   UNL     1      22.045   6.606 -23.377  0.00  0.00    -0.382 OA
BRANCH  12  14
ATOM     14  C   UNL     1      21.123   8.013 -25.697  0.00  0.00    +0.136 C 
BRANCH  14  15
ATOM     15  C   UNL     1      20.058   8.642 -24.753  0.00  0.00    +0.022 C 
BRANCH  15  16
ATOM     16  C   UNL     1      18.594   8.201 -25.046  0.00  0.00    -0.021 C 
BRANCH  16  17
ATOM     17  C   UNL     1      17.880   7.505 -23.864  0.00  0.00    -0.110 C 
BRANCH  17  18
ATOM     18  N   UNL     1      18.062   6.040 -23.968  0.00  0.00    +0.403 NA
ATOM     19  C   UNL     1      18.443   5.419 -22.693  0.00  0.00    -0.110 C 
ATOM     20  C   UNL     1      18.298   3.916 -22.980  0.00  0.00    -0.025 C 
ATOM     21  C   UNL     1      17.138   3.859 -23.963  0.00  0.00    -0.025 C 
ATOM     22  C   UNL     1      16.816   5.334 -24.264  0.00  0.00    -0.110 C 
ENDBRANCH  17  18
ENDBRANCH  16  17
ENDBRANCH  15  16
ENDBRANCH  14  15
ENDBRANCH  12  14
ENDBRANCH   6   9
BRANCH   5   4
ATOM      1  N   UNL     1      21.014   0.476 -24.522  0.00  0.00    -0.309 N 
ATOM      2  H   UNL     1      20.897   0.062 -23.597  0.00  0.00    +0.179 HD
ATOM      3  H   UNL     1      20.697  -0.028 -25.350  0.00  0.00    +0.179 HD
ATOM      4  C   UNL     1      21.581   1.675 -24.648  0.00  0.00    +0.172 C 
ATOM     36  O   UNL     1      21.743   2.214 -25.739  0.00  0.00    -0.414 OA
ENDBRANCH   5   4
BRANCH  24  25
ATOM     25  O   UNL     1      22.438   0.534 -21.879  0.00  0.00    -0.289 OA
BRANCH  25  26
ATOM     26  C   UNL     1      22.884   0.027 -20.569  0.00  0.00    +0.269 C 
BRANCH  26  27
ATOM     27  C   UNL     1      23.119  -1.317 -20.648  0.00  0.00    +0.058 A 
ATOM     28  C   UNL     1      22.059  -2.209 -20.440  0.00  0.00    +0.137 A 
ATOM     29  C   UNL     1      22.311  -3.577 -20.580  0.00  0.00    +0.029 A 
ATOM     30  C   UNL     1      23.588  -4.006 -20.945  0.00  0.00    +0.002 A 
ATOM     31  C   UNL     1      24.616  -3.120 -21.168  0.00  0.00    +0.029 A 
ATOM     32 BR   UNL     1      24.019  -5.824 -21.203  0.00  0.00    -0.058 Br
ATOM     33  F   UNL     1      20.817  -1.758 -20.102  0.00  0.00    -0.189 F 
ATOM     34  C   UNL     1      24.384  -1.775 -21.024  0.00  0.00    +0.137 A 
ATOM     35  F   UNL     1      25.430  -0.960 -21.241  0.00  0.00    -0.189 F 
ENDBRANCH  26  27
ENDBRANCH  25  26
ENDBRANCH  24  25
TORSDOF 10
