REMARK  Name = 6O8I
REMARK  4 active torsions:
REMARK  status: ('A' for Active; 'I' for Inactive)
REMARK    1  A    between atoms: C13_1  and  N4_26
REMARK    2  A    between atoms: C18_2  and  C15_5
REMARK    3  A    between atoms: C1_10  and  N1_11
REMARK    4  A    between atoms: C4_14  and  C7_17
REMARK                            x       y       z     vdW  Elec       q    Type
REMARK                         _______ _______ _______ _____ _____    ______ ____
ROOT
ATOM     12  C   UNL     1      19.573  -6.392  -1.182  0.00  0.00    +0.000 A 
ATOM     13  C   UNL     1      19.170  -6.237   0.156  0.00  0.00    +0.050 A 
ATOM     14  C   UNL     1      19.638  -6.357   1.395  0.00  0.00    -0.050 A 
ATOM     15  C   UNL     1      18.779  -5.986   2.317  0.00  0.00    +0.100 A 
ATOM     16  N   UNL     1      17.642  -5.660   1.713  0.00  0.00    -0.300 NA
ATOM     17  C   UNL     1      18.917  -5.936   3.839  0.00  0.00    -0.150 C 
ATOM     18  C   UNL     1      21.067  -6.839   1.737  0.00  0.00    -0.150 C 
ATOM     19  C   UNL     1      17.841  -5.736   0.339  0.00  0.00    +0.200 A 
ATOM     20  C   UNL     1      16.964  -5.463  -0.704  0.00  0.00    +0.000 A 
ATOM     24  C   UNL     1      17.381  -5.653  -2.009  0.00  0.00    -0.130 A 
ATOM     25  C   UNL     1      18.665  -6.130  -2.216  0.00  0.00    +0.300 A 
ATOM     26  F   UNL     1      19.014  -6.336  -3.514  0.00  0.00    -0.300 F 
ENDROOT
BRANCH  12   9
ATOM      1  C   UNL     1      22.472  -8.741  -1.298  0.00  0.00    +0.150 C 
ATOM      8  C   UNL     1      21.021  -8.346  -1.573  0.00  0.00    +0.100 C 
ATOM      9  N   UNL     1      20.893  -6.900  -1.505  0.00  0.00    -0.400 N 
ATOM     10  C   UNL     1      21.767  -6.088  -2.355  0.00  0.00    +0.100 C 
ATOM     11  C   UNL     1      23.233  -6.487  -2.142  0.00  0.00    -0.100 C 
ATOM     27  C   UNL     1      23.421  -8.007  -2.256  0.00  0.00    -0.100 C 
BRANCH   1   2
ATOM      2  N   UNL     1      22.694 -10.177  -1.405  0.00  0.00    -0.550 NA
ATOM      3  C   UNL     1      22.203 -11.125  -0.432  0.00  0.00    +0.550 C 
ATOM      4  O   UNL     1      21.534 -10.765   0.487  0.00  0.00    -0.550 OA
BRANCH   3   5
ATOM      5  C   UNL     1      22.587 -12.586  -0.647  0.00  0.00    -0.100 C 
ATOM      6  C   UNL     1      22.023 -13.614  -0.039  0.00  0.00    +0.000 C 
ATOM      7  C   UNL     1      22.558 -15.010  -0.342  0.00  0.00    -0.150 C 
ENDBRANCH   3   5
ENDBRANCH   1   2
ENDBRANCH  12   9
BRANCH  20  21
ATOM     21  C   UNL     1      15.554  -4.956  -0.391  0.00  0.00    +0.600 C 
ATOM     22  N   UNL     1      14.527  -5.043  -1.406  0.00  0.00    -0.550 NA
ATOM     23  O   UNL     1      15.317  -4.510   0.692  0.00  0.00    -0.550 OA
ENDBRANCH  20  21
TORSDOF 4
