REMARK  Name = 3k3i_ligand
REMARK  2 active torsions:
REMARK  status: ('A' for Active; 'I' for Inactive)
REMARK    1  A    between atoms: C4_3  and  C1_19
REMARK    2  A    between atoms: C13_9  and  C11_16
REMARK                            x       y       z     vdW  Elec       q    Type
REMARK                         _______ _______ _______ _____ _____    ______ ____
ROOT
ATOM     13  C   UNL     1       1.194   3.360 -15.543  0.00  0.00    +0.167 A 
ATOM     14  N   UNL     1       1.533   4.431 -14.755  0.00  0.00    -0.252 N 
ATOM     15  H   UNL     1       2.412   4.967 -14.794  0.00  0.00    +0.241 HD
ATOM     16  C   UNL     1       0.481   4.652 -13.906  0.00  0.00    +0.132 A 
ATOM     17  C   UNL     1      -0.495   3.700 -14.186  0.00  0.00    +0.015 A 
ATOM     25  N   UNL     1      -0.012   2.881 -15.177  0.00  0.00    -0.323 NA
ENDROOT
BRANCH  13  12
ATOM      1  N   UNL     1       2.146   3.752 -17.710  0.00  0.00    +0.259 N 
ATOM      2  H   UNL     1       1.247   4.153 -17.927  0.00  0.00    +0.205 HD
ATOM      3  H   UNL     1       2.784   4.484 -17.439  0.00  0.00    +0.205 HD
ATOM      4  C   UNL     1       2.682   3.020 -18.903  0.00  0.00    +0.193 C 
ATOM      5  C   UNL     1       3.910   2.198 -18.535  0.00  0.00    +0.004 A 
ATOM      6  C   UNL     1       4.738   1.716 -19.577  0.00  0.00    -0.008 A 
ATOM      7  C   UNL     1       5.847   0.945 -19.237  0.00  0.00    -0.021 A 
ATOM      8  C   UNL     1       6.181   0.680 -17.917  0.00  0.00    -0.021 A 
ATOM      9  C   UNL     1       5.377   1.166 -16.880  0.00  0.00    -0.013 A 
ATOM     10  C   UNL     1       4.251   1.919 -17.207  0.00  0.00    -0.028 A 
ATOM     11  C   UNL     1       3.384   2.417 -16.052  0.00  0.00    +0.137 C 
ATOM     12  C   UNL     1       2.009   2.761 -16.607  0.00  0.00    +0.176 C 
ENDBRANCH  13  12
BRANCH  17  18
ATOM     18  C   UNL     1      -1.796   3.510 -13.471  0.00  0.00    -0.029 A 
ATOM     19  C   UNL     1      -2.305   2.207 -13.421  0.00  0.00    -0.001 A 
ATOM     20  C   UNL     1      -3.499   1.965 -12.742  0.00  0.00    +0.005 A 
ATOM     21  C   UNL     1      -4.153   3.040 -12.154  0.00  0.00    +0.007 A 
ATOM     22 BR   UNL     1      -5.769   2.753 -11.162  0.00  0.00    -0.055 Br
ATOM     23  C   UNL     1      -3.650   4.338 -12.157  0.00  0.00    +0.005 A 
ATOM     24  C   UNL     1      -2.434   4.581 -12.823  0.00  0.00    -0.001 A 
ENDBRANCH  17  18
TORSDOF 2
