REMARK  Name = 54Z
REMARK  3 active torsions:
REMARK  status: ('A' for Active; 'I' for Inactive)
REMARK    1  A    between atoms: C4_3  and  O_7
REMARK    2  A    between atoms: C5_4  and  O_7
REMARK    3  A    between atoms: C1_5  and  C_13
REMARK                            x       y       z     vdW  Elec       q    Type
REMARK                         _______ _______ _______ _____ _____    ______ ____
ROOT
ATOM      1  C   UNL     1      80.463  19.138 128.909  0.00  0.00    +0.091 A 
ATOM      2  C   UNL     1      81.793  19.253 129.254  0.00  0.00    +0.012 A 
ATOM      3  C   UNL     1      82.448  20.470 129.123  0.00  0.00    -0.002 A 
ATOM      6  C   UNL     1      81.732  21.557 128.643  0.00  0.00    +0.000 A 
ATOM      7  C   UNL     1      80.396  21.445 128.293  0.00  0.00    +0.038 A 
ATOM      8 CL   UNL     1      79.672  17.606 129.091  0.00  0.00    -0.079 Cl
ATOM      9  C   UNL     1      79.750  20.226 128.423  0.00  0.00    +0.157 A 
ENDROOT
BRANCH   3   4
ATOM      4  C   UNL     1      83.908  20.584 129.492  0.00  0.00    +0.136 C 
ATOM      5  N   UNL     1      84.385  19.622 130.471  0.00  0.00    -0.126 NA
ENDBRANCH   3   4
BRANCH   9  10
ATOM     10  O   UNL     1      78.421  20.000 128.093  0.00  0.00    -0.404 OA
BRANCH  10  11
ATOM     11  C   UNL     1      78.148  19.711 126.825  0.00  0.00    +0.575 C 
ATOM     12  F   UNL     1      76.855  19.731 126.595  0.00  0.00    -0.133 F 
ATOM     13  F   UNL     1      78.587  18.514 126.501  0.00  0.00    -0.133 F 
ATOM     14  F   UNL     1      78.704  20.571 126.000  0.00  0.00    -0.133 F 
ENDBRANCH  10  11
ENDBRANCH   9  10
TORSDOF 3
