REMARK  Name = 5J9L
REMARK  7 active torsions:
REMARK  status: ('A' for Active; 'I' for Inactive)
REMARK    1  A    between atoms: C_1  and  N_2
REMARK    2  A    between atoms: N_7  and  C_8
REMARK    3  A    between atoms: C_13  and  N_14
REMARK    4  A    between atoms: C_22  and  O_23
REMARK    5  A    between atoms: O_23  and  C_24
REMARK    6  A    between atoms: C_27  and  N_28
REMARK    7  A    between atoms: C_29  and  C_30
REMARK                            x       y       z     vdW  Elec       q    Type
REMARK                         _______ _______ _______ _____ _____    ______ ____
ROOT
ATOM     10  N   UNL     1     -16.052 -46.601 -16.809  0.00  0.00    -0.283 N 
ATOM     11  H   UNL     1     -16.182 -45.753 -16.741  0.00  0.00    +0.155 HD
ATOM     12  C   UNL     1     -14.848 -47.198 -16.224  0.00  0.00    +0.225 A 
ATOM     13  N   UNL     1     -14.602 -48.501 -16.397  0.00  0.00    -0.178 NA
ATOM     14  C   UNL     1     -13.503 -49.061 -15.886  0.00  0.00    +0.234 A 
ATOM     28  C   UNL     1     -12.588 -48.248 -15.125  0.00  0.00    +0.081 A 
ATOM     29  C   UNL     1     -11.387 -48.469 -14.455  0.00  0.00    +0.034 A 
ATOM     30  C   UNL     1     -10.975 -47.261 -13.911  0.00  0.00    +0.085 A 
ATOM     31  N   UNL     1     -11.879 -46.341 -14.228  0.00  0.00    -0.346 N 
ATOM     32  H   UNL     1     -11.844 -45.512 -14.004  0.00  0.00    +0.167 HD
ATOM     33  C   UNL     1     -12.869 -46.917 -14.966  0.00  0.00    +0.147 A 
ATOM     34  N   UNL     1     -14.015 -46.419 -15.533  0.00  0.00    -0.196 NA
ENDROOT
BRANCH  10   9
ATOM      6  C   UNL     1     -18.905 -49.024 -18.845  0.00  0.00    +0.030 A 
ATOM      7  C   UNL     1     -17.556 -49.156 -19.140  0.00  0.00    +0.025 A 
ATOM      8  C   UNL     1     -16.610 -48.363 -18.477  0.00  0.00    +0.025 A 
ATOM      9  C   UNL     1     -17.027 -47.426 -17.501  0.00  0.00    +0.034 A 
ATOM     35  C   UNL     1     -18.379 -47.291 -17.203  0.00  0.00    +0.025 A 
ATOM     36  C   UNL     1     -19.323 -48.082 -17.869  0.00  0.00    +0.025 A 
BRANCH   6   5
ATOM      1  C   UNL     1     -22.030 -50.892 -22.230  0.00  0.00    +0.105 C 
ATOM      2  N   UNL     1     -21.875 -51.368 -21.027  0.00  0.00    -0.302 NA
ATOM      3  C   UNL     1     -20.600 -51.880 -20.813  0.00  0.00    +0.103 C 
ATOM      4  C   UNL     1     -19.544 -50.787 -20.585  0.00  0.00    +0.120 C 
ATOM      5  N   UNL     1     -19.912 -49.857 -19.538  0.00  0.00    -0.328 N 
ATOM     37  C   UNL     1     -21.256 -49.346 -19.826  0.00  0.00    +0.120 C 
ATOM     38  C   UNL     1     -22.268 -50.478 -20.061  0.00  0.00    +0.103 C 
ENDBRANCH   6   5
ENDBRANCH  10   9
BRANCH  14  15
ATOM     15  O   UNL     1     -13.245 -50.443 -16.053  0.00  0.00    -0.437 OA
BRANCH  15  16
ATOM     16  C   UNL     1     -13.337 -50.895 -17.391  0.00  0.00    +0.131 A 
ATOM     17  C   UNL     1     -12.271 -50.729 -18.258  0.00  0.00    +0.048 A 
ATOM     18  C   UNL     1     -12.358 -51.194 -19.578  0.00  0.00    +0.027 A 
ATOM     19  C   UNL     1     -13.504 -51.819 -20.020  0.00  0.00    +0.034 A 
ATOM     26  C   UNL     1     -14.566 -51.997 -19.149  0.00  0.00    +0.027 A 
ATOM     27  C   UNL     1     -14.478 -51.531 -17.828  0.00  0.00    +0.048 A 
BRANCH  19  20
ATOM     20  N   UNL     1     -13.571 -52.309 -21.409  0.00  0.00    -0.282 N 
ATOM     21  H   UNL     1     -12.859 -52.624 -21.774  0.00  0.00    +0.155 HD
ATOM     22  C   UNL     1     -14.840 -52.283 -22.197  0.00  0.00    +0.240 C 
ATOM     23  O   UNL     1     -15.853 -51.855 -21.717  0.00  0.00    -0.271 OA
BRANCH  22  24
ATOM     24  C   UNL     1     -14.832 -52.822 -23.648  0.00  0.00    +0.060 C 
ATOM     25  C   UNL     1     -15.978 -53.055 -24.291  0.00  0.00    +0.013 C 
ENDBRANCH  22  24
ENDBRANCH  19  20
ENDBRANCH  15  16
ENDBRANCH  14  15
TORSDOF 6
