REMARK  Name = 3hl7_ligand
REMARK  5 active torsions:
REMARK  status: ('A' for Active; 'I' for Inactive)
REMARK    1  A    between atoms: C1_1  and  C6_6
REMARK    2  A    between atoms: C4_4  and  C8_8
REMARK    3  A    between atoms: C5_5  and  C7_7
REMARK    4  A    between atoms: C25_25  and  C27_27
REMARK    5  A    between atoms: C27_27  and  O28_28
REMARK                            x       y       z     vdW  Elec       q    Type
REMARK                         _______ _______ _______ _____ _____    ______ ____
ROOT
ATOM      1  C   UNL     1      35.539  35.844  20.035  0.00  0.00    +0.046 A 
ATOM      9  C   UNL     1      35.201  36.522  21.207  0.00  0.00    +0.038 A 
ATOM     16  C   UNL     1      34.473  35.589  21.990  0.00  0.00    +0.097 A 
ATOM     28  N   UNL     1      34.358  34.420  21.348  0.00  0.00    -0.206 N 
ATOM     29  H   UNL     1      33.873  33.572  21.674  0.00  0.00    +0.260 HD
ATOM     30  N   UNL     1      35.013  34.592  20.186  0.00  0.00    -0.215 NA
ENDROOT
BRANCH  16  17
ATOM     17  C   UNL     1      33.899  35.796  23.355  0.00  0.00    +0.088 C 
ATOM     18  C   UNL     1      34.916  35.360  24.395  0.00  0.00    +0.050 C 
ATOM     19  C   UNL     1      34.418  35.574  25.820  0.00  0.00    +0.141 C 
ATOM     20  N   UNL     1      33.077  35.064  26.013  0.00  0.00    -0.271 N 
ATOM     21  C   UNL     1      32.762  34.280  27.112  0.00  0.00    +0.204 C 
ATOM     25  O   UNL     1      32.005  33.314  27.089  0.00  0.00    -0.394 OA
ATOM     26  C   UNL     1      32.063  35.408  25.039  0.00  0.00    +0.141 C 
ATOM     27  C   UNL     1      32.552  35.150  23.615  0.00  0.00    +0.050 C 
BRANCH  21  22
ATOM     22  C   UNL     1      33.453  34.742  28.370  0.00  0.00    +0.293 C 
BRANCH  22  23
ATOM     23  O   UNL     1      32.942  33.960  29.448  0.00  0.00    -0.375 OA
ATOM     24  H   UNL     1      33.124  33.042  29.286  0.00  0.00    +0.213 HD
ENDBRANCH  22  23
ENDBRANCH  21  22
ENDBRANCH  16  17
BRANCH   1   2
ATOM      2  C   UNL     1      36.256  36.210  18.841  0.00  0.00    -0.013 A 
ATOM      3  C   UNL     1      37.468  36.861  18.924  0.00  0.00    +0.008 A 
ATOM      4  C   UNL     1      38.138  37.258  17.790  0.00  0.00    +0.014 A 
ATOM      5  C   UNL     1      37.608  37.009  16.541  0.00  0.00    +0.040 A 
ATOM      6 CL   UNL     1      38.423  37.551  15.116  0.00  0.00    -0.071 Cl
ATOM      7  C   UNL     1      36.410  36.340  16.453  0.00  0.00    +0.014 A 
ATOM      8  C   UNL     1      35.738  35.939  17.593  0.00  0.00    +0.008 A 
ENDBRANCH   1   2
BRANCH   9  10
ATOM     10  C   UNL     1      35.460  37.915  21.520  0.00  0.00    +0.045 A 
ATOM     11  N   UNL     1      35.340  38.772  20.493  0.00  0.00    -0.276 NA
ATOM     12  C   UNL     1      35.512  40.075  20.772  0.00  0.00    +0.185 A 
ATOM     13  N   UNL     1      35.782  40.597  21.974  0.00  0.00    -0.277 NA
ATOM     14  C   UNL     1      35.882  39.700  22.966  0.00  0.00    +0.107 A 
ATOM     15  C   UNL     1      35.723  38.344  22.810  0.00  0.00    +0.054 A 
ENDBRANCH   9  10
TORSDOF 5
