REMARK  Name = 1m7q_ligand
REMARK  3 active torsions:
REMARK  status: ('A' for Active; 'I' for Inactive)
REMARK    1  A    between atoms: C2_2  and  C10_8
REMARK    2  A    between atoms: C4_4  and  N9_7
REMARK    3  A    between atoms: N11_9  and  C19_14
REMARK                            x       y       z     vdW  Elec       q    Type
REMARK                         _______ _______ _______ _____ _____    ______ ____
ROOT
ATOM      1  C   UNL     1      43.970  33.109  31.459  0.00  0.00    +0.041 A 
ATOM      2  C   UNL     1      43.159  31.913  31.316  0.00  0.00    -0.017 A 
ATOM      3  C   UNL     1      43.811  30.662  31.068  0.00  0.00    +0.007 A 
ATOM      4  C   UNL     1      45.226  30.579  30.953  0.00  0.00    +0.040 A 
ATOM      5  C   UNL     1      46.008  31.744  31.074  0.00  0.00    +0.037 A 
ATOM     22  C   UNL     1      45.410  33.049  31.330  0.00  0.00    +0.111 A 
ATOM     23  N   UNL     1      46.196  34.293  31.476  0.00  0.00    -0.155 N 
ATOM     24  C   UNL     1      45.590  35.544  31.746  0.00  0.00    +0.295 A 
ATOM     25  N   UNL     1      44.262  35.589  31.868  0.00  0.00    -0.242 NA
ATOM     26  O   UNL     1      46.207  36.593  31.880  0.00  0.00    -0.379 OA
ATOM     35  C   UNL     1      43.346  34.468  31.741  0.00  0.00    +0.129 A 
ENDROOT
BRANCH   4   6
ATOM      6  N   UNL     1      45.942  29.564  30.757  0.00  0.00    -0.296 N 
ATOM      7  C   UNL     1      46.152  28.952  29.402  0.00  0.00    +0.183 C 
ATOM      8  C   UNL     1      45.912  27.414  29.526  0.00  0.00    +0.154 C 
ATOM      9  N   UNL     1      46.640  26.797  30.697  0.00  0.00    +0.230 N 
ATOM     10  H   UNL     1      46.388  25.822  30.748  0.00  0.00    +0.202 HD
ATOM     11  H   UNL     1      47.631  26.879  30.532  0.00  0.00    +0.202 HD
ATOM     12  C   UNL     1      46.332  27.428  32.011  0.00  0.00    +0.154 C 
ATOM     13  C   UNL     1      46.597  28.955  31.986  0.00  0.00    +0.183 C 
ENDBRANCH   4   6
BRANCH   2  14
ATOM     14  C   UNL     1      41.658  31.916  31.424  0.00  0.00    +0.014 A 
ATOM     15  C   UNL     1      41.013  31.415  32.591  0.00  0.00    +0.007 A 
ATOM     16  C   UNL     1      39.588  31.431  32.700  0.00  0.00    +0.028 A 
ATOM     17  C   UNL     1      38.812  31.960  31.622  0.00  0.00    +0.133 A 
ATOM     18  C   UNL     1      39.425  32.461  30.444  0.00  0.00    +0.068 A 
ATOM     19  F   UNL     1      37.481  31.989  31.725  0.00  0.00    -0.182 F 
ATOM     20  C   UNL     1      40.834  32.437  30.349  0.00  0.00    +0.142 A 
ATOM     21  F   UNL     1      41.325  32.939  29.186  0.00  0.00    -0.181 F 
ENDBRANCH   2  14
BRANCH  23  27
ATOM     27  C   UNL     1      47.383  34.224  31.346  0.00  0.00    +0.129 A 
ATOM     28  C   UNL     1      48.392  33.860  32.353  0.00  0.00    +0.069 A 
ATOM     29  C   UNL     1      49.775  33.830  32.028  0.00  0.00    +0.002 A 
ATOM     30  C   UNL     1      50.224  34.148  30.701  0.00  0.00    -0.021 A 
ATOM     31  C   UNL     1      49.297  34.498  29.672  0.00  0.00    +0.002 A 
ATOM     32 CL   UNL     1      47.963  33.437  33.981  0.00  0.00    -0.079 Cl
ATOM     33  C   UNL     1      47.902  34.541  29.959  0.00  0.00    +0.069 A 
ATOM     34 CL   UNL     1      46.840  34.975  28.596  0.00  0.00    -0.079 Cl
ENDBRANCH  23  27
TORSDOF 3
