REMARK  Name = 6CQ4
REMARK  2 active torsions:
REMARK  status: ('A' for Active; 'I' for Inactive)
REMARK    1  A    between atoms: C09_6  and  C10_7
REMARK    2  A    between atoms: C24_18  and  C25_19
REMARK                            x       y       z     vdW  Elec       q    Type
REMARK                         _______ _______ _______ _____ _____    ______ ____
ROOT
ATOM      1  C   UNL     1     107.089 -13.241  -1.865  0.00  0.00    +0.430 A 
ATOM      2  N   UNL     1     106.920 -12.066  -1.109  0.00  0.00    -0.760 NA
ATOM      3  C   UNL     1     107.152 -12.089   0.279  0.00  0.00    +0.565 A 
ATOM      4  O   UNL     1     106.969 -10.873   1.033  0.00  0.00    -0.370 OA
ATOM      5  C   UNL     1     107.151 -10.769   2.427  0.00  0.00    +0.185 A 
ATOM      6  C   UNL     1     107.548 -11.890   3.178  0.00  0.00    +0.000 A 
ATOM      7  C   UNL     1     107.760 -13.166   2.407  0.00  0.00    +0.550 A 
ATOM      8  O   UNL     1     108.122 -14.185   3.050  0.00  0.00    -0.550 OA
ATOM      9  C   UNL     1     107.732 -11.776   4.610  0.00  0.00    -0.130 A 
ATOM     10  C   UNL     1     107.529 -10.564   5.324  0.00  0.00    +0.000 A 
ATOM     19  C   UNL     1     107.129  -9.440   4.556  0.00  0.00    -0.130 A 
ATOM     20  C   UNL     1     106.946  -9.533   3.142  0.00  0.00    -0.130 A 
ATOM     21  C   UNL     1     107.555 -13.255   0.959  0.00  0.00    +0.000 A 
ATOM     22  C   UNL     1     107.722 -14.463   0.157  0.00  0.00    -0.130 A 
ATOM     23  N   UNL     1     106.847 -13.200  -3.292  0.00  0.00    -0.550 NA
ATOM     24  C   UNL     1     107.499 -14.476  -1.227  0.00  0.00    +0.000 A 
ENDROOT
BRANCH  10  11
ATOM     11  C   UNL     1     107.747 -10.478   6.889  0.00  0.00    -0.050 C 
ATOM     12  C   UNL     1     106.939  -9.427   7.773  0.00  0.00    -0.100 C 
ATOM     13  C   UNL     1     106.880  -9.747   9.282  0.00  0.00    -0.100 C 
ATOM     14  C   UNL     1     107.860 -10.864   9.627  0.00  0.00    +0.600 C 
ATOM     15  F   UNL     1     107.853 -11.106  11.033  0.00  0.00    -0.300 F 
ATOM     16  F   UNL     1     109.200 -10.403   9.596  0.00  0.00    -0.300 F 
ATOM     17  C   UNL     1     107.703 -12.174   8.862  0.00  0.00    -0.100 C 
ATOM     18  C   UNL     1     107.440 -11.935   7.356  0.00  0.00    -0.100 C 
ENDBRANCH  10  11
BRANCH  24  25
ATOM     25  C   UNL     1     107.683 -15.774  -2.095  0.00  0.00    +0.200 C 
ATOM     26  O   UNL     1     108.187 -16.823  -1.538  0.00  0.00    -0.600 OA
ATOM     27  O   UNL     1     107.341 -15.783  -3.310  0.00  0.00    -0.600 OA
ENDBRANCH  24  25
TORSDOF 2
