REMARK  Name = 4uzd_ligand
REMARK  7 active torsions:
REMARK  status: ('A' for Active; 'I' for Inactive)
REMARK    1  A    between atoms: C1_1  and  C20_20
REMARK    2  A    between atoms: C7_7  and  C15_15
REMARK    3  A    between atoms: C15_15  and  O17_17
REMARK    4  A    between atoms: O17_17  and  C18_18
REMARK    5  A    between atoms: C18_18  and  C19_19
REMARK    6  A    between atoms: C22_22  and  O35_35
REMARK    7  A    between atoms: C33_33  and  O35_35
REMARK                            x       y       z     vdW  Elec       q    Type
REMARK                         _______ _______ _______ _____ _____    ______ ____
ROOT
ATOM      1  C   UNL     1      58.274 -10.128  44.410  0.00  0.00    +0.079 C 
ATOM     19  C   UNL     1      59.091  -9.671  43.205  0.00  0.00    +0.018 C 
ATOM     20  C   UNL     1      59.858  -8.420  43.303  0.00  0.00    +0.088 C 
ATOM     21  O   UNL     1      59.780  -7.706  44.291  0.00  0.00    -0.416 OA
ATOM     22  C   UNL     1      60.803  -8.030  42.196  0.00  0.00    +0.107 C 
ATOM     23  C   UNL     1      60.404  -8.550  40.828  0.00  0.00    +0.039 C 
ATOM     24  C   UNL     1      59.935 -10.000  40.853  0.00  0.00    +0.111 C 
ATOM     25  C   UNL     1      59.106 -10.381  42.039  0.00  0.00    +0.053 C 
ATOM     26  N   UNL     1      58.277 -11.463  41.863  0.00  0.00    -0.281 N 
ATOM     27  H   UNL     1      58.251 -11.908  40.934  0.00  0.00    +0.209 HD
ATOM     28  C   UNL     1      57.484 -11.984  42.850  0.00  0.00    +0.073 A 
ATOM     29  C   UNL     1      56.645 -13.063  42.868  0.00  0.00    +0.148 A 
ATOM     35  N   UNL     1      56.133 -13.160  44.137  0.00  0.00    -0.295 N 
ATOM     36  H   UNL     1      55.458 -13.873  44.449  0.00  0.00    +0.223 HD
ATOM     37  C   UNL     1      56.647 -12.178  44.921  0.00  0.00    +0.095 A 
ATOM     38  C   UNL     1      57.496 -11.407  44.158  0.00  0.00    -0.011 A 
ENDROOT
BRANCH   1   2
ATOM      2  C   UNL     1      57.342  -9.042  44.958  0.00  0.00    -0.042 A 
ATOM      3  C   UNL     1      56.601  -8.262  44.079  0.00  0.00    -0.022 A 
ATOM      4  C   UNL     1      55.431  -7.644  44.489  0.00  0.00    -0.019 A 
ATOM      5  C   UNL     1      54.986  -7.776  45.790  0.00  0.00    +0.016 A 
ATOM      6  C   UNL     1      55.760  -8.481  46.693  0.00  0.00    +0.122 A 
ATOM     18  C   UNL     1      56.956  -9.071  46.293  0.00  0.00    +0.024 A 
BRANCH   6   7
ATOM      7  O   UNL     1      55.255  -8.654  48.010  0.00  0.00    -0.201 OA
BRANCH   7   8
ATOM      8  C   UNL     1      56.008  -8.064  48.989  0.00  0.00    +0.293 A 
ATOM      9  N   UNL     1      55.725  -8.059  50.273  0.00  0.00    -0.218 N 
ATOM     10  H   UNL     1      54.913  -8.480  50.747  0.00  0.00    +0.233 HD
ATOM     11  C   UNL     1      56.783  -7.350  50.841  0.00  0.00    +0.078 A 
ATOM     12  C   UNL     1      57.684  -6.948  49.849  0.00  0.00    +0.017 A 
ATOM     13  C   UNL     1      58.778  -6.140  50.131  0.00  0.00    -0.015 A 
ATOM     14  C   UNL     1      58.945  -5.713  51.442  0.00  0.00    -0.029 A 
ATOM     15  C   UNL     1      58.048  -6.104  52.443  0.00  0.00    -0.026 A 
ATOM     16  C   UNL     1      56.971  -6.937  52.159  0.00  0.00    +0.010 A 
ATOM     17  N   UNL     1      57.167  -7.415  48.654  0.00  0.00    -0.295 NA
ENDBRANCH   7   8
ENDBRANCH   6   7
ENDBRANCH   1   2
BRANCH  29  30
ATOM     30  C   UNL     1      56.256 -14.018  41.843  0.00  0.00    +0.259 C 
ATOM     34  O   UNL     1      55.437 -14.898  42.038  0.00  0.00    -0.377 OA
BRANCH  30  31
ATOM     31  O   UNL     1      56.893 -13.778  40.674  0.00  0.00    -0.283 OA
BRANCH  31  32
ATOM     32  C   UNL     1      56.685 -14.726  39.579  0.00  0.00    +0.193 C 
ATOM     33  C   UNL     1      55.682 -14.206  38.645  0.00  0.00    +0.039 C 
ENDBRANCH  31  32
ENDBRANCH  30  31
ENDBRANCH  29  30
TORSDOF 6
