REMARK  Name = 1E99
REMARK  8 active torsions:
REMARK  status: ('A' for Active; 'I' for Inactive)
REMARK    1  A    between atoms: P_1  and  O_5
REMARK    2  A    between atoms: O_5  and  C_6
REMARK    3  A    between atoms: C_6  and  C_7
REMARK    4  A    between atoms: C_9  and  N_10
REMARK    5  A    between atoms: N_10  and  N_11
REMARK    6  A    between atoms: C_14  and  N_15
REMARK    7  A    between atoms: C_19  and  O_20
REMARK    8  A    between atoms: C_21  and  C_22
REMARK                            x       y       z     vdW  Elec       q    Type
REMARK                         _______ _______ _______ _____ _____    ______ ____
ROOT
ATOM      4  C   UNL     1      14.718  74.987  26.238  0.00  0.00    +0.173 C 
ATOM      5  C   UNL     1      13.736  75.545  27.251  0.00  0.00    +0.186 C 
ATOM      6  C   UNL     1      12.860  76.515  26.424  0.00  0.00    +0.083 C 
ATOM      7  C   UNL     1      13.828  76.923  25.294  0.00  0.00    +0.212 C 
ATOM     23  O   UNL     1      14.573  75.759  25.057  0.00  0.00    -0.351 OA
ENDROOT
BRANCH   7   8
ATOM      8  N   UNL     1      13.342  77.489  24.034  0.00  0.00    -0.255 N 
ATOM      9  C   UNL     1      12.587  76.623  23.311  0.00  0.00    +0.147 C 
ATOM     10  C   UNL     1      12.160  76.978  22.048  0.00  0.00    +0.002 C 
ATOM     11  C   UNL     1      11.316  76.088  21.212  0.00  0.00    +0.046 C 
ATOM     12  C   UNL     1      12.581  78.320  21.581  0.00  0.00    +0.185 C 
ATOM     15  N   UNL     1      13.355  79.131  22.378  0.00  0.00    -0.240 N 
ATOM     16  H   UNL     1      13.634  80.095  22.006  0.00  0.00    +0.159 HD
ATOM     17  C   UNL     1      13.789  78.761  23.634  0.00  0.00    +0.311 C 
ATOM     18  O   UNL     1      14.466  79.491  24.349  0.00  0.00    -0.252 OA
BRANCH  12  13
ATOM     13  O   UNL     1      12.212  78.773  20.354  0.00  0.00    -0.495 OA
ATOM     14  H   UNL     1      11.652  79.655  20.460  0.00  0.00    +0.293 HD
ENDBRANCH  12  13
ENDBRANCH   7   8
BRANCH   5  19
ATOM     19  N   UNL     1      14.558  76.217  28.306  0.00  0.00    +0.003 N 
ATOM     20  H   UNL     1      14.825  77.194  27.962  0.00  0.00    +0.238 HD
BRANCH  19  21
ATOM     21  N   UNL     1      13.952  76.327  29.386  0.00  0.00    +0.298 NA
ATOM     22  N   UNL     1      13.640  76.261  30.484  0.00  0.00    +0.251 NA
ENDBRANCH  19  21
ENDBRANCH   5  19
BRANCH   4   3
ATOM      3  C   UNL     1      14.632  73.438  26.275  0.00  0.00    +0.197 C 
BRANCH   3   2
ATOM      2  O   UNL     1      13.347  72.966  25.935  0.00  0.00    -0.365 OA
BRANCH   2   1
ATOM      1  P   UNL     1      12.644  71.706  26.725  0.00  0.00    -0.015 P 
ATOM     24  O   UNL     1      13.670  70.626  26.898  0.00  0.00    -0.577 OA
ATOM     25  O   UNL     1      11.435  71.499  25.886  0.00  0.00    -0.638 OA
ATOM     26  O   UNL     1      12.360  72.249  28.122  0.00  0.00    -0.577 OA
ENDBRANCH   2   1
ENDBRANCH   3   2
ENDBRANCH   4   3
TORSDOF 7
