REMARK  Name = 3nw5_ligand
REMARK  3 active torsions:
REMARK  status: ('A' for Active; 'I' for Inactive)
REMARK    1  A    between atoms: C7_7  and  C19_19
REMARK    2  A    between atoms: C13_13  and  C16_16
REMARK    3  A    between atoms: C24_24  and  C26_26
REMARK                            x       y       z     vdW  Elec       q    Type
REMARK                         _______ _______ _______ _____ _____    ______ ____
ROOT
ATOM      1  N   UNL     1     -15.573   7.078   9.963  0.00  0.00    -0.176 N 
ATOM      2  N   UNL     1     -15.071   6.111   9.144  0.00  0.00    -0.174 NA
ATOM      3  C   UNL     1     -15.269   4.788   9.385  0.00  0.00    +0.117 A 
ATOM     18  N   UNL     1     -15.977   4.416  10.458  0.00  0.00    -0.266 NA
ATOM     19  C   UNL     1     -16.497   5.351  11.303  0.00  0.00    +0.170 A 
ATOM     20  N   UNL     1     -17.214   4.901  12.383  0.00  0.00    -0.248 N 
ATOM     21  H   UNL     1     -17.638   5.619  12.988  0.00  0.00    +0.217 HD
ATOM     22  C   UNL     1     -17.442   3.482  12.771  0.00  0.00    +0.096 A 
ATOM     23  N   UNL     1     -18.113   3.125  13.865  0.00  0.00    -0.232 NA
ATOM     24  N   UNL     1     -18.207   1.789  14.036  0.00  0.00    -0.235 N 
ATOM     25  H   UNL     1     -18.688   1.332  14.824  0.00  0.00    +0.243 HD
ATOM     26  C   UNL     1     -17.589   1.140  13.041  0.00  0.00    +0.068 A 
ATOM     30  C   UNL     1     -17.084   2.193  12.207  0.00  0.00    -0.009 A 
ATOM     31  C   UNL     1     -15.488   8.426   9.895  0.00  0.00    +0.130 A 
ATOM     32  C   UNL     1     -16.178   8.967  10.982  0.00  0.00    -0.045 A 
ATOM     33  C   UNL     1     -16.714   7.930  11.757  0.00  0.00    -0.032 A 
ATOM     34  C   UNL     1     -16.316   6.733  11.089  0.00  0.00    +0.144 A 
ENDROOT
BRANCH   3   4
ATOM      4  C   UNL     1     -14.726   3.710   8.500  0.00  0.00    +0.183 C 
ATOM      5  C   UNL     1     -15.794   2.999   7.672  0.00  0.00    +0.050 C 
ATOM      6  C   UNL     1     -15.158   2.780   6.301  0.00  0.00    +0.029 C 
ATOM      7  C   UNL     1     -13.998   3.788   6.192  0.00  0.00    +0.141 C 
ATOM      8  N   UNL     1     -13.667   4.120   7.586  0.00  0.00    -0.253 N 
ATOM      9  C   UNL     1     -12.542   4.737   8.115  0.00  0.00    +0.213 C 
ATOM     17  O   UNL     1     -12.360   4.689   9.336  0.00  0.00    -0.384 OA
BRANCH   9  10
ATOM     10  C   UNL     1     -11.564   5.444   7.258  0.00  0.00    +0.071 A 
ATOM     11  C   UNL     1     -11.847   6.096   6.039  0.00  0.00    +0.112 A 
ATOM     12  N   UNL     1     -10.889   6.725   5.308  0.00  0.00    -0.258 NA
ATOM     13  C   UNL     1      -9.619   6.735   5.754  0.00  0.00    +0.218 A 
ATOM     14  F   UNL     1      -8.639   7.341   5.070  0.00  0.00    -0.150 F 
ATOM     15  C   UNL     1      -9.217   6.125   6.945  0.00  0.00    +0.077 A 
ATOM     16  C   UNL     1     -10.226   5.481   7.680  0.00  0.00    +0.050 A 
ENDBRANCH   9  10
ENDBRANCH   3   4
BRANCH  26  27
ATOM     27  C   UNL     1     -17.492  -0.405  12.904  0.00  0.00    +0.123 C 
ATOM     28  C   UNL     1     -18.503  -0.497  11.816  0.00  0.00    +0.006 C 
ATOM     29  C   UNL     1     -17.055  -0.508  11.494  0.00  0.00    +0.006 C 
ENDBRANCH  26  27
TORSDOF 3
