REMARK  Name = 3bqc_ligand
REMARK  4 active torsions:
REMARK  status: ('A' for Active; 'I' for Inactive)
REMARK    1  A    between atoms: C1_1  and  O1_2
REMARK    2  A    between atoms: C3_4  and  O3_5
REMARK    3  A    between atoms: C9_12  and  C10_13
REMARK    4  A    between atoms: C17_15  and  O17_16
REMARK                            x       y       z     vdW  Elec       q    Type
REMARK                         _______ _______ _______ _____ _____    ______ ____
ROOT
ATOM      1  C   UNL     1      17.275 -55.252 -46.735  0.00  0.00    +0.104 A 
ATOM      2  C   UNL     1      17.149 -54.302 -45.728  0.00  0.00    +0.066 A 
ATOM      3  C   UNL     1      17.312 -52.940 -46.035  0.00  0.00    +0.144 C 
ATOM      4  O   UNL     1      17.561 -52.618 -47.204  0.00  0.00    -0.384 OA
ATOM      5  C   UNL     1      17.194 -51.975 -45.010  0.00  0.00    +0.069 A 
ATOM      6  C   UNL     1      17.344 -50.595 -45.251  0.00  0.00    +0.106 A 
ATOM      9  C   UNL     1      17.227 -49.649 -44.221  0.00  0.00    +0.031 A 
ATOM     10  C   UNL     1      16.929 -50.066 -42.933  0.00  0.00    -0.044 A 
ATOM     11  C   UNL     1      16.787 -49.001 -41.805  0.00  0.00    +0.089 C 
ATOM     12  C   UNL     1      16.769 -51.431 -42.679  0.00  0.00    +0.006 A 
ATOM     13  C   UNL     1      16.894 -52.397 -43.701  0.00  0.00    +0.037 A 
ATOM     14  C   UNL     1      16.732 -53.768 -43.408  0.00  0.00    +0.160 C 
ATOM     15  O   UNL     1      16.461 -54.146 -42.252  0.00  0.00    -0.361 OA
ATOM     16  C   UNL     1      16.865 -54.723 -44.429  0.00  0.00    +0.035 A 
ATOM     17  C   UNL     1      16.710 -56.091 -44.153  0.00  0.00    +0.033 A 
ATOM     18  C   UNL     1      16.819 -57.017 -45.186  0.00  0.00    +0.090 A 
ATOM     21  C   UNL     1      17.117 -56.600 -46.477  0.00  0.00    +0.057 A 
ENDROOT
BRANCH   6   7
ATOM      7  O   UNL     1      17.624 -50.139 -46.493  0.00  0.00    -0.328 OA
ATOM      8  H   UNL     1      17.677 -50.873 -47.094  0.00  0.00    +0.251 HD
ENDBRANCH   6   7
BRANCH  18  19
ATOM     19  O   UNL     1      16.652 -58.328 -44.940  0.00  0.00    -0.331 OA
ATOM     20  H   UNL     1      16.455 -58.454 -44.019  0.00  0.00    +0.250 HD
ENDBRANCH  18  19
BRANCH   1  22
ATOM     22  O   UNL     1      17.581 -54.817 -47.968  0.00  0.00    -0.329 OA
ATOM     23  H   UNL     1      17.650 -53.870 -47.960  0.00  0.00    +0.251 HD
ENDBRANCH   1  22
TORSDOF 3
