REMARK  Name = 5oum
REMARK  6 active torsions:
REMARK  status: ('A' for Active; 'I' for Inactive)
REMARK    1  A    between atoms: C11_3  and  C12_4
REMARK    2  A    between atoms: C2_12  and  C3_14
REMARK    3  A    between atoms: C3_14  and  N_15
REMARK    4  A    between atoms: N_15  and  C4_16
REMARK    5  A    between atoms: C4_16  and  C5_17
REMARK    6  A    between atoms: C5_17  and  C6_18
REMARK                            x       y       z     vdW  Elec       q    Type
REMARK                         _______ _______ _______ _____ _____    ______ ____
ROOT
ATOM      1 CL   UNL     1       6.608 140.023 351.350  0.00  0.00    -0.084 Cl
ATOM      2  C   UNL     1       5.175 139.050 351.348  0.00  0.00    +0.049 A 
ATOM      3  C   UNL     1       5.279 137.732 351.743  0.00  0.00    +0.026 A 
ATOM      4  C   UNL     1       4.159 136.913 351.752  0.00  0.00    -0.033 A 
ATOM     14  C   UNL     1       2.948 137.451 351.348  0.00  0.00    +0.006 A 
ATOM     15  C   UNL     1       2.845 138.771 350.953  0.00  0.00    +0.010 A 
ATOM     16  C   UNL     1       3.965 139.602 350.950  0.00  0.00    +0.000 A 
ENDROOT
BRANCH  16  17
ATOM     17  C   UNL     1       3.819 141.029 350.548  0.00  0.00    -0.017 A 
ATOM     18  C   UNL     1       4.799 141.659 349.785  0.00  0.00    +0.009 A 
ATOM     19  C   UNL     1       4.676 142.993 349.436  0.00  0.00    +0.001 A 
ATOM     20  C   UNL     1       3.577 143.717 349.840  0.00  0.00    +0.000 A 
ATOM     21  C   UNL     1       2.598 143.109 350.593  0.00  0.00    +0.001 A 
ATOM     22  C   UNL     1       2.713 141.776 350.944  0.00  0.00    +0.009 A 
ENDBRANCH  16  17
BRANCH   4   5
ATOM      5  C   UNL     1       4.263 135.481 352.209  0.00  0.00    +0.116 C 
BRANCH   5   6
ATOM      6  N   UNL     1       5.619 135.122 352.627  0.00  0.00    -0.190 NA
BRANCH   6   7
ATOM      7  C   UNL     1       5.782 133.685 352.844  0.00  0.00    +0.089 C 
BRANCH   7   8
ATOM      8  C   UNL     1       6.835 133.538 353.919  0.00  0.00    +0.090 C 
BRANCH   8   9
ATOM      9  C   UNL     1       7.052 132.118 354.304  0.00  0.00    +0.107 A 
ATOM     10  N   UNL     1       7.941 131.737 355.247  0.00  0.00    -0.181 NA
ATOM     11  C   UNL     1       7.874 130.379 355.344  0.00  0.00    +0.104 A 
ATOM     12  C   UNL     1       6.939 129.982 354.448  0.00  0.00    +0.131 A 
ATOM     13  N   UNL     1       6.419 131.072 353.791  0.00  0.00    -0.242 NA
ENDBRANCH   8   9
ENDBRANCH   7   8
ENDBRANCH   6   7
ENDBRANCH   5   6
ENDBRANCH   4   5
TORSDOF 6
