REMARK  Name = 4C58
REMARK  2 active torsions:
REMARK  status: ('A' for Active; 'I' for Inactive)
REMARK    1  A    between atoms: O_1  and  C_2
REMARK    2  A    between atoms: C_18  and  C_20
REMARK                            x       y       z     vdW  Elec       q    Type
REMARK                         _______ _______ _______ _____ _____    ______ ____
ROOT
ATOM      3  C   UNL     1      38.453  16.421 -44.449  0.00  0.00    +0.118 C 
ATOM      4  C   UNL     1      37.509  17.460 -44.337  0.00  0.00    +0.056 C 
ATOM      5  C   UNL     1      36.203  17.182 -44.169  0.00  0.00    +0.014 C 
ATOM      6  C   UNL     1      35.087  17.947 -44.063  0.00  0.00    +0.023 C 
ATOM      7  C   UNL     1      34.828  19.275 -44.121  0.00  0.00    +0.062 C 
ATOM      8  C   UNL     1      33.566  19.765 -43.997  0.00  0.00    +0.060 C 
ATOM      9  C   UNL     1      32.546  18.903 -43.845  0.00  0.00    -0.003 C 
ATOM     16  C   UNL     1      32.802  17.535 -43.844  0.00  0.00    +0.037 C 
ATOM     17  C   UNL     1      33.657  21.117 -44.024  0.00  0.00    +0.260 C 
ATOM     18  N   UNL     1      34.933  21.502 -44.172  0.00  0.00    -0.289 N 
ATOM     19  H   UNL     1      35.316  22.500 -44.223  0.00  0.00    +0.172 HD
ATOM     20  O   UNL     1      32.708  21.927 -43.940  0.00  0.00    -0.267 OA
ATOM     21  C   UNL     1      35.615  20.361 -44.241  0.00  0.00    +0.260 C 
ATOM     22  O   UNL     1      36.824  20.344 -44.375  0.00  0.00    -0.267 OA
ATOM     23  C   UNL     1      34.052  17.097 -43.935  0.00  0.00    +0.074 C 
ATOM     24  N   UNL     1      34.493  15.846 -43.899  0.00  0.00    -0.247 NA
ATOM     25  C   UNL     1      35.821  15.892 -44.064  0.00  0.00    +0.072 C 
ATOM     26  C   UNL     1      36.693  14.869 -44.140  0.00  0.00    +0.032 C 
ATOM     27  C   UNL     1      38.046  15.098 -44.332  0.00  0.00    +0.047 C 
ENDROOT
BRANCH   9  10
ATOM     10  C   UNL     1      31.191  19.251 -43.797  0.00  0.00    -0.017 A 
ATOM     11  C   UNL     1      30.247  18.565 -43.012  0.00  0.00    +0.008 A 
ATOM     12  C   UNL     1      28.899  18.925 -43.045  0.00  0.00    +0.001 A 
ATOM     13  C   UNL     1      28.451  19.894 -43.931  0.00  0.00    +0.000 A 
ATOM     14  C   UNL     1      29.369  20.495 -44.786  0.00  0.00    +0.001 A 
ATOM     15  C   UNL     1      30.716  20.178 -44.733  0.00  0.00    +0.008 A 
ENDBRANCH   9  10
BRANCH   3   1
ATOM      1  O   UNL     1      39.781  16.678 -44.611  0.00  0.00    -0.507 OA
ATOM      2  H   UNL     1      40.313  16.305 -43.786  0.00  0.00    +0.292 HD
ENDBRANCH   3   1
TORSDOF 2
