REMARK  Name = 4USF
REMARK  4 active torsions:
REMARK  status: ('A' for Active; 'I' for Inactive)
REMARK    1  A    between atoms: C_1  and  O_2
REMARK    2  A    between atoms: O_2  and  C_3
REMARK    3  A    between atoms: C_12  and  C_13
REMARK    4  A    between atoms: C_17  and  C_18
REMARK                            x       y       z     vdW  Elec       q    Type
REMARK                         _______ _______ _______ _____ _____    ______ ____
ROOT
ATOM      3  C   UNL     1     -15.214 -23.545  19.034  0.00  0.00    +0.121 A 
ATOM      4  C   UNL     1     -16.505 -23.028  18.962  0.00  0.00    +0.046 A 
ATOM      5  C   UNL     1     -16.848 -22.160  17.936  0.00  0.00    +0.012 A 
ATOM      6  C   UNL     1     -15.919 -21.832  16.942  0.00  0.00    -0.017 A 
ATOM      7  C   UNL     1     -14.629 -22.358  17.012  0.00  0.00    -0.014 A 
ATOM      8  C   UNL     1     -13.702 -22.020  16.029  0.00  0.00    +0.009 A 
ATOM      9  C   UNL     1     -14.053 -21.140  14.981  0.00  0.00    +0.010 A 
ATOM     10  C   UNL     1     -15.347 -20.579  14.927  0.00  0.00    +0.003 A 
ATOM     23  C   UNL     1     -16.260 -20.954  15.921  0.00  0.00    +0.018 A 
ATOM     24  C   UNL     1     -14.300 -23.214  18.032  0.00  0.00    +0.054 A 
ENDROOT
BRANCH  10  11
ATOM     11  C   UNL     1     -15.667 -19.718  13.925  0.00  0.00    +0.097 A 
ATOM     12  C   UNL     1     -16.277 -18.494  13.960  0.00  0.00    +0.074 A 
ATOM     19  N   UNL     1     -16.324 -18.037  12.692  0.00  0.00    -0.344 N 
ATOM     20  H   UNL     1     -16.727 -17.098  12.374  0.00  0.00    +0.167 HD
ATOM     21  C   UNL     1     -15.778 -18.967  11.906  0.00  0.00    +0.197 A 
ATOM     22  N   UNL     1     -15.361 -19.986  12.644  0.00  0.00    -0.235 NA
BRANCH  12  13
ATOM     13  C   UNL     1     -16.686 -17.703  14.989  0.00  0.00    +0.003 A 
ATOM     14  C   UNL     1     -16.162 -17.841  16.287  0.00  0.00    +0.029 A 
ATOM     15  C   UNL     1     -16.540 -16.970  17.299  0.00  0.00    +0.111 A 
ATOM     16  N   UNL     1     -17.404 -15.916  17.082  0.00  0.00    -0.263 NA
ATOM     17  C   UNL     1     -17.909 -15.748  15.802  0.00  0.00    +0.111 A 
ATOM     18  C   UNL     1     -17.558 -16.631  14.778  0.00  0.00    +0.029 A 
ENDBRANCH  12  13
ENDBRANCH  10  11
BRANCH   3   2
ATOM      1  C   UNL     1     -13.556 -24.386  20.523  0.00  0.00    +0.277 C 
ATOM      2  O   UNL     1     -14.912 -24.377  20.072  0.00  0.00    -0.495 OA
ENDBRANCH   3   2
TORSDOF 3
