REMARK  Name = 2ofu_ligand
REMARK  21 active torsions:
REMARK  status: ('A' for Active; 'I' for Inactive)
REMARK    1  A    between atoms: C19_3  and  N6_9
REMARK    2  A    between atoms: N4_7  and  C9_8
REMARK    3  A    between atoms: N6_9  and  C10_10
REMARK    4  A    between atoms: C11_11  and  O4_35
REMARK    5  A    between atoms: C12_12  and  O1_22
REMARK    6  A    between atoms: C16_15  and  O3_34
REMARK    7  A    between atoms: C21_18  and  O7_42
REMARK    8  A    between atoms: C22_19  and  O5_38
REMARK    9  A    between atoms: C23_20  and  O6_31
REMARK   10  A    between atoms: O1_22  and  C25_23
REMARK   11  A    between atoms: C26_24  and  C32_30
REMARK   12  A    between atoms: C30_28  and  C31_29
REMARK   13  A    between atoms: O6_31  and  C33_32
REMARK   14  A    between atoms: O3_34  and  C37_37
REMARK   15  A    between atoms: O4_35  and  C36_36
REMARK   16  A    between atoms: O5_38  and  C7_39
REMARK   17  A    between atoms: C7_39  and  C8_40
REMARK   18  A    between atoms: C8_40  and  C35_41
REMARK   19  A    between atoms: C35_41  and  N5_48
REMARK   20  A    between atoms: O7_42  and  C34_43
REMARK   21  A    between atoms: N2_45  and  C2_50
REMARK                            x       y       z     vdW  Elec       q    Type
REMARK                         _______ _______ _______ _____ _____    ______ ____
ROOT
ATOM      1  C   UNL     1      25.716  35.840  82.748  0.00  0.00    +0.188 A 
ATOM      2  N   UNL     1      27.031  35.842  82.357  0.00  0.00    -0.256 N 
ATOM      3  H   UNL     1      27.292  35.143  81.647  0.00  0.00    +0.215 HD
ATOM     27  N   UNL     1      24.915  34.918  82.207  0.00  0.00    -0.274 NA
ATOM     28  C   UNL     1      23.617  34.770  82.533  0.00  0.00    +0.081 A 
ATOM     29  C   UNL     1      23.044  35.618  83.480  0.00  0.00    +0.057 A 
ATOM     30  C   UNL     1      23.930  36.607  84.041  0.00  0.00    +0.163 A 
ATOM     53  N   UNL     1      25.212  36.690  83.660  0.00  0.00    -0.236 NA
ENDROOT
BRANCH   2   4
ATOM      4  C   UNL     1      28.049  36.666  82.798  0.00  0.00    +0.038 A 
ATOM      5  C   UNL     1      29.318  36.068  82.674  0.00  0.00    +0.006 A 
ATOM      6  C   UNL     1      30.478  36.819  83.055  0.00  0.00    +0.103 A 
ATOM      9  C   UNL     1      30.321  38.158  83.553  0.00  0.00    +0.135 A 
ATOM     23  C   UNL     1      29.034  38.781  83.696  0.00  0.00    +0.103 A 
ATOM     26  C   UNL     1      27.901  38.019  83.309  0.00  0.00    +0.006 A 
BRANCH   6   7
ATOM      7  O   UNL     1      31.791  36.321  82.991  0.00  0.00    -0.331 OA
ATOM      8  C   UNL     1      32.059  35.005  82.488  0.00  0.00    +0.228 C 
ENDBRANCH   6   7
BRANCH  23  24
ATOM     24  O   UNL     1      28.933  40.092  84.232  0.00  0.00    -0.331 OA
ATOM     25  C   UNL     1      27.893  41.023  83.858  0.00  0.00    +0.228 C 
ENDBRANCH  23  24
BRANCH   9  10
ATOM     10  O   UNL     1      31.439  38.929  83.897  0.00  0.00    -0.333 OA
BRANCH  10  11
ATOM     11  C   UNL     1      31.696  38.870  85.298  0.00  0.00    +0.188 C 
BRANCH  11  12
ATOM     12  C   UNL     1      33.016  39.509  85.558  0.00  0.00    +0.083 C 
BRANCH  12  13
ATOM     13  C   UNL     1      33.063  40.928  84.984  0.00  0.00    +0.134 C 
BRANCH  13  14
ATOM     14  N   UNL     1      33.977  41.797  85.754  0.00  0.00    +0.243 N 
ATOM     15  H   UNL     1      33.521  42.085  86.605  0.00  0.00    +0.204 HD
ATOM     16  C   UNL     1      35.249  41.078  86.108  0.00  0.00    +0.183 C 
ATOM     17  C   UNL     1      36.252  41.969  86.911  0.00  0.00    +0.183 C 
ATOM     18  N   UNL     1      36.529  43.178  86.054  0.00  0.00    +0.240 N 
ATOM     19  H   UNL     1      37.128  43.791  86.584  0.00  0.00    +0.203 HD
ATOM     20  C   UNL     1      37.236  42.797  84.796  0.00  0.00    +0.191 C 
ATOM     21  C   UNL     1      35.292  43.950  85.673  0.00  0.00    +0.183 C 
ATOM     22  C   UNL     1      34.280  43.004  84.919  0.00  0.00    +0.183 C 
ENDBRANCH  13  14
ENDBRANCH  12  13
ENDBRANCH  11  12
ENDBRANCH  10  11
ENDBRANCH   9  10
ENDBRANCH   2   4
BRANCH  30  31
ATOM     31  N   UNL     1      23.551  37.564  85.002  0.00  0.00    -0.129 N 
ATOM     32  C   UNL     1      22.210  37.592  85.305  0.00  0.00    +0.403 C 
ATOM     33  O   UNL     1      21.278  37.404  84.649  0.00  0.00    -0.352 OA
BRANCH  31  43
ATOM     43  C   UNL     1      24.423  38.476  85.632  0.00  0.00    +0.121 A 
ATOM     44  C   UNL     1      25.492  37.975  86.502  0.00  0.00    -0.001 A 
ATOM     45  C   UNL     1      26.332  38.913  87.160  0.00  0.00    -0.012 A 
ATOM     46  C   UNL     1      26.096  40.312  86.932  0.00  0.00    +0.070 A 
ATOM     49  C   UNL     1      25.042  40.840  86.075  0.00  0.00    +0.030 A 
ATOM     50  C   UNL     1      24.191  39.896  85.408  0.00  0.00    +0.113 A 
BRANCH  46  47
ATOM     47  O   UNL     1      27.028  41.148  87.565  0.00  0.00    -0.332 OA
ATOM     48  C   UNL     1      26.583  42.360  88.168  0.00  0.00    +0.228 C 
ENDBRANCH  46  47
BRANCH  50  51
ATOM     51  O   UNL     1      23.130  40.252  84.517  0.00  0.00    -0.327 OA
ATOM     52  C   UNL     1      22.697  41.634  84.448  0.00  0.00    +0.229 C 
ENDBRANCH  50  51
ENDBRANCH  31  43
BRANCH  32  34
ATOM     34  O   UNL     1      22.025  37.948  86.747  0.00  0.00    -0.198 OA
BRANCH  34  35
ATOM     35  C   UNL     1      20.585  37.827  87.210  0.00  0.00    +0.127 A 
ATOM     36  C   UNL     1      19.879  39.037  87.272  0.00  0.00    -0.018 A 
ATOM     37  C   UNL     1      20.533  40.320  86.885  0.00  0.00    +0.076 C 
ATOM     38  C   UNL     1      18.501  38.951  87.712  0.00  0.00    -0.028 A 
ATOM     39  C   UNL     1      17.967  37.660  88.041  0.00  0.00    -0.036 A 
ATOM     40  C   UNL     1      18.711  36.444  87.964  0.00  0.00    -0.028 A 
ATOM     41  C   UNL     1      20.087  36.539  87.521  0.00  0.00    -0.018 A 
ATOM     42  C   UNL     1      20.928  35.325  87.360  0.00  0.00    +0.076 C 
ENDBRANCH  34  35
ENDBRANCH  32  34
ENDBRANCH  30  31
TORSDOF 14
