REMARK  Name = 3uvq_ligand
REMARK  10 active torsions:
REMARK  status: ('A' for Active; 'I' for Inactive)
REMARK    1  A    between atoms: OAC_3  and  CAT_20
REMARK    2  A    between atoms: OAD_4  and  CBM_39
REMARK    3  A    between atoms: CAT_20  and  CBM_39
REMARK    4  A    between atoms: CAW_23  and  OAZ_26
REMARK    5  A    between atoms: CAW_23  and  CBM_39
REMARK    6  A    between atoms: NAX_24  and  CBJ_36
REMARK    7  A    between atoms: NAY_25  and  CBC_29
REMARK    8  A    between atoms: NAY_25  and  CBD_30
REMARK    9  A    between atoms: OAZ_26  and  CBF_32
REMARK   10  A    between atoms: CBA_27  and  CBG_33
REMARK                            x       y       z     vdW  Elec       q    Type
REMARK                         _______ _______ _______ _____ _____    ______ ____
ROOT
ATOM     18  C   UNL     1      -2.395   0.144 -20.541  0.00  0.00    +0.056 A 
ATOM     19  C   UNL     1      -1.738  -0.140 -21.758  0.00  0.00    +0.015 A 
ATOM     20  C   UNL     1      -1.539   0.842 -22.744  0.00  0.00    -0.033 A 
ATOM     21  C   UNL     1      -2.027   2.141 -22.495  0.00  0.00    +0.022 A 
ATOM     22  C   UNL     1      -2.004   3.251 -23.383  0.00  0.00    +0.139 C 
ATOM     23  C   UNL     1      -1.855   3.046 -24.745  0.00  0.00    +0.024 A 
ATOM     24  C   UNL     1      -0.958   2.165 -25.351  0.00  0.00    -0.033 A 
ATOM     25  C   UNL     1      -0.043   1.351 -24.691  0.00  0.00    +0.079 C 
ATOM     26  C   UNL     1      -0.948   2.003 -26.733  0.00  0.00    -0.008 A 
ATOM     27  C   UNL     1      -1.850   2.751 -27.502  0.00  0.00    +0.022 A 
ATOM     28  C   UNL     1      -2.758   3.621 -26.893  0.00  0.00    +0.089 A 
ATOM     37  C   UNL     1      -2.778   3.767 -25.506  0.00  0.00    +0.036 A 
ATOM     38  O   UNL     1      -2.227   4.398 -23.001  0.00  0.00    -0.382 OA
ATOM     39  C   UNL     1      -2.689   2.400 -21.275  0.00  0.00    +0.002 A 
ATOM     40  C   UNL     1      -0.861   0.297 -23.884  0.00  0.00    +0.083 C 
ATOM     41  C   UNL     1      -2.878   1.423 -20.290  0.00  0.00    +0.009 A 
ENDROOT
BRANCH  18  16
ATOM     16  N   UNL     1      -2.495  -0.882 -19.698  0.00  0.00    -0.279 N 
ATOM     17  H   UNL     1      -1.990  -1.727 -19.965  0.00  0.00    +0.209 HD
BRANCH  16  15
ATOM     11  C   UNL     1      -3.190  -1.910 -16.276  0.00  0.00    +0.090 A 
ATOM     12  C   UNL     1      -4.427  -1.300 -16.061  0.00  0.00    +0.139 A 
ATOM     13  C   UNL     1      -5.034  -0.520 -17.070  0.00  0.00    +0.003 A 
ATOM     14  C   UNL     1      -4.416  -0.336 -18.318  0.00  0.00    -0.016 A 
ATOM     15  C   UNL     1      -3.177  -0.946 -18.539  0.00  0.00    +0.042 A 
ATOM     42  F   UNL     1      -4.991  -1.407 -14.983  0.00  0.00    -0.203 F 
ATOM     43  C   UNL     1      -2.581  -1.738 -17.531  0.00  0.00    +0.019 A 
BRANCH  11   9
ATOM      1  O   UNL     1      -0.541  -1.827 -15.431  0.00  0.00    -0.374 OA
ATOM      2  C   UNL     1      -1.347  -2.613 -14.931  0.00  0.00    +0.231 C 
ATOM      9  N   UNL     1      -2.658  -2.682 -15.286  0.00  0.00    -0.235 N 
ATOM     10  H   UNL     1      -3.266  -3.336 -14.793  0.00  0.00    +0.224 HD
BRANCH   2   3
ATOM      3  C   UNL     1      -0.895  -3.504 -13.919  0.00  0.00    +0.056 A 
ATOM      4  C   UNL     1      -0.218  -3.028 -12.786  0.00  0.00    +0.025 A 
ATOM      5  C   UNL     1       0.240  -3.911 -11.815  0.00  0.00    +0.007 A 
ATOM      6  C   UNL     1       0.061  -5.306 -11.957  0.00  0.00    +0.008 A 
ATOM      7  C   UNL     1      -0.584  -5.800 -13.083  0.00  0.00    +0.007 A 
ATOM      8  C   UNL     1      -1.032  -4.895 -14.068  0.00  0.00    +0.025 A 
ENDBRANCH   2   3
ENDBRANCH  11   9
ENDBRANCH  16  15
ENDBRANCH  18  16
BRANCH  28  29
ATOM     29  O   UNL     1      -3.647   4.363 -27.627  0.00  0.00    -0.319 OA
BRANCH  29  30
ATOM     30  C   UNL     1      -3.770   3.980 -29.009  0.00  0.00    +0.224 C 
BRANCH  30  31
ATOM     31  C   UNL     1      -5.114   4.474 -29.551  0.00  0.00    +0.170 C 
BRANCH  31  35
ATOM     35  O   UNL     1      -4.981   4.782 -30.948  0.00  0.00    -0.387 OA
ATOM     36  H   UNL     1      -4.348   5.495 -31.058  0.00  0.00    +0.210 HD
ENDBRANCH  31  35
BRANCH  31  32
ATOM     32  C   UNL     1      -5.609   5.699 -28.745  0.00  0.00    +0.190 C 
BRANCH  32  33
ATOM     33  O   UNL     1      -5.727   6.874 -29.560  0.00  0.00    -0.392 OA
ATOM     34  H   UNL     1      -6.354   6.709 -30.268  0.00  0.00    +0.209 HD
ENDBRANCH  32  33
ENDBRANCH  31  32
ENDBRANCH  30  31
ENDBRANCH  29  30
ENDBRANCH  28  29
TORSDOF 10
