REMARK  Name = 1wbo_ligand
REMARK  1 active torsions:
REMARK  status: ('A' for Active; 'I' for Inactive)
REMARK    1  A    between atoms: C1_1  and  O_7
REMARK                            x       y       z     vdW  Elec       q    Type
REMARK                         _______ _______ _______ _____ _____    ______ ____
ROOT
ATOM      1  C   UNL     1       5.150  12.734  31.765  0.00  0.00    +0.102 A 
ATOM      4  C   UNL     1       5.191  11.988  30.540  0.00  0.00    +0.068 A 
ATOM      5 CL   UNL     1       3.809  12.058  29.521  0.00  0.00    -0.079 Cl
ATOM      6  C   UNL     1       6.346  11.225  30.155  0.00  0.00    +0.003 A 
ATOM      7  C   UNL     1       7.444  11.240  31.032  0.00  0.00    -0.020 A 
ATOM      8  C   UNL     1       7.426  11.957  32.244  0.00  0.00    -0.011 A 
ATOM      9  C   UNL     1       6.272  12.715  32.628  0.00  0.00    +0.021 A 
ENDROOT
BRANCH   1   2
ATOM      2  O   UNL     1       4.022  13.459  32.086  0.00  0.00    -0.332 OA
ATOM      3  H   UNL     1       4.153  13.893  32.921  0.00  0.00    +0.249 HD
ENDBRANCH   1   2
TORSDOF 1
