REMARK  Name = 6A1C
REMARK  5 active torsions:
REMARK  status: ('A' for Active; 'I' for Inactive)
REMARK    1  A    between atoms: C4_4  and  C11_8
REMARK    2  A    between atoms: C6_6  and  O8_11
REMARK    3  A    between atoms: C14_9  and  S19_18
REMARK    4  A    between atoms: N12_13  and  N14_14
REMARK    5  A    between atoms: C17_15  and  C18_20
REMARK                            x       y       z     vdW  Elec       q    Type
REMARK                         _______ _______ _______ _____ _____    ______ ____
ROOT
ATOM     10  N   UNL     1      -0.598  12.377  25.976  0.00  0.00    -0.200 N 
ATOM     11  C   UNL     1      -0.884  13.716  25.784  0.00  0.00    +0.200 A 
ATOM     18  N   UNL     1      -0.860  14.268  27.057  0.00  0.00    -0.100 NA
ATOM     19  N   UNL     1      -0.572  13.275  28.032  0.00  0.00    -0.100 NA
ATOM     20  C   UNL     1      -0.428  12.155  27.296  0.00  0.00    +0.260 A 
ENDROOT
BRANCH  11  12
ATOM     12  C   UNL     1      -1.215  14.535  24.547  0.00  0.00    +0.000 A 
ATOM     13  C   UNL     1      -1.299  15.932  24.658  0.00  0.00    -0.130 A 
ATOM     14  C   UNL     1      -1.618  16.716  23.536  0.00  0.00    -0.130 A 
ATOM     15  C   UNL     1      -1.899  16.130  22.300  0.00  0.00    -0.130 A 
ATOM     16  C   UNL     1      -1.858  14.748  22.157  0.00  0.00    -0.130 A 
ATOM     17  C   UNL     1      -1.528  13.960  23.291  0.00  0.00    -0.130 A 
ENDBRANCH  11  12
BRANCH  10   9
ATOM      8  C   UNL     1      -0.525  10.181  25.279  0.00  0.00    -0.150 C 
ATOM      9  N   UNL     1      -0.506  11.420  25.033  0.00  0.00    -0.050 NA
BRANCH   8   7
ATOM      1  C   UNL     1       0.497   7.493  22.153  0.00  0.00    +0.550 C 
ATOM      2  O   UNL     1       0.837   6.674  21.238  0.00  0.00    -0.550 OA
ATOM      3  C   UNL     1       0.096   8.805  21.860  0.00  0.00    +0.000 C 
ATOM      6  C   UNL     1      -0.242   9.652  22.909  0.00  0.00    -0.100 C 
ATOM      7  C   UNL     1      -0.158   9.208  24.223  0.00  0.00    +0.000 C 
ATOM     23  C   UNL     1       0.243   7.873  24.424  0.00  0.00    +0.000 C 
ATOM     24 BR   UNL     1       0.369   7.167  26.089  0.00  0.00    +0.000 Br
ATOM     25  C   UNL     1       0.562   6.986  23.436  0.00  0.00    -0.100 C 
BRANCH   3   4
ATOM      4  O   UNL     1      -0.003   9.237  20.554  0.00  0.00    -0.180 OA
ATOM      5  C   UNL     1      -0.555  10.511  20.218  0.00  0.00    +0.030 C 
ENDBRANCH   3   4
ENDBRANCH   8   7
ENDBRANCH  10   9
BRANCH  20  21
ATOM     21  S   UNL     1      -0.058  10.611  28.040  0.00  0.00    -0.110 S 
ATOM     22  C   UNL     1      -0.493  10.685  29.768  0.00  0.00    -0.100 C 
ENDBRANCH  20  21
TORSDOF 5
