REMARK  Name = 3qqu_ligand
REMARK  5 active torsions:
REMARK  status: ('A' for Active; 'I' for Inactive)
REMARK    1  A    between atoms: N1_2  and  C15_23
REMARK    2  A    between atoms: N2_5  and  C18_26
REMARK    3  A    between atoms: O2_6  and  C14_22
REMARK    4  A    between atoms: O2_6  and  C17_25
REMARK    5  A    between atoms: N6_14  and  C12_20
REMARK                            x       y       z     vdW  Elec       q    Type
REMARK                         _______ _______ _______ _____ _____    ______ ____
ROOT
ATOM      1  C   UNL     1     -10.897   0.458  -0.109  0.00  0.00    +0.056 A 
ATOM      2  C   UNL     1     -11.019  -0.959  -0.191  0.00  0.00    +0.135 A 
ATOM      3  N   UNL     1     -11.291  -1.573  -1.376  0.00  0.00    -0.235 NA
ATOM      4  C   UNL     1     -11.455  -0.879  -2.493  0.00  0.00    +0.192 A 
ATOM      5  N   UNL     1     -11.716  -1.524  -3.685  0.00  0.00    -0.254 N 
ATOM      6  H   UNL     1     -11.877  -0.911  -4.484  0.00  0.00    +0.214 HD
ATOM     21  N   UNL     1     -11.345   0.469  -2.423  0.00  0.00    -0.270 NA
ATOM     22  N   UNL     1     -10.884  -1.695   0.979  0.00  0.00    -0.250 N 
ATOM     23  H   UNL     1     -10.749  -1.132   1.819  0.00  0.00    +0.218 HD
ATOM     34  C   UNL     1     -11.078   1.159  -1.306  0.00  0.00    +0.086 A 
ENDROOT
BRANCH  22  24
ATOM     24  C   UNL     1     -10.901  -3.059   1.202  0.00  0.00    +0.095 A 
ATOM     25  C   UNL     1     -10.174  -3.509   2.356  0.00  0.00    +0.123 A 
ATOM     26  N   UNL     1     -10.144  -4.849   2.588  0.00  0.00    -0.298 NA
ATOM     27  C   UNL     1     -10.770  -5.850   1.784  0.00  0.00    +0.040 A 
ATOM     28  C   UNL     1     -11.557  -5.433   0.567  0.00  0.00    -0.005 A 
ATOM     29  C   UNL     1     -12.183  -6.420  -0.296  0.00  0.00    +0.010 A 
ATOM     30  C   UNL     1     -12.031  -7.850   0.027  0.00  0.00    +0.003 A 
ATOM     31  C   UNL     1     -11.267  -8.294   1.198  0.00  0.00    +0.002 A 
ATOM     32  C   UNL     1     -10.654  -7.294   2.057  0.00  0.00    +0.020 A 
ATOM     33  C   UNL     1     -11.570  -4.045   0.354  0.00  0.00    +0.049 A 
ENDBRANCH  22  24
BRANCH   5   7
ATOM      7  C   UNL     1     -11.792  -2.877  -3.957  0.00  0.00    +0.044 A 
ATOM      8  C   UNL     1     -10.889  -3.797  -3.357  0.00  0.00    +0.022 A 
ATOM      9  C   UNL     1     -10.992  -5.179  -3.668  0.00  0.00    +0.101 A 
ATOM     10  C   UNL     1     -12.004  -5.655  -4.592  0.00  0.00    +0.060 A 
ATOM     11  C   UNL     1     -12.932  -4.739  -5.212  0.00  0.00    -0.015 A 
ATOM     20  C   UNL     1     -12.803  -3.348  -4.876  0.00  0.00    -0.019 A 
BRANCH  10  12
ATOM     12  N   UNL     1     -12.077  -7.003  -4.925  0.00  0.00    -0.313 N 
ATOM     13  C   UNL     1     -13.358  -7.682  -5.188  0.00  0.00    +0.152 C 
ATOM     14  C   UNL     1     -13.197  -9.100  -5.717  0.00  0.00    +0.182 C 
ATOM     15  O   UNL     1     -12.385  -9.747  -4.776  0.00  0.00    -0.376 OA
ATOM     16  C   UNL     1     -11.024  -9.293  -4.817  0.00  0.00    +0.182 C 
ATOM     17  C   UNL     1     -10.844  -7.795  -5.061  0.00  0.00    +0.152 C 
ENDBRANCH  10  12
BRANCH   9  18
ATOM     18  O   UNL     1     -10.116  -6.066  -3.051  0.00  0.00    -0.329 OA
ATOM     19  C   UNL     1      -8.765  -5.689  -2.699  0.00  0.00    +0.228 C 
ENDBRANCH   9  18
ENDBRANCH   5   7
TORSDOF 4
