REMARK  Name = HBD
REMARK  2 active torsions:
REMARK  status: ('A' for Active; 'I' for Inactive)
REMARK    1  A    between atoms: C1_1  and  C1'_7
REMARK    2  A    between atoms: C1_11  and  C1'_17
REMARK                            x       y       z     vdW  Elec       q    Type
REMARK                         _______ _______ _______ _____ _____    ______ ____
ROOT
ATOM      1  C   UNL     1     149.905  -0.389 139.686  0.00  0.00    +0.057 A 
ATOM      2  C   UNL     1     148.846   0.183 140.374  0.00  0.00    +0.008 A 
ATOM      3  C   UNL     1     148.674   1.554 140.414  0.00  0.00    +0.042 A 
ATOM      4  C   UNL     1     149.512   2.385 139.686  0.00  0.00    +0.196 A 
ATOM      5  O   UNL     1     149.346   3.762 139.675  0.00  0.00    -0.287 OA
ATOM      6  C   UNL     1     150.531   1.825 138.936  0.00  0.00    +0.042 A 
ATOM     10  C   UNL     1     150.742   0.464 138.970  0.00  0.00    +0.008 A 
ENDROOT
BRANCH   1   7
ATOM      7  C   UNL     1     150.136  -1.919 139.832  0.00  0.00    +0.284 C 
ATOM      8  N   UNL     1     149.887  -2.490 141.007  0.00  0.00    -0.084 NA
ATOM      9  O   UNL     1     150.555  -2.546 138.889  0.00  0.00    -0.267 OA
ENDBRANCH   1   7
TORSDOF 1
