REMARK  Name = 3s0o_ligand
REMARK  7 active torsions:
REMARK  status: ('A' for Active; 'I' for Inactive)
REMARK    1  A    between atoms: C2_2  and  N3_3
REMARK    2  A    between atoms: C4_4  and  C5_5
REMARK    3  A    between atoms: C5_5  and  C6_6
REMARK    4  A    between atoms: C5_5  and  O12_12
REMARK    5  A    between atoms: N15_15  and  C16_16
REMARK    6  A    between atoms: C16_16  and  C17_17
REMARK    7  A    between atoms: C17_17  and  C18_18
REMARK                            x       y       z     vdW  Elec       q    Type
REMARK                         _______ _______ _______ _____ _____    ______ ____
ROOT
ATOM      1  N   UNL     1      64.794  82.174 -86.573  0.00  0.00    -0.308 NA
ATOM      2  C   UNL     1      64.402  82.239 -85.283  0.00  0.00    +0.169 A 
ATOM      3  N   UNL     1      63.427  83.124 -84.880  0.00  0.00    -0.289 N 
ATOM      4  H   UNL     1      63.004  83.753 -85.577  0.00  0.00    +0.188 HD
ATOM      8  S   UNL     1      65.205  81.146 -84.232  0.00  0.00    -0.001 S 
ATOM      9  C   UNL     1      66.109  80.556 -85.572  0.00  0.00    +0.059 A 
ATOM     19  C   UNL     1      65.749  81.239 -86.749  0.00  0.00    +0.052 A 
ENDROOT
BRANCH  19  20
ATOM     20  N   UNL     1      66.267  81.019 -87.978  0.00  0.00    -0.352 N 
ATOM     21  H   UNL     1      65.932  81.567 -88.784  0.00  0.00    +0.162 HD
ATOM     22  H   UNL     1      66.997  80.304 -88.109  0.00  0.00    +0.162 HD
ENDBRANCH  19  20
BRANCH   3   5
ATOM      5  C   UNL     1      62.976  83.196 -83.495  0.00  0.00    +0.137 C 
BRANCH   5   6
ATOM      6  C   UNL     1      62.021  82.070 -83.160  0.00  0.00    +0.021 C 
ATOM      7  C   UNL     1      62.317  81.118 -82.071  0.00  0.00    +0.006 C 
ENDBRANCH   5   6
ENDBRANCH   3   5
BRANCH   9  10
ATOM     10  C   UNL     1      67.034  79.540 -85.440  0.00  0.00    +0.217 C 
BRANCH  10  13
ATOM     13  C   UNL     1      67.318  78.869 -84.122  0.00  0.00    +0.061 A 
ATOM     14  C   UNL     1      67.878  77.556 -84.081  0.00  0.00    +0.036 A 
ATOM     15  C   UNL     1      68.130  76.939 -82.821  0.00  0.00    +0.023 A 
ATOM     16  C   UNL     1      67.840  77.591 -81.642  0.00  0.00    +0.024 A 
ATOM     17  C   UNL     1      67.298  78.859 -81.643  0.00  0.00    +0.083 A 
ATOM     18  N   UNL     1      67.032  79.510 -82.881  0.00  0.00    -0.295 NA
ENDBRANCH  10  13
BRANCH  10  11
ATOM     11  O   UNL     1      67.715  79.083 -86.526  0.00  0.00    -0.371 OA
ATOM     12  H   UNL     1      67.454  79.579 -87.293  0.00  0.00    +0.216 HD
ENDBRANCH  10  11
ENDBRANCH   9  10
TORSDOF 6
