REMARK  Name = 5P9H
REMARK  13 active torsions:
REMARK  status: ('A' for Active; 'I' for Inactive)
REMARK    1  A    between atoms: C_1  and  C_5
REMARK    2  A    between atoms: C_4  and  C_21
REMARK    3  A    between atoms: C_4  and  O_22
REMARK    4  A    between atoms: C_12  and  C_13
REMARK    5  A    between atoms: C_12  and  C_26
REMARK    6  A    between atoms: C_12  and  C_29
REMARK    7  A    between atoms: C_12  and  C_30
REMARK    8  A    between atoms: C_16  and  N_31
REMARK    9  A    between atoms: C_17  and  N_35
REMARK   10  A    between atoms: C_20  and  N_23
REMARK   11  A    between atoms: C_33  and  N_35
REMARK   12  A    between atoms: C_37  and  C_40
REMARK   13  A    between atoms: N_43  and  C_46
REMARK                            x       y       z     vdW  Elec       q    Type
REMARK                         _______ _______ _______ _____ _____    ______ ____
ROOT
ATOM      1  C   UNL     1      12.717  -8.945 -14.410  0.00  0.00    +0.012 A 
ATOM      2  C   UNL     1      12.897  -9.843 -13.320  0.00  0.00    +0.031 A 
ATOM      3  C   UNL     1      11.729 -10.307 -12.663  0.00  0.00    +0.164 A 
ATOM     20  N   UNL     1      10.507  -9.932 -13.044  0.00  0.00    -0.236 NA
ATOM     21  C   UNL     1      10.308  -9.115 -14.067  0.00  0.00    +0.114 A 
ATOM     48  C   UNL     1      11.390  -8.606 -14.767  0.00  0.00    +0.030 A 
ENDROOT
BRANCH   3   4
ATOM      4  N   UNL     1      11.830 -11.176 -11.574  0.00  0.00    -0.177 N 
ATOM      5  N   UNL     1      11.607 -12.535 -11.826  0.00  0.00    -0.170 NA
ATOM      6  C   UNL     1      11.750 -13.449 -10.910  0.00  0.00    +0.142 C 
ATOM      7  C   UNL     1      12.184 -13.052  -9.562  0.00  0.00    +0.010 A 
ATOM      8  C   UNL     1      12.447 -14.024  -8.594  0.00  0.00    +0.014 A 
ATOM      9  C   UNL     1      12.880 -13.658  -7.319  0.00  0.00    -0.039 A 
ATOM     10  C   UNL     1      13.051 -12.303  -7.009  0.00  0.00    +0.043 A 
ATOM     11  C   UNL     1      12.788 -11.310  -7.937  0.00  0.00    +0.137 A 
ATOM     12  F   UNL     1      12.981 -10.027  -7.565  0.00  0.00    -0.205 F 
ATOM     17  C   UNL     1      12.314 -11.660  -9.227  0.00  0.00    +0.085 A 
ATOM     18  C   UNL     1      12.119 -10.682 -10.326  0.00  0.00    +0.284 C 
ATOM     19  O   UNL     1      12.325  -9.479 -10.153  0.00  0.00    -0.265 OA
BRANCH   9  13
ATOM     13  C   UNL     1      13.171 -14.733  -6.283  0.00  0.00    -0.013 C 
ATOM     14  C   UNL     1      13.343 -14.136  -4.887  0.00  0.00    +0.015 C 
ATOM     15  C   UNL     1      12.016 -15.741  -6.238  0.00  0.00    +0.015 C 
ATOM     16  C   UNL     1      14.481 -15.456  -6.618  0.00  0.00    +0.015 C 
ENDBRANCH   9  13
ENDBRANCH   3   4
BRANCH   1  25
ATOM     25  C   UNL     1      13.854  -8.381 -15.214  0.00  0.00    +0.094 C 
ATOM     26  C   UNL     1      13.710  -8.132 -16.607  0.00  0.00    +0.059 C 
ATOM     27  C   UNL     1      14.756  -7.627 -17.348  0.00  0.00    +0.101 C 
ATOM     43  C   UNL     1      16.001  -7.362 -16.680  0.00  0.00    +0.288 C 
ATOM     44  O   UNL     1      16.950  -6.923 -17.325  0.00  0.00    -0.264 OA
ATOM     45  N   UNL     1      16.111  -7.606 -15.334  0.00  0.00    -0.231 N 
ATOM     46  C   UNL     1      17.360  -7.396 -14.584  0.00  0.00    +0.176 C 
ATOM     47  N   UNL     1      15.011  -8.111 -14.637  0.00  0.00    -0.168 NA
BRANCH  27  28
ATOM     28  N   UNL     1      14.673  -7.379 -18.737  0.00  0.00    -0.295 N 
ATOM     29  H   UNL     1      15.547  -6.923 -19.153  0.00  0.00    +0.154 HD
BRANCH  28  30
ATOM     30  C   UNL     1      13.650  -7.623 -19.673  0.00  0.00    +0.123 A 
ATOM     31  N   UNL     1      13.883  -7.182 -20.914  0.00  0.00    -0.240 NA
ATOM     32  C   UNL     1      13.019  -7.335 -21.905  0.00  0.00    +0.116 A 
ATOM     33  C   UNL     1      11.799  -7.972 -21.683  0.00  0.00    -0.026 A 
ATOM     41  C   UNL     1      11.504  -8.452 -20.396  0.00  0.00    +0.009 A 
ATOM     42  C   UNL     1      12.439  -8.273 -19.382  0.00  0.00    +0.044 A 
BRANCH  33  34
ATOM     34  C   UNL     1      10.789  -8.148 -22.795  0.00  0.00    +0.023 C 
ATOM     35  C   UNL     1      11.182  -9.286 -23.761  0.00  0.00    +0.023 C 
ATOM     36  C   UNL     1      10.073  -9.462 -24.817  0.00  0.00    +0.085 C 
ATOM     37  N   UNL     1       9.812  -8.183 -25.521  0.00  0.00    -0.305 NA
ATOM     38  C   UNL     1       8.822  -8.363 -26.593  0.00  0.00    +0.105 C 
ATOM     39  C   UNL     1       9.431  -7.054 -24.637  0.00  0.00    +0.085 C 
ATOM     40  C   UNL     1      10.488  -6.825 -23.538  0.00  0.00    +0.023 C 
ENDBRANCH  33  34
ENDBRANCH  28  30
ENDBRANCH  27  28
ENDBRANCH   1  25
BRANCH   2  22
ATOM     22  C   UNL     1      14.281 -10.343 -12.896  0.00  0.00    +0.195 C 
BRANCH  22  23
ATOM     23  O   UNL     1      15.053  -9.378 -12.161  0.00  0.00    -0.390 OA
ATOM     24  H   UNL     1      15.201  -8.523 -12.753  0.00  0.00    +0.210 HD
ENDBRANCH  22  23
ENDBRANCH   2  22
TORSDOF 8
