REMARK  Name = 3uod_ligand
REMARK  5 active torsions:
REMARK  status: ('A' for Active; 'I' for Inactive)
REMARK    1  A    between atoms: N03_3  and  C07_7
REMARK    2  A    between atoms: N03_3  and  C09_9
REMARK    3  A    between atoms: N04_4  and  C16_16
REMARK    4  A    between atoms: C14_14  and  C15_15
REMARK    5  A    between atoms: C19_19  and  C22_22
REMARK                            x       y       z     vdW  Elec       q    Type
REMARK                         _______ _______ _______ _____ _____    ______ ____
ROOT
ATOM      1  N   UNL     1       3.985  31.804   9.184  0.00  0.00    -0.266 NA
ATOM      2  C   UNL     1       4.078  31.939   7.848  0.00  0.00    +0.199 A 
ATOM      3  N   UNL     1       3.493  33.110   7.258  0.00  0.00    -0.242 N 
ATOM      4  H   UNL     1       3.341  33.915   7.882  0.00  0.00    +0.219 HD
ATOM     14  N   UNL     1       4.706  31.023   7.096  0.00  0.00    -0.230 NA
ATOM     15  C   UNL     1       5.239  29.935   7.690  0.00  0.00    +0.146 A 
ATOM     16  C   UNL     1       5.157  29.754   9.068  0.00  0.00    +0.063 A 
ATOM     29  C   UNL     1       4.511  30.734   9.824  0.00  0.00    +0.090 A 
ENDROOT
BRANCH   3   5
ATOM      5  C   UNL     1       3.097  33.274   5.884  0.00  0.00    +0.068 A 
ATOM      6  C   UNL     1       2.045  34.133   5.599  0.00  0.00    +0.020 A 
ATOM      7  C   UNL     1       1.650  34.335   4.286  0.00  0.00    +0.005 A 
ATOM      8  C   UNL     1       2.317  33.679   3.252  0.00  0.00    -0.002 A 
ATOM     12  C   UNL     1       3.372  32.822   3.520  0.00  0.00    +0.005 A 
ATOM     13  C   UNL     1       3.762  32.638   4.845  0.00  0.00    +0.020 A 
BRANCH   8   9
ATOM      9  C   UNL     1       1.871  33.876   1.845  0.00  0.00    +0.055 C 
ATOM     10  O   UNL     1       2.697  33.749   0.907  0.00  0.00    -0.564 OA
ATOM     11  O   UNL     1       0.650  34.143   1.615  0.00  0.00    -0.564 OA
ENDBRANCH   8   9
ENDBRANCH   3   5
BRANCH  15  17
ATOM     17  N   UNL     1       5.902  28.950   6.908  0.00  0.00    -0.234 N 
ATOM     18  H   UNL     1       6.113  28.029   7.318  0.00  0.00    +0.232 HD
BRANCH  17  19
ATOM     19  C   UNL     1       6.277  29.226   5.562  0.00  0.00    +0.103 A 
ATOM     20  C   UNL     1       7.614  29.487   5.231  0.00  0.00    +0.068 A 
ATOM     25  C   UNL     1       7.922  29.739   3.897  0.00  0.00    +0.038 A 
ATOM     26  C   UNL     1       6.922  29.726   2.922  0.00  0.00    +0.018 A 
ATOM     27  C   UNL     1       5.601  29.461   3.258  0.00  0.00    +0.038 A 
ATOM     28  C   UNL     1       5.280  29.212   4.585  0.00  0.00    +0.057 A 
BRANCH  20  21
ATOM     21  C   UNL     1       8.730  29.506   6.252  0.00  0.00    +0.363 C 
ATOM     22  F   UNL     1       9.577  28.496   6.001  0.00  0.00    -0.235 F 
ATOM     23  F   UNL     1       9.386  30.663   6.162  0.00  0.00    -0.235 F 
ATOM     24  F   UNL     1       8.280  29.367   7.507  0.00  0.00    -0.235 F 
ENDBRANCH  20  21
ENDBRANCH  17  19
ENDBRANCH  15  17
TORSDOF 5
