REMARK  Name = 4i0r_ligand
REMARK  11 active torsions:
REMARK  status: ('A' for Active; 'I' for Inactive)
REMARK    1  A    between atoms: C1_1  and  C4_4
REMARK    2  A    between atoms: C8_8  and  C22_22
REMARK    3  A    between atoms: C12_12  and  O16_16
REMARK    4  A    between atoms: C13_13  and  O18_18
REMARK    5  A    between atoms: C14_14  and  O20_20
REMARK    6  A    between atoms: O16_16  and  C17_17
REMARK    7  A    between atoms: O18_18  and  C19_19
REMARK    8  A    between atoms: O20_20  and  C21_21
REMARK    9  A    between atoms: N23_23  and  C25_25
REMARK   10  A    between atoms: C25_25  and  C26_26
REMARK   11  A    between atoms: C25_25  and  C27_27
REMARK                            x       y       z     vdW  Elec       q    Type
REMARK                         _______ _______ _______ _____ _____    ______ ____
ROOT
ATOM     13  C   UNL     1       1.767  -0.302  14.967  0.00  0.00    +0.050 A 
ATOM     14  N   UNL     1       2.564   0.628  14.444  0.00  0.00    -0.293 NA
ATOM     15  C   UNL     1       3.863   0.660  14.731  0.00  0.00    +0.084 A 
ATOM     16  C   UNL     1       4.979   1.534  14.321  0.00  0.00    +0.075 A 
ATOM     24  C   UNL     1       6.092   1.071  14.971  0.00  0.00    +0.176 A 
ATOM     25  N   UNL     1       5.758  -0.015  15.720  0.00  0.00    -0.247 N 
ATOM     26  H   UNL     1       6.421  -0.555  16.294  0.00  0.00    +0.239 HD
ATOM     27  C   UNL     1       4.413  -0.295  15.607  0.00  0.00    +0.169 A 
ATOM     28  N   UNL     1       3.616  -1.223  16.134  0.00  0.00    -0.260 NA
ATOM     29  C   UNL     1       2.322  -1.246  15.849  0.00  0.00    +0.113 A 
ENDROOT
BRANCH  13   1
ATOM      1  C   UNL     1       0.309  -0.301  14.646  0.00  0.00    -0.028 A 
ATOM      2  C   UNL     1      -0.230   0.667  13.783  0.00  0.00    +0.004 A 
ATOM      3  C   UNL     1      -1.599   0.689  13.497  0.00  0.00    +0.115 A 
ATOM      6  C   UNL     1      -2.441  -0.276  14.076  0.00  0.00    +0.151 A 
ATOM      9  C   UNL     1      -1.911  -1.242  14.951  0.00  0.00    +0.115 A 
ATOM     12  C   UNL     1      -0.548  -1.246  15.228  0.00  0.00    +0.004 A 
BRANCH   3   4
ATOM      4  O   UNL     1      -2.165   1.610  12.647  0.00  0.00    -0.327 OA
ATOM      5  C   UNL     1      -1.211   2.553  12.135  0.00  0.00    +0.228 C 
ENDBRANCH   3   4
BRANCH   6   7
ATOM      7  O   UNL     1      -3.786  -0.232  13.807  0.00  0.00    -0.327 OA
ATOM      8  C   UNL     1      -4.184  -1.235  12.869  0.00  0.00    +0.226 C 
ENDBRANCH   6   7
BRANCH   9  10
ATOM     10  O   UNL     1      -2.765  -2.150  15.521  0.00  0.00    -0.327 OA
ATOM     11  C   UNL     1      -2.068  -3.145  16.290  0.00  0.00    +0.228 C 
ENDBRANCH   9  10
ENDBRANCH  13   1
BRANCH  16  17
ATOM     17  C   UNL     1       4.868   2.714  13.447  0.00  0.00    +0.183 C 
ATOM     18  O   UNL     1       5.847   3.228  12.932  0.00  0.00    -0.402 OA
ATOM     19  N   UNL     1       3.628   3.226  13.290  0.00  0.00    -0.289 N 
ATOM     20  H   UNL     1       2.872   2.753  13.742  0.00  0.00    +0.184 HD
BRANCH  19  21
ATOM     21  C   UNL     1       3.309   4.421  12.508  0.00  0.00    +0.090 C 
ATOM     22  C   UNL     1       3.024   5.530  13.540  0.00  0.00    +0.033 C 
ATOM     23  C   UNL     1       2.045   4.183  11.679  0.00  0.00    +0.033 C 
ENDBRANCH  19  21
ENDBRANCH  16  17
TORSDOF 6
