REMARK  Name = 3jy0_ligand
REMARK  3 active torsions:
REMARK  status: ('A' for Active; 'I' for Inactive)
REMARK    1  A    between atoms: C1_1  and  O1_3
REMARK    2  A    between atoms: N1_2  and  C4_11
REMARK    3  A    between atoms: C4_11  and  C5_12
REMARK                            x       y       z     vdW  Elec       q    Type
REMARK                         _______ _______ _______ _____ _____    ______ ____
ROOT
ATOM      6  C   UNL     1     -38.901  -2.668   0.924  0.00  0.00    +0.187 A 
ATOM      7  N   UNL     1     -38.225  -3.117  -0.174  0.00  0.00    -0.194 N 
ATOM      8  H   UNL     1     -37.256  -3.351  -0.091  0.00  0.00    +0.254 HD
ATOM      9  C   UNL     1     -38.843  -3.253  -1.382  0.00  0.00    +0.230 A 
ATOM     10  C   UNL     1     -40.213  -2.895  -1.307  0.00  0.00    +0.105 A 
ATOM     11  C   UNL     1     -40.856  -2.483  -0.179  0.00  0.00    +0.021 A 
ATOM     12  C   UNL     1     -42.242  -2.191  -0.370  0.00  0.00    -0.002 A 
ATOM     13  C   UNL     1     -42.666  -2.416  -1.679  0.00  0.00    +0.039 A 
ATOM     14  C   UNL     1     -43.908  -2.252  -2.209  0.00  0.00    +0.011 A 
ATOM     15  C   UNL     1     -44.833  -1.833  -1.286  0.00  0.00    +0.007 A 
ATOM     16  C   UNL     1     -44.439  -1.593   0.004  0.00  0.00    +0.034 A 
ATOM     17 CL   UNL     1     -45.676  -1.086   1.096  0.00  0.00    -0.077 Cl
ATOM     18  C   UNL     1     -43.168  -1.747   0.527  0.00  0.00    +0.015 A 
ATOM     19  S   UNL     1     -41.338  -2.926  -2.607  0.00  0.00    -0.039 S 
ATOM     20  O   UNL     1     -38.256  -3.608  -2.387  0.00  0.00    -0.404 OA
ATOM     21  N   UNL     1     -40.157  -2.354   1.021  0.00  0.00    -0.308 NA
ENDROOT
BRANCH   6   5
ATOM      5  C   UNL     1     -38.007  -2.505   2.084  0.00  0.00    +0.280 C 
BRANCH   5   3
ATOM      1  C   UNL     1     -37.613  -5.447   4.208  0.00  0.00    +0.165 C 
ATOM      2  C   UNL     1     -38.190  -4.965   2.872  0.00  0.00    +0.165 C 
ATOM      3  N   UNL     1     -37.647  -3.583   2.995  0.00  0.00    +0.258 N 
ATOM      4  H   UNL     1     -38.190  -3.273   3.785  0.00  0.00    +0.206 HD
ATOM     22  C   UNL     1     -36.268  -3.587   3.620  0.00  0.00    +0.136 C 
ATOM     23  C   UNL     1     -36.833  -4.293   4.873  0.00  0.00    +0.087 C 
BRANCH   1  24
ATOM     24  O   UNL     1     -36.563  -6.288   3.783  0.00  0.00    -0.386 OA
ATOM     25  H   UNL     1     -36.926  -7.051   3.349  0.00  0.00    +0.210 HD
ENDBRANCH   1  24
ENDBRANCH   5   3
ENDBRANCH   6   5
TORSDOF 3
