REMARK  Name = 5NV
REMARK  6 active torsions:
REMARK  status: ('A' for Active; 'I' for Inactive)
REMARK    1  A    between atoms: C8_4  and  CAV_22
REMARK    2  A    between atoms: N3_6  and  CAH_14
REMARK    3  A    between atoms: CAI_13  and  CAH_14
REMARK    4  A    between atoms: N7_18  and  CAT_19
REMARK    5  A    between atoms: CAV_22  and  SAW_23
REMARK    6  A    between atoms: SAW_23  and  CAX_24
REMARK                            x       y       z     vdW  Elec       q    Type
REMARK                         _______ _______ _______ _____ _____    ______ ____
ROOT
ATOM      1  C   UNL     1      25.290  50.797  -1.116  0.00  0.00    +0.170 C 
ATOM      2  C   UNL     1      24.479  49.984  -0.335  0.00  0.00    +0.154 C 
ATOM      3  N   UNL     1      25.227  49.647   0.749  0.00  0.00    -0.309 NA
ATOM      6  C   UNL     1      26.409  50.335   0.673  0.00  0.00    +0.134 C 
ATOM     15  C   UNL     1      23.233  49.606  -0.782  0.00  0.00    +0.302 C 
ATOM     16  O   UNL     1      22.384  48.811  -0.282  0.00  0.00    -0.263 OA
ATOM     17  N   UNL     1      22.859  50.181  -2.034  0.00  0.00    -0.152 NA
ATOM     18  C   UNL     1      23.612  50.998  -2.783  0.00  0.00    +0.354 C 
ATOM     19  O   UNL     1      23.234  51.403  -3.883  0.00  0.00    -0.244 OA
ATOM     20  N   UNL     1      26.447  51.044  -0.478  0.00  0.00    -0.213 NA
ATOM     21  N   UNL     1      24.861  51.316  -2.289  0.00  0.00    -0.259 N 
ENDROOT
BRANCH   3   4
ATOM      4  C   UNL     1      24.887  48.765   1.831  0.00  0.00    +0.108 C 
ATOM      5  C   UNL     1      25.031  47.409   1.327  0.00  0.00    +0.026 C 
ENDBRANCH   3   4
BRANCH   6   7
ATOM      7  C   UNL     1      27.465  50.268   1.890  0.00  0.00    +0.130 C 
BRANCH   7   8
ATOM      8  S   UNL     1      26.987  51.578   2.954  0.00  0.00    -0.056 S 
BRANCH   8   9
ATOM      9  C   UNL     1      28.530  51.961   3.526  0.00  0.00    +0.250 C 
ATOM     10  N   UNL     1      28.620  52.460   4.684  0.00  0.00    -0.344 NA
ATOM     11  C   UNL     1      29.951  52.847   4.790  0.00  0.00    +0.316 C 
ATOM     12  N   UNL     1      30.595  53.485   5.831  0.00  0.00    -0.075 NA
ATOM     13  N   UNL     1      30.652  52.329   3.800  0.00  0.00    -0.076 NA
ATOM     14  N   UNL     1      29.744  51.761   2.977  0.00  0.00    -0.086 NA
ENDBRANCH   8   9
ENDBRANCH   7   8
ENDBRANCH   6   7
BRANCH  21  22
ATOM     22  C   UNL     1      25.797  52.165  -3.098  0.00  0.00    +0.139 C 
BRANCH  22  23
ATOM     23  C   UNL     1      26.781  51.185  -3.704  0.00  0.00    +0.001 A 
ATOM     24  C   UNL     1      27.954  50.837  -3.044  0.00  0.00    -0.002 A 
ATOM     25  C   UNL     1      28.835  49.931  -3.665  0.00  0.00    +0.011 A 
ATOM     26  C   UNL     1      28.597  49.309  -4.892  0.00  0.00    +0.058 A 
ATOM     27  C   UNL     1      27.426  49.609  -5.520  0.00  0.00    +0.011 A 
ATOM     28 CL   UNL     1      29.659  48.298  -5.635  0.00  0.00    -0.082 Cl
ATOM     29  C   UNL     1      26.518  50.494  -4.915  0.00  0.00    -0.002 A 
ENDBRANCH  22  23
ENDBRANCH  21  22
TORSDOF 6
