REMARK  Name = P9M
REMARK  4 active torsions:
REMARK  status: ('A' for Active; 'I' for Inactive)
REMARK    1  A    between atoms: S_2  and  N2_4
REMARK    2  A    between atoms: S_2  and  C11_10
REMARK    3  A    between atoms: N2_4  and  C13_5
REMARK    4  A    between atoms: C6_16  and  C5_17
REMARK                            x       y       z     vdW  Elec       q    Type
REMARK                         _______ _______ _______ _____ _____    ______ ____
ROOT
ATOM      3  C   UNL     1      18.895  11.769 -11.755  0.00  0.00    +0.120 A 
ATOM      4  C   UNL     1      19.717  10.969 -10.976  0.00  0.00    +0.020 A 
ATOM      5  C   UNL     1      19.205  10.112 -10.012  0.00  0.00    +0.005 A 
ATOM     13  C   UNL     1      17.824  10.072  -9.824  0.00  0.00    -0.000 A 
ATOM     14  C   UNL     1      16.997  10.886 -10.604  0.00  0.00    -0.003 A 
ATOM     15  C   UNL     1      17.502  11.752 -11.585  0.00  0.00    -0.003 A 
ATOM     16  C   UNL     1      16.530  12.595 -12.389  0.00  0.00    +0.032 C 
ENDROOT
BRANCH   5   6
ATOM      6  C   UNL     1      20.128   9.271  -9.200  0.00  0.00    +0.050 A 
ATOM      7  C   UNL     1      20.048   8.930  -7.834  0.00  0.00    +0.101 A 
ATOM      8  C   UNL     1      19.007   9.285  -6.815  0.00  0.00    +0.056 C 
ATOM      9  N   UNL     1      21.061   8.184  -7.476  0.00  0.00    -0.082 NA
ATOM     10  O   UNL     1      21.862   8.019  -8.639  0.00  0.00    -0.358 OA
ATOM     11  C   UNL     1      21.264   8.681  -9.649  0.00  0.00    +0.154 A 
ATOM     12  C   UNL     1      21.978   8.620 -10.972  0.00  0.00    +0.075 C 
ENDBRANCH   5   6
BRANCH   3   2
ATOM      1  O   UNL     1      21.102  12.674 -12.770  0.00  0.00    -0.152 OA
ATOM      2  S   UNL     1      19.690  12.806 -12.966  0.00  0.00    +0.076 S 
ATOM     23  O   UNL     1      19.118  12.478 -14.245  0.00  0.00    -0.152 OA
BRANCH   2  17
ATOM     17  N   UNL     1      19.326  14.329 -12.678  0.00  0.00    -0.079 NA
BRANCH  17  18
ATOM     18  C   UNL     1      19.706  14.862 -11.362  0.00  0.00    +0.098 C 
ATOM     19  C   UNL     1      18.453  15.274 -10.600  0.00  0.00    +0.019 C 
ATOM     20  C   UNL     1      18.904  16.430  -9.727  0.00  0.00    +0.002 C 
ATOM     21  C   UNL     1      20.263  16.879 -10.228  0.00  0.00    +0.002 C 
ATOM     22  C   UNL     1      20.426  16.185 -11.554  0.00  0.00    +0.019 C 
ENDBRANCH  17  18
ENDBRANCH   2  17
ENDBRANCH   3   2
TORSDOF 4
