REMARK  Name = 4JT5
REMARK  5 active torsions:
REMARK  status: ('A' for Active; 'I' for Inactive)
REMARK    1  A    between atoms: O_1  and  C_2
REMARK    2  A    between atoms: C_9  and  C_11
REMARK    3  A    between atoms: N_14  and  C_15
REMARK    4  A    between atoms: C_15  and  C_16
REMARK    5  A    between atoms: C_15  and  C_17
REMARK                            x       y       z     vdW  Elec       q    Type
REMARK                         _______ _______ _______ _____ _____    ______ ____
ROOT
ATOM      9  C   UNL     1      51.168  -0.412 -49.134  0.00  0.00    +0.124 A 
ATOM     10  N   UNL     1      50.294  -1.263 -48.553  0.00  0.00    -0.167 NA
ATOM     11  N   UNL     1      49.225  -1.514 -49.427  0.00  0.00    -0.243 N 
ATOM     15  C   UNL     1      49.446  -0.782 -50.620  0.00  0.00    +0.164 A 
ATOM     16  N   UNL     1      48.731  -0.668 -51.774  0.00  0.00    -0.216 NA
ATOM     17  C   UNL     1      49.165   0.108 -52.781  0.00  0.00    +0.225 A 
ATOM     18  N   UNL     1      50.313   0.797 -52.687  0.00  0.00    -0.220 NA
ATOM     19  C   UNL     1      51.069   0.727 -51.569  0.00  0.00    +0.131 A 
ATOM     20  N   UNL     1      52.214   1.448 -51.547  0.00  0.00    -0.343 N 
ATOM     21  H   UNL     1      52.488   2.043 -52.393  0.00  0.00    +0.144 HD
ATOM     22  H   UNL     1      52.845   1.423 -50.683  0.00  0.00    +0.144 HD
ATOM     23  C   UNL     1      50.646  -0.076 -50.495  0.00  0.00    +0.087 A 
ENDROOT
BRANCH   9   8
ATOM      3  C   UNL     1      56.554   1.421 -47.194  0.00  0.00    +0.118 A 
ATOM      4  C   UNL     1      55.962   1.310 -45.911  0.00  0.00    +0.047 A 
ATOM      5  C   UNL     1      54.628   0.898 -45.706  0.00  0.00    +0.032 A 
ATOM      6  C   UNL     1      53.868   0.589 -46.827  0.00  0.00    +0.072 A 
ATOM      7  N   UNL     1      52.603   0.172 -47.077  0.00  0.00    -0.245 NA
ATOM      8  C   UNL     1      52.408   0.030 -48.438  0.00  0.00    +0.093 A 
ATOM     24  C   UNL     1      53.553   0.348 -49.167  0.00  0.00    +0.040 A 
ATOM     25  C   UNL     1      54.488   0.705 -48.166  0.00  0.00    +0.006 A 
ATOM     26  C   UNL     1      55.815   1.116 -48.338  0.00  0.00    +0.055 A 
BRANCH   3   1
ATOM      1  O   UNL     1      57.851   1.824 -47.340  0.00  0.00    -0.507 OA
ATOM      2  H   UNL     1      58.401   1.068 -47.819  0.00  0.00    +0.292 HD
ENDBRANCH   3   1
ENDBRANCH   9   8
BRANCH  11  12
ATOM     12  C   UNL     1      48.108  -2.406 -49.071  0.00  0.00    +0.103 C 
ATOM     13  C   UNL     1      47.104  -1.630 -48.231  0.00  0.00    +0.032 C 
ATOM     14  C   UNL     1      47.483  -3.088 -50.300  0.00  0.00    +0.032 C 
ENDBRANCH  11  12
TORSDOF 3
