REMARK  Name = 4R1V
REMARK  9 active torsions:
REMARK  status: ('A' for Active; 'I' for Inactive)
REMARK    1  A    between atoms: C_1  and  C_7
REMARK    2  A    between atoms: C_4  and  C_24
REMARK    3  A    between atoms: C_13  and  C_32
REMARK    4  A    between atoms: O_18  and  C_33
REMARK    5  A    between atoms: O_18  and  C_35
REMARK    6  A    between atoms: C_23  and  N_37
REMARK    7  A    between atoms: N_27  and  C_30
REMARK    8  A    between atoms: C_30  and  C_31
REMARK    9  A    between atoms: C_35  and  C_36
REMARK                            x       y       z     vdW  Elec       q    Type
REMARK                         _______ _______ _______ _____ _____    ______ ____
ROOT
ATOM      6  C   UNL     1     105.933  22.209 140.161  0.00  0.00    -0.025 A 
ATOM      7  C   UNL     1     107.235  22.169 139.672  0.00  0.00    +0.017 A 
ATOM      8  C   UNL     1     108.087  23.252 139.822  0.00  0.00    +0.019 A 
ATOM     24  C   UNL     1     107.652  24.381 140.504  0.00  0.00    +0.012 A 
ATOM     25  C   UNL     1     106.367  24.433 140.977  0.00  0.00    +0.001 A 
ATOM     26  C   UNL     1     105.514  23.350 140.817  0.00  0.00    +0.005 A 
ENDROOT
BRANCH   8   9
ATOM      9  C   UNL     1     109.477  23.122 139.402  0.00  0.00    +0.160 A 
ATOM     10  N   UNL     1     110.335  24.165 139.623  0.00  0.00    -0.232 NA
ATOM     11  C   UNL     1     111.669  24.007 139.339  0.00  0.00    +0.160 A 
ATOM     12  C   UNL     1     112.127  22.782 138.874  0.00  0.00    +0.157 A 
ATOM     22  C   UNL     1     111.255  21.746 138.670  0.00  0.00    +0.160 A 
ATOM     23  N   UNL     1     109.918  21.899 138.924  0.00  0.00    -0.232 NA
BRANCH  12  13
ATOM     13  O   UNL     1     113.440  22.552 138.576  0.00  0.00    -0.489 OA
BRANCH  13  14
ATOM     14  C   UNL     1     114.461  23.378 139.107  0.00  0.00    +0.232 C 
BRANCH  14  15
ATOM     15  C   UNL     1     115.771  22.632 139.375  0.00  0.00    +0.029 C 
ATOM     16  C   UNL     1     115.716  21.827 140.681  0.00  0.00    +0.022 C 
ATOM     17  C   UNL     1     117.123  21.257 140.976  0.00  0.00    +0.084 C 
ATOM     18  N   UNL     1     117.562  20.432 139.826  0.00  0.00    -0.305 NA
ATOM     19  C   UNL     1     118.918  19.885 140.045  0.00  0.00    +0.105 C 
ATOM     20  C   UNL     1     117.506  21.126 138.515  0.00  0.00    +0.084 C 
ATOM     21  C   UNL     1     116.095  21.685 138.232  0.00  0.00    +0.022 C 
ENDBRANCH  14  15
ENDBRANCH  13  14
ENDBRANCH  12  13
ENDBRANCH   8   9
BRANCH   6   5
ATOM      5  C   UNL     1     105.001  21.017 140.013  0.00  0.00    +0.182 C 
BRANCH   5   4
ATOM      2  C   UNL     1     106.816  18.427 141.724  0.00  0.00    +0.092 C 
ATOM      3  N   UNL     1     106.405  19.287 140.836  0.00  0.00    -0.168 NA
ATOM      4  N   UNL     1     105.270  20.057 141.088  0.00  0.00    -0.225 N 
ATOM     27  C   UNL     1     104.545  19.999 142.254  0.00  0.00    +0.268 C 
ATOM     28  C   UNL     1     104.985  19.020 143.243  0.00  0.00    +0.074 C 
ATOM     29  O   UNL     1     103.570  20.711 142.405  0.00  0.00    -0.266 OA
ATOM     30  C   UNL     1     106.069  18.268 142.992  0.00  0.00    +0.035 C 
BRANCH   2   1
ATOM      1  C   UNL     1     108.006  17.626 141.386  0.00  0.00    +0.003 A 
ATOM     31  C   UNL     1     108.886  18.099 140.411  0.00  0.00    +0.010 A 
ATOM     32  C   UNL     1     110.001  17.344 140.065  0.00  0.00    +0.002 A 
ATOM     33  C   UNL     1     110.238  16.103 140.654  0.00  0.00    +0.019 A 
ATOM     34  C   UNL     1     109.353  15.640 141.614  0.00  0.00    +0.052 A 
ATOM     37  C   UNL     1     108.236  16.392 141.982  0.00  0.00    +0.029 A 
BRANCH  34  35
ATOM     35  C   UNL     1     109.553  14.366 142.219  0.00  0.00    +0.099 C 
ATOM     36  N   UNL     1     109.644  13.303 142.672  0.00  0.00    -0.191 NA
ENDBRANCH  34  35
ENDBRANCH   2   1
ENDBRANCH   5   4
ENDBRANCH   6   5
TORSDOF 8
