REMARK  Name = 4FKJ
REMARK  8 active torsions:
REMARK  status: ('A' for Active; 'I' for Inactive)
REMARK    1  A    between atoms: N_3  and  C_24
REMARK    2  A    between atoms: N_4  and  C_18
REMARK    3  A    between atoms: C_13  and  C_18
REMARK    4  A    between atoms: C_13  and  O_20
REMARK    5  A    between atoms: C_19  and  C_21
REMARK    6  A    between atoms: C_19  and  C_22
REMARK    7  A    between atoms: O_20  and  C_23
REMARK    8  A    between atoms: C_25  and  C_26
REMARK                            x       y       z     vdW  Elec       q    Type
REMARK                         _______ _______ _______ _____ _____    ______ ____
ROOT
ATOM     11  C   UNL     1       4.639  -7.841 -28.720  0.00  0.00    +0.131 C 
ENDROOT
BRANCH  11  12
ATOM     12  C   UNL     1       4.600  -8.919 -29.789  0.00  0.00    -0.038 A 
ATOM     13  C   UNL     1       4.418 -10.242 -29.401  0.00  0.00    +0.007 A 
ATOM     14  C   UNL     1       4.403 -11.237 -30.379  0.00  0.00    +0.046 A 
ATOM     15  C   UNL     1       4.580 -10.919 -31.728  0.00  0.00    +0.121 A 
ATOM     24  C   UNL     1       4.766  -9.592 -32.112  0.00  0.00    +0.046 A 
ATOM     25  C   UNL     1       4.800  -8.604 -31.132  0.00  0.00    +0.007 A 
BRANCH  15  16
ATOM     16  O   UNL     1       4.569 -11.899 -32.679  0.00  0.00    -0.491 OA
BRANCH  16  17
ATOM     17  C   UNL     1       3.688 -12.986 -32.237  0.00  0.00    +0.244 C 
BRANCH  17  18
ATOM     18  C   UNL     1       3.931 -14.390 -32.824  0.00  0.00    +0.125 C 
BRANCH  18  19
ATOM     19  N   UNL     1       4.746 -14.333 -34.055  0.00  0.00    -0.299 NA
ATOM     20  C   UNL     1       6.150 -14.567 -33.681  0.00  0.00    +0.084 C 
ATOM     21  C   UNL     1       6.805 -15.146 -34.941  0.00  0.00    +0.017 C 
ATOM     22  C   UNL     1       5.636 -15.679 -35.781  0.00  0.00    +0.017 C 
ATOM     23  C   UNL     1       4.405 -15.492 -34.892  0.00  0.00    +0.084 C 
ENDBRANCH  18  19
ENDBRANCH  17  18
ENDBRANCH  16  17
ENDBRANCH  15  16
ENDBRANCH  11  12
BRANCH  11  10
ATOM      8  N   UNL     1       2.937  -6.120 -29.017  0.00  0.00    -0.271 N 
ATOM      9  H   UNL     1       3.663  -5.711 -29.688  0.00  0.00    +0.156 HD
ATOM     10  C   UNL     1       3.232  -7.303 -28.436  0.00  0.00    +0.223 C 
ATOM     26  O   UNL     1       2.489  -7.931 -27.681  0.00  0.00    -0.275 OA
BRANCH   8   7
ATOM      1  N   UNL     1       0.659  -3.617 -28.813  0.00  0.00    -0.177 NA
ATOM      2  C   UNL     1      -0.017  -4.547 -28.118  0.00  0.00    +0.068 A 
ATOM      6  C   UNL     1       0.714  -5.679 -28.056  0.00  0.00    +0.068 A 
ATOM      7  C   UNL     1       1.799  -5.404 -28.824  0.00  0.00    +0.121 A 
ATOM     27  N   UNL     1       1.734  -4.129 -29.217  0.00  0.00    -0.264 N 
ATOM     28  H   UNL     1       2.482  -3.621 -29.788  0.00  0.00    +0.190 HD
BRANCH   2   3
ATOM      3  C   UNL     1      -1.382  -4.158 -27.512  0.00  0.00    +0.040 C 
ATOM      4  C   UNL     1      -2.450  -5.222 -27.283  0.00  0.00    +0.010 C 
ATOM      5  C   UNL     1      -1.742  -4.602 -26.074  0.00  0.00    +0.010 C 
ENDBRANCH   2   3
ENDBRANCH   8   7
ENDBRANCH  11  10
TORSDOF 8
