REMARK  Name = 6Q4J
REMARK  3 active torsions:
REMARK  status: ('A' for Active; 'I' for Inactive)
REMARK    1  A    between atoms: C7_5  and  N1_10
REMARK    2  A    between atoms: C3_12  and  C2_17
REMARK    3  A    between atoms: C1_15  and  C2_17
REMARK                            x       y       z     vdW  Elec       q    Type
REMARK                         _______ _______ _______ _____ _____    ______ ____
ROOT
ATOM      1  C   UNL     1      -1.348  -8.872 -24.147  0.00  0.00    -0.130 A 
ATOM      2  C   UNL     1      -1.678  -7.886 -23.227  0.00  0.00    +0.000 A 
ATOM      7  C   UNL     1      -1.522  -6.561 -23.599  0.00  0.00    -0.130 A 
ATOM      8  C   UNL     1      -1.095  -6.222 -24.876  0.00  0.00    +0.050 A 
ATOM     16  C   UNL     1      -0.818  -7.227 -25.796  0.00  0.00    -0.130 A 
ATOM     17  C   UNL     1      -0.947  -8.542 -25.424  0.00  0.00    -0.130 A 
ENDROOT
BRANCH   8   9
ATOM      9  N   UNL     1      -1.016  -4.861 -25.205  0.00  0.00    -0.350 NA
ATOM     10  C   UNL     1      -0.240  -4.216 -26.132  0.00  0.00    +0.430 A 
ATOM     11  N   UNL     1       0.606  -4.902 -26.913  0.00  0.00    -0.760 NA
ATOM     12  C   UNL     1       1.377  -4.195 -27.750  0.00  0.00    +0.630 A 
ATOM     13  N   UNL     1       1.356  -2.872 -27.902  0.00  0.00    -0.760 NA
ATOM     14  C   UNL     1       0.483  -2.219 -27.109  0.00  0.00    +0.250 A 
ATOM     15  C   UNL     1      -0.325  -2.829 -26.210  0.00  0.00    -0.130 A 
ENDBRANCH   8   9
BRANCH   2   3
ATOM      3  C   UNL     1      -2.106  -8.244 -21.831  0.00  0.00    -0.100 C 
BRANCH   3   4
ATOM      4  C   UNL     1      -3.587  -8.573 -21.649  0.00  0.00    +0.200 C 
ATOM      5  O   UNL     1      -3.931  -9.064 -20.546  0.00  0.00    -0.600 OA
ATOM      6  O   UNL     1      -4.402  -8.277 -22.564  0.00  0.00    -0.600 OA
ENDBRANCH   3   4
ENDBRANCH   2   3
TORSDOF 3
