REMARK  Name = 3QJZ
REMARK  5 active torsions:
REMARK  status: ('A' for Active; 'I' for Inactive)
REMARK    1  A    between atoms: C_5  and  C_16
REMARK    2  A    between atoms: C_6  and  C_9
REMARK    3  A    between atoms: C_8  and  S_21
REMARK    4  A    between atoms: C_9  and  N_11
REMARK    5  A    between atoms: C_20  and  S_21
REMARK                            x       y       z     vdW  Elec       q    Type
REMARK                         _______ _______ _______ _____ _____    ______ ____
ROOT
ATOM      1  C   UNL     1      18.930  13.937  22.528  0.00  0.00    +0.039 A 
ATOM      2  C   UNL     1      20.183  14.083  21.940  0.00  0.00    +0.027 A 
ATOM      3  C   UNL     1      21.227  13.231  22.311  0.00  0.00    +0.002 A 
ATOM      4  C   UNL     1      21.002  12.242  23.273  0.00  0.00    +0.012 A 
ATOM      5  C   UNL     1      19.745  12.106  23.860  0.00  0.00    +0.027 A 
ATOM     14  S   UNL     1      17.496  14.769  22.330  0.00  0.00    -0.052 S 
ATOM     15  C   UNL     1      16.629  13.877  23.451  0.00  0.00    +0.164 A 
ATOM     16  N   UNL     1      17.423  12.940  23.965  0.00  0.00    -0.335 N 
ATOM     17  H   UNL     1      17.083  12.236  24.696  0.00  0.00    +0.168 HD
ATOM     18  N   UNL     1      15.344  14.016  23.781  0.00  0.00    -0.157 NA
ATOM     22  C   UNL     1      18.689  12.944  23.495  0.00  0.00    +0.055 A 
ENDROOT
BRANCH   3   6
ATOM      6  C   UNL     1      22.483  13.365  21.711  0.00  0.00    +0.075 A 
ATOM      7  N   UNL     1      22.625  14.178  20.648  0.00  0.00    -0.222 NA
ATOM      8  C   UNL     1      23.818  14.332  20.041  0.00  0.00    +0.189 A 
ATOM     11  N   UNL     1      24.899  13.662  20.478  0.00  0.00    -0.230 NA
ATOM     12  C   UNL     1      24.819  12.837  21.512  0.00  0.00    +0.116 A 
ATOM     13  C   UNL     1      23.601  12.658  22.166  0.00  0.00    +0.048 A 
BRANCH   8   9
ATOM      9  S   UNL     1      23.952  15.419  18.667  0.00  0.00    -0.089 S 
ATOM     10  C   UNL     1      22.313  15.989  18.239  0.00  0.00    +0.093 C 
ENDBRANCH   8   9
ENDBRANCH   3   6
BRANCH  18  19
ATOM     19  C   UNL     1      14.493  14.862  23.195  0.00  0.00    +0.235 C 
ATOM     20  O   UNL     1      14.785  15.647  22.293  0.00  0.00    -0.274 OA
ATOM     21  C   UNL     1      13.065  14.805  23.737  0.00  0.00    +0.111 C 
ENDBRANCH  18  19
TORSDOF 3
