REMARK  Name = 5FEE
REMARK  6 active torsions:
REMARK  status: ('A' for Active; 'I' for Inactive)
REMARK    1  A    between atoms: C_1  and  C_2
REMARK    2  A    between atoms: C_6  and  C_7
REMARK    3  A    between atoms: C_9  and  N_22
REMARK    4  A    between atoms: C_14  and  C_31
REMARK    5  A    between atoms: C_15  and  C_16
REMARK    6  A    between atoms: C_31  and  C_32
REMARK                            x       y       z     vdW  Elec       q    Type
REMARK                         _______ _______ _______ _____ _____    ______ ____
ROOT
ATOM      1  C   UNL     1     -53.004   1.504 -21.097  0.00  0.00    +0.250 C 
ATOM      2  O   UNL     1     -53.605   2.415 -20.540  0.00  0.00    -0.270 OA
ATOM      3  N   UNL     1     -52.129   0.828 -20.361  0.00  0.00    -0.252 N 
ATOM      4  H   UNL     1     -51.574   0.067 -20.869  0.00  0.00    +0.158 HD
ATOM      5  C   UNL     1     -51.845   0.994 -18.994  0.00  0.00    +0.203 A 
ATOM      6  N   UNL     1     -52.481   1.777 -18.110  0.00  0.00    -0.214 NA
ATOM      7  C   UNL     1     -51.879   1.583 -16.824  0.00  0.00    +0.091 A 
ATOM      8  C   UNL     1     -50.853   0.635 -16.931  0.00  0.00    +0.073 A 
ATOM      9  C   UNL     1     -50.111   0.282 -15.771  0.00  0.00    -0.025 A 
ATOM     10  C   UNL     1     -50.449   0.897 -14.566  0.00  0.00    +0.005 A 
ATOM     11  C   UNL     1     -51.477   1.839 -14.469  0.00  0.00    +0.002 A 
ATOM     12  C   UNL     1     -48.985  -0.705 -15.761  0.00  0.00    +0.046 C 
ATOM     13  C   UNL     1     -52.190   2.190 -15.586  0.00  0.00    +0.030 A 
ATOM     14  N   UNL     1     -50.849   0.257 -18.355  0.00  0.00    -0.307 N 
ENDROOT
BRANCH  14  15
ATOM     15  C   UNL     1     -49.957  -0.737 -18.972  0.00  0.00    +0.108 C 
ATOM     16  C   UNL     1     -50.784  -1.959 -19.436  0.00  0.00    +0.133 C 
ATOM     17  N   UNL     1     -50.040  -3.194 -19.608  0.00  0.00    -0.299 N 
ATOM     18  C   UNL     1     -49.972  -4.083 -18.555  0.00  0.00    +0.215 C 
ATOM     19  O   UNL     1     -50.557  -3.781 -17.503  0.00  0.00    -0.276 OA
ATOM     22  C   UNL     1     -49.345  -3.511 -20.852  0.00  0.00    +0.107 C 
ATOM     23  C   UNL     1     -48.799  -2.220 -21.553  0.00  0.00    +0.019 C 
ATOM     24  C   UNL     1     -48.152  -1.201 -20.596  0.00  0.00    +0.003 C 
ATOM     25  C   UNL     1     -49.120  -0.169 -20.097  0.00  0.00    +0.027 C 
BRANCH  18  20
ATOM     20  C   UNL     1     -49.222  -5.363 -18.712  0.00  0.00    +0.092 C 
ATOM     21  C   UNL     1     -50.104  -6.609 -18.886  0.00  0.00    +0.013 C 
ENDBRANCH  18  20
ENDBRANCH  14  15
BRANCH   1  26
ATOM     26  C   UNL     1     -53.270   1.202 -22.526  0.00  0.00    +0.038 A 
ATOM     27  C   UNL     1     -52.408   0.362 -23.195  0.00  0.00    +0.025 A 
ATOM     28  C   UNL     1     -52.604   0.040 -24.539  0.00  0.00    +0.056 A 
ATOM     33  C   UNL     1     -53.700   0.529 -25.257  0.00  0.00    +0.012 A 
ATOM     34  C   UNL     1     -54.586   1.344 -24.597  0.00  0.00    +0.001 A 
ATOM     35  C   UNL     1     -54.377   1.664 -23.255  0.00  0.00    +0.013 A 
BRANCH  28  29
ATOM     29  C   UNL     1     -51.633  -0.865 -25.247  0.00  0.00    +0.417 C 
ATOM     30  F   UNL     1     -52.099  -1.559 -26.335  0.00  0.00    -0.166 F 
ATOM     31  F   UNL     1     -51.182  -1.817 -24.426  0.00  0.00    -0.166 F 
ATOM     32  F   UNL     1     -50.539  -0.246 -25.704  0.00  0.00    -0.166 F 
ENDBRANCH  28  29
ENDBRANCH   1  26
TORSDOF 4
