REMARK  Name = 1t46_ligand
REMARK  8 active torsions:
REMARK  status: ('A' for Active; 'I' for Inactive)
REMARK    1  A    between atoms: C5_3  and  C7_7
REMARK    2  A    between atoms: N13_13  and  C14_14
REMARK    3  A    between atoms: C19_15  and  C20_37
REMARK    4  A    between atoms: C16_18  and  N21_20
REMARK    5  A    between atoms: C22_21  and  C23_22
REMARK    6  A    between atoms: C27_25  and  C46_28
REMARK    7  A    between atoms: C46_28  and  N48_29
REMARK    8  A    between atoms: N51_32  and  C54_33
REMARK                            x       y       z     vdW  Elec       q    Type
REMARK                         _______ _______ _______ _____ _____    ______ ____
ROOT
ATOM     11  C   UNL     1      25.347  25.511  43.560  0.00  0.00    +0.055 A 
ATOM     12  C   UNL     1      25.283  25.490  42.165  0.00  0.00    +0.015 A 
ATOM     13  C   UNL     1      24.195  26.054  41.495  0.00  0.00    +0.049 A 
ATOM     34  C   UNL     1      23.149  26.603  42.233  0.00  0.00    -0.019 A 
ATOM     35  C   UNL     1      23.207  26.610  43.628  0.00  0.00    -0.033 A 
ATOM     36  C   UNL     1      24.299  26.065  44.294  0.00  0.00    -0.036 A 
ATOM     37  C   UNL     1      24.325  26.084  45.806  0.00  0.00    +0.062 C 
ENDROOT
BRANCH  11   9
ATOM      6  C   UNL     1      29.657  25.542  45.479  0.00  0.00    +0.062 A 
ATOM      7  N   UNL     1      28.465  24.975  45.216  0.00  0.00    -0.246 NA
ATOM      8  C   UNL     1      27.566  25.594  44.421  0.00  0.00    +0.209 A 
ATOM      9  N   UNL     1      26.404  24.954  44.201  0.00  0.00    -0.248 N 
ATOM     10  H   UNL     1      26.312  23.985  44.539  0.00  0.00    +0.216 HD
ATOM     38  N   UNL     1      27.854  26.789  43.849  0.00  0.00    -0.252 NA
ATOM     39  C   UNL     1      29.034  27.388  44.093  0.00  0.00    +0.104 A 
ATOM     40  C   UNL     1      29.972  26.783  44.926  0.00  0.00    +0.052 A 
BRANCH   6   5
ATOM      1  C   UNL     1      32.696  24.700  47.541  0.00  0.00    +0.042 A 
ATOM      2  C   UNL     1      32.330  23.424  47.955  0.00  0.00    +0.099 A 
ATOM      3  N   UNL     1      31.156  22.877  47.575  0.00  0.00    -0.292 NA
ATOM      4  C   UNL     1      30.289  23.540  46.793  0.00  0.00    +0.111 A 
ATOM      5  C   UNL     1      30.607  24.822  46.355  0.00  0.00    +0.032 A 
ATOM     41  C   UNL     1      31.818  25.409  46.719  0.00  0.00    +0.048 A 
ENDBRANCH   6   5
ENDBRANCH  11   9
BRANCH  13  14
ATOM     14  N   UNL     1      24.061  26.050  40.097  0.00  0.00    -0.240 N 
ATOM     15  H   UNL     1      23.203  26.396  39.717  0.00  0.00    +0.223 HD
ATOM     16  C   UNL     1      24.982  25.624  39.238  0.00  0.00    +0.226 C 
ATOM     17  O   UNL     1      26.067  25.215  39.591  0.00  0.00    -0.377 OA
BRANCH  16  18
ATOM     18  C   UNL     1      24.652  25.631  37.779  0.00  0.00    +0.049 A 
ATOM     19  C   UNL     1      23.553  26.349  37.318  0.00  0.00    +0.017 A 
ATOM     20  C   UNL     1      23.242  26.357  35.961  0.00  0.00    +0.008 A 
ATOM     21  C   UNL     1      24.040  25.629  35.081  0.00  0.00    +0.006 A 
ATOM     32  C   UNL     1      25.135  24.897  35.539  0.00  0.00    +0.008 A 
ATOM     33  C   UNL     1      25.443  24.895  36.896  0.00  0.00    +0.017 A 
BRANCH  21  22
ATOM     22  C   UNL     1      23.708  25.615  33.610  0.00  0.00    +0.203 C 
BRANCH  22  23
ATOM     23  N   UNL     1      23.612  26.946  33.027  0.00  0.00    +0.255 N 
ATOM     24  H   UNL     1      22.927  27.407  33.605  0.00  0.00    +0.205 HD
ATOM     25  C   UNL     1      22.966  26.900  31.718  0.00  0.00    +0.185 C 
ATOM     26  C   UNL     1      22.696  28.302  31.191  0.00  0.00    +0.183 C 
ATOM     27  N   UNL     1      23.858  29.153  31.422  0.00  0.00    +0.240 N 
ATOM     28  H   UNL     1      24.580  28.652  30.929  0.00  0.00    +0.203 HD
ATOM     29  C   UNL     1      23.830  30.437  30.729  0.00  0.00    +0.191 C 
ATOM     30  C   UNL     1      24.407  29.225  32.769  0.00  0.00    +0.183 C 
ATOM     31  C   UNL     1      24.778  27.809  33.187  0.00  0.00    +0.185 C 
ENDBRANCH  22  23
ENDBRANCH  21  22
ENDBRANCH  16  18
ENDBRANCH  13  14
TORSDOF 6
