REMARK  Name = 2xk9_ligand
REMARK  10 active torsions:
REMARK  status: ('A' for Active; 'I' for Inactive)
REMARK    1  A    between atoms: N7_2  and  C3_4
REMARK    2  A    between atoms: C8_8  and  C9_13
REMARK    3  A    between atoms: N2_15  and  C10_16
REMARK    4  A    between atoms: C13_19  and  C16_22
REMARK    5  A    between atoms: C16_22  and  C17_23
REMARK    6  A    between atoms: N3_24  and  N4_25
REMARK    7  A    between atoms: N4_25  and  C18_26
REMARK    8  A    between atoms: C18_26  and  N6_27
REMARK    9  A    between atoms: C18_26  and  N5_28
REMARK   10  A    between atoms: N5_28  and  OBC_29
REMARK                            x       y       z     vdW  Elec       q    Type
REMARK                         _______ _______ _______ _____ _____    ______ ____
ROOT
ATOM     13  C   UNL     1     -47.023  14.095 -10.632  0.00  0.00    +0.211 A 
ATOM     14  C   UNL     1     -48.010  13.128 -10.702  0.00  0.00    +0.162 A 
ATOM     15  C   UNL     1     -48.174  12.348 -11.849  0.00  0.00    +0.130 A 
ATOM     16  C   UNL     1     -47.370  12.522 -12.977  0.00  0.00    +0.120 A 
ATOM     30  C   UNL     1     -46.371  13.515 -12.917  0.00  0.00    +0.130 A 
ATOM     31  C   UNL     1     -46.213  14.293 -11.760  0.00  0.00    +0.162 A 
ENDROOT
BRANCH  13  11
ATOM     10  C   UNL     1     -47.615  14.855  -8.434  0.00  0.00    +0.395 C 
ATOM     11  N   UNL     1     -46.865  14.901  -9.553  0.00  0.00    -0.133 N 
ATOM     12  H   UNL     1     -46.120  15.597  -9.591  0.00  0.00    +0.327 HD
ATOM     32  O   UNL     1     -48.507  14.033  -8.196  0.00  0.00    -0.290 OA
BRANCH  10   9
ATOM      3  C   UNL     1     -47.714  17.681  -4.358  0.00  0.00    +0.157 A 
ATOM      4  C   UNL     1     -47.453  17.109  -5.602  0.00  0.00    +0.168 A 
ATOM      5  C   UNL     1     -46.551  17.721  -6.480  0.00  0.00    +0.084 A 
ATOM      6  C   UNL     1     -45.911  18.899  -6.116  0.00  0.00    +0.097 A 
ATOM      7  C   UNL     1     -46.158  19.468  -4.874  0.00  0.00    +0.053 A 
ATOM      8  C   UNL     1     -46.506  16.991  -7.598  0.00  0.00    +0.187 A 
ATOM      9  C   UNL     1     -47.331  15.956  -7.410  0.00  0.00    +0.266 A 
ATOM     33  N   UNL     1     -47.929  16.036  -6.211  0.00  0.00    -0.198 N 
ATOM     34  H   UNL     1     -48.623  15.388  -5.838  0.00  0.00    +0.259 HD
ATOM     35  C   UNL     1     -47.055  18.857  -3.997  0.00  0.00    +0.112 A 
BRANCH   3   2
ATOM      1  O   UNL     1     -49.425  16.017  -3.837  0.00  0.00    -0.484 OA
ATOM      2  N   UNL     1     -48.575  17.121  -3.492  0.00  0.00    -0.198 N 
ATOM     36  O   UNL     1     -48.652  17.613  -2.163  0.00  0.00    -0.484 OA
ENDBRANCH   3   2
ENDBRANCH  10   9
ENDBRANCH  13  11
BRANCH  16  17
ATOM     17  C   UNL     1     -47.544  11.741 -14.127  0.00  0.00    +0.222 C 
ATOM     18  N   UNL     1     -47.137  12.231 -15.295  0.00  0.00    +0.009 NA
ATOM     29  C   UNL     1     -48.186  10.365 -14.096  0.00  0.00    +0.204 C 
BRANCH  18  19
ATOM     19  N   UNL     1     -47.212  11.626 -16.383  0.00  0.00    -0.131 N 
ATOM     20  H   UNL     1     -47.586  10.678 -16.423  0.00  0.00    +0.286 HD
BRANCH  19  21
ATOM     21  C   UNL     1     -46.791  12.245 -17.507  0.00  0.00    +0.221 C 
BRANCH  21  26
ATOM     26  N   UNL     1     -46.868  11.690 -18.709  0.00  0.00    -0.344 NA
ATOM     27  H   UNL     1     -46.536  12.199 -19.528  0.00  0.00    +0.167 HD
ATOM     28  H   UNL     1     -47.259  10.754 -18.814  0.00  0.00    +0.167 HD
ENDBRANCH  21  26
BRANCH  21  22
ATOM     22  N   UNL     1     -46.284  13.457 -17.449  0.00  0.00    -0.208 NA
ATOM     23  H   UNL     1     -46.203  13.939 -16.554  0.00  0.00    +0.208 HD
BRANCH  22  24
ATOM     24  O   UNL     1     -45.865  14.068 -18.605  0.00  0.00    -0.282 OA
ATOM     25  H   UNL     1     -45.523  14.941 -18.398  0.00  0.00    +0.250 HD
ENDBRANCH  22  24
ENDBRANCH  21  22
ENDBRANCH  19  21
ENDBRANCH  18  19
ENDBRANCH  16  17
TORSDOF 9
