REMARK  Name = 3fi2_ligand
REMARK  14 active torsions:
REMARK  status: ('A' for Active; 'I' for Inactive)
REMARK    1  A    between atoms: O1_1  and  C17_13
REMARK    2  A    between atoms: N2_2  and  C17_13
REMARK    3  A    between atoms: N2_2  and  C19_15
REMARK    4  A    between atoms: C3_3  and  O5_31
REMARK    5  A    between atoms: O4_4  and  C25_20
REMARK    6  A    between atoms: O4_4  and  C2_24
REMARK    7  A    between atoms: C17_13  and  N3_26
REMARK    8  A    between atoms: C18_14  and  C22_17
REMARK    9  A    between atoms: C20_16  and  N4_29
REMARK   10  A    between atoms: C23_18  and  N5_30
REMARK   11  A    between atoms: C24_19  and  O3_27
REMARK   12  A    between atoms: C26_21  and  O5_31
REMARK   13  A    between atoms: C1_22  and  O3_27
REMARK   14  A    between atoms: N3_26  and  C21_36
REMARK                            x       y       z     vdW  Elec       q    Type
REMARK                         _______ _______ _______ _____ _____    ______ ____
ROOT
ATOM     13  C   UNL     1       9.613  33.379  12.034  0.00  0.00    +0.085 A 
ATOM     14  C   UNL     1       8.394  33.929  12.662  0.00  0.00    +0.037 A 
ATOM     15  C   UNL     1       7.847  33.205  13.826  0.00  0.00    +0.044 A 
ATOM     32  C   UNL     1       8.442  32.025  14.326  0.00  0.00    +0.001 A 
ATOM     33  C   UNL     1       9.632  31.502  13.685  0.00  0.00    -0.009 A 
ATOM     34  C   UNL     1      10.228  32.230  12.475  0.00  0.00    +0.020 A 
ENDROOT
BRANCH  13  12
ATOM      7  C   UNL     1      11.653  35.057   9.320  0.00  0.00    +0.141 C 
ATOM      8  C   UNL     1      10.276  35.758   9.272  0.00  0.00    +0.211 C 
ATOM      9  N   UNL     1       9.341  34.837   9.948  0.00  0.00    +0.365 N 
ATOM     10  H   UNL     1       8.893  34.205   9.285  0.00  0.00    +0.227 HD
ATOM     11  H   UNL     1       8.578  35.342  10.399  0.00  0.00    +0.227 HD
ATOM     12  N   UNL     1      10.151  34.107  10.922  0.00  0.00    -0.274 N 
ATOM     35  C   UNL     1      11.518  34.028  10.497  0.00  0.00    +0.237 C 
BRANCH   7   4
ATOM      4  N   UNL     1      12.884  35.787   9.512  0.00  0.00    +0.274 N 
ATOM      5  H   UNL     1      12.446  36.565  10.005  0.00  0.00    +0.207 HD
ATOM      6  H   UNL     1      13.311  35.464   8.644  0.00  0.00    +0.207 HD
BRANCH   4   3
ATOM      3  C   UNL     1      14.134  35.873  10.237  0.00  0.00    +0.317 C 
BRANCH   3   1
ATOM      1  O   UNL     1      14.535  34.628  10.688  0.00  0.00    -0.332 OA
ATOM      2  H   UNL     1      13.825  34.229  11.196  0.00  0.00    +0.218 HD
ENDBRANCH   3   1
BRANCH   3  36
ATOM     36  N   UNL     1      15.036  36.677   9.442  0.00  0.00    -0.258 N 
ATOM     37  H   UNL     1      15.971  36.433   9.768  0.00  0.00    +0.183 HD
BRANCH  36  38
ATOM     38  C   UNL     1      15.238  37.657   8.410  0.00  0.00    +0.044 A 
ATOM     39  C   UNL     1      14.330  38.746   8.409  0.00  0.00    +0.007 A 
ATOM     40  C   UNL     1      14.457  39.705   7.460  0.00  0.00    -0.015 A 
ATOM     41  C   UNL     1      15.539  39.602   6.458  0.00  0.00    -0.025 A 
ATOM     42  C   UNL     1      16.416  38.537   6.470  0.00  0.00    -0.015 A 
ATOM     43  C   UNL     1      16.286  37.539   7.447  0.00  0.00    +0.007 A 
ENDBRANCH  36  38
ENDBRANCH   3  36
ENDBRANCH   4   3
ENDBRANCH   7   4
ENDBRANCH  13  12
BRANCH  15  16
ATOM     16  C   UNL     1       6.621  33.868  14.455  0.00  0.00    +0.226 C 
ATOM     17  N   UNL     1       5.758  34.501  13.486  0.00  0.00    -0.244 N 
ATOM     18  H   UNL     1       5.912  34.335  12.491  0.00  0.00    +0.222 HD
ATOM     31  O   UNL     1       6.373  33.801  15.601  0.00  0.00    -0.375 OA
BRANCH  17  19
ATOM     19  C   UNL     1       4.669  35.375  13.910  0.00  0.00    +0.038 A 
ATOM     20  C   UNL     1       4.903  36.158  15.055  0.00  0.00    -0.000 A 
ATOM     21  C   UNL     1       3.828  37.162  15.478  0.00  0.00    +0.099 A 
ATOM     24  C   UNL     1       2.641  37.296  14.720  0.00  0.00    +0.131 A 
ATOM     27  C   UNL     1       2.428  36.485  13.532  0.00  0.00    +0.099 A 
ATOM     30  C   UNL     1       3.467  35.508  13.102  0.00  0.00    -0.000 A 
BRANCH  21  22
ATOM     22  O   UNL     1       4.069  37.935  16.609  0.00  0.00    -0.331 OA
ATOM     23  C   UNL     1       5.142  37.590  17.452  0.00  0.00    +0.228 C 
ENDBRANCH  21  22
BRANCH  24  25
ATOM     25  O   UNL     1       1.689  38.257  15.085  0.00  0.00    -0.339 OA
ATOM     26  C   UNL     1       1.618  39.426  14.299  0.00  0.00    +0.220 C 
ENDBRANCH  24  25
BRANCH  27  28
ATOM     28  O   UNL     1       1.265  36.616  12.752  0.00  0.00    -0.331 OA
ATOM     29  C   UNL     1       1.000  36.307  11.389  0.00  0.00    +0.228 C 
ENDBRANCH  27  28
ENDBRANCH  17  19
ENDBRANCH  15  16
TORSDOF 11
