REMARK  Name = 7KB
REMARK  2 active torsions:
REMARK  status: ('A' for Active; 'I' for Inactive)
REMARK    1  A    between atoms: C6_9  and  S_11
REMARK    2  A    between atoms: S_11  and  N1_13
REMARK                            x       y       z     vdW  Elec       q    Type
REMARK                         _______ _______ _______ _____ _____    ______ ____
ROOT
ATOM      1  C   UNL     1     -16.885  26.704 -24.684  0.00  0.00    +0.095 A 
ATOM      2  N   UNL     1     -17.523  26.038 -23.718  0.00  0.00    -0.243 NA
ATOM      3  C   UNL     1     -17.474  24.724 -23.750  0.00  0.00    +0.099 A 
ATOM      4  C   UNL     1     -16.745  23.976 -24.707  0.00  0.00    +0.020 A 
ATOM      5  C   UNL     1     -16.758  22.560 -24.711  0.00  0.00    +0.002 A 
ATOM      6  C   UNL     1     -16.019  21.858 -25.609  0.00  0.00    +0.001 A 
ATOM      7  C   UNL     1     -15.188  22.518 -26.502  0.00  0.00    +0.020 A 
ATOM      8  C   UNL     1     -15.107  23.884 -26.502  0.00  0.00    +0.122 A 
ATOM     19  C   UNL     1     -15.945  24.695 -25.654  0.00  0.00    +0.018 A 
ATOM     20  C   UNL     1     -16.156  26.116 -25.710  0.00  0.00    -0.001 A 
ATOM     21  C   UNL     1     -15.660  26.992 -26.831  0.00  0.00    +0.033 C 
ENDROOT
BRANCH   8   9
ATOM      9  S   UNL     1     -13.737  24.562 -27.395  0.00  0.00    +0.063 S 
ATOM     10  O   UNL     1     -13.111  25.529 -26.549  0.00  0.00    -0.153 OA
ATOM     18  O   UNL     1     -14.142  24.939 -28.714  0.00  0.00    -0.153 OA
BRANCH   9  11
ATOM     11  N   UNL     1     -12.655  23.352 -27.574  0.00  0.00    -0.154 NA
ATOM     12  C   UNL     1     -12.066  22.786 -26.344  0.00  0.00    +0.115 C 
ATOM     13  C   UNL     1     -10.628  23.192 -26.155  0.00  0.00    +0.108 C 
ATOM     14  N   UNL     1      -9.744  22.422 -27.078  0.00  0.00    -0.217 NA
ATOM     15  C   UNL     1     -10.067  22.602 -28.524  0.00  0.00    +0.090 C 
ATOM     16  C   UNL     1     -11.300  21.802 -28.973  0.00  0.00    +0.038 C 
ATOM     17  C   UNL     1     -12.607  22.564 -28.820  0.00  0.00    +0.097 C 
ENDBRANCH   9  11
ENDBRANCH   8   9
TORSDOF 2
