REMARK  Name = 4i3z_ligand
REMARK  9 active torsions:
REMARK  status: ('A' for Active; 'I' for Inactive)
REMARK    1  A    between atoms: PB_1  and  O3A_8
REMARK    2  A    between atoms: PA_5  and  O3A_8
REMARK    3  A    between atoms: PA_5  and  O5'_9
REMARK    4  A    between atoms: O5'_9  and  C5'_10
REMARK    5  A    between atoms: C5'_10  and  C4'_11
REMARK    6  A    between atoms: C3'_13  and  O3'_14
REMARK    7  A    between atoms: C2'_15  and  O2'_16
REMARK    8  A    between atoms: C1'_17  and  N9_18
REMARK    9  A    between atoms: C6_22  and  N6_23
REMARK                            x       y       z     vdW  Elec       q    Type
REMARK                         _______ _______ _______ _____ _____    ______ ____
ROOT
ATOM      6  C   UNL     1      -0.558 -39.196   0.188  0.00  0.00    +0.184 C 
ATOM      7  C   UNL     1       0.496 -38.813   1.212  0.00  0.00    +0.180 C 
ATOM      8  C   UNL     1       0.393 -39.899   2.262  0.00  0.00    +0.206 C 
ATOM      9  C   UNL     1      -0.145 -41.097   1.508  0.00  0.00    +0.301 C 
ATOM     26  O   UNL     1      -0.701 -40.617   0.285  0.00  0.00    -0.336 OA
ENDROOT
BRANCH   9  10
ATOM     10  N   UNL     1       1.021 -41.961   1.217  0.00  0.00    -0.192 N 
ATOM     11  C   UNL     1       1.465 -42.947   1.999  0.00  0.00    +0.161 A 
ATOM     12  N   UNL     1       1.083 -43.480   3.184  0.00  0.00    -0.271 NA
ATOM     13  C   UNL     1       1.760 -44.511   3.727  0.00  0.00    +0.153 A 
ATOM     14  N   UNL     1       2.844 -45.078   3.164  0.00  0.00    -0.270 NA
ATOM     15  C   UNL     1       3.329 -44.637   1.977  0.00  0.00    +0.130 A 
ATOM     19  C   UNL     1       2.638 -43.508   1.313  0.00  0.00    +0.105 A 
ATOM     20  N   UNL     1       2.801 -42.808   0.175  0.00  0.00    -0.296 NA
ATOM     21  C   UNL     1       1.818 -41.873   0.133  0.00  0.00    +0.247 A 
BRANCH  15  16
ATOM     16  N   UNL     1       4.417 -45.195   1.400  0.00  0.00    -0.315 N 
ATOM     17  H   UNL     1       4.764 -44.835   0.500  0.00  0.00    +0.182 HD
ATOM     18  H   UNL     1       4.899 -45.980   1.861  0.00  0.00    +0.182 HD
ENDBRANCH  15  16
ENDBRANCH   9  10
BRANCH   8  22
ATOM     22  O   UNL     1      -0.540 -39.522   3.284  0.00  0.00    -0.384 OA
ATOM     23  H   UNL     1      -0.247 -38.718   3.698  0.00  0.00    +0.210 HD
ENDBRANCH   8  22
BRANCH   7  24
ATOM     24  O   UNL     1       0.267 -37.516   1.775  0.00  0.00    -0.386 OA
ATOM     25  H   UNL     1      -0.579 -37.504   2.207  0.00  0.00    +0.210 HD
ENDBRANCH   7  24
BRANCH   6   5
ATOM      5  C   UNL     1      -0.151 -38.798  -1.226  0.00  0.00    +0.243 C 
BRANCH   5   4
ATOM      4  O   UNL     1       1.041 -39.486  -1.613  0.00  0.00    -0.244 OA
BRANCH   4   3
ATOM      3  P   UNL     1       2.197 -38.712  -2.420  0.00  0.00    +0.328 P 
ATOM     27  O   UNL     1       3.313 -39.684  -2.710  0.00  0.00    -0.556 OA
ATOM     28  O   UNL     1       2.517 -37.461  -1.648  0.00  0.00    -0.556 OA
BRANCH   3   2
ATOM      2  O   UNL     1       1.416 -38.386  -3.801  0.00  0.00    -0.155 OA
BRANCH   2   1
ATOM      1  P   UNL     1       1.062 -36.915  -4.374  0.00  0.00    +0.207 P 
ATOM     29  O   UNL     1       1.062 -36.006  -3.168  0.00  0.00    -0.589 OA
ATOM     30  O   UNL     1       2.155 -36.630  -5.375  0.00  0.00    -0.589 OA
ATOM     31  O   UNL     1      -0.291 -37.085  -5.021  0.00  0.00    -0.589 OA
ENDBRANCH   2   1
ENDBRANCH   3   2
ENDBRANCH   4   3
ENDBRANCH   5   4
ENDBRANCH   6   5
TORSDOF 9
