REMARK  Name = 5IDN
REMARK  3 active torsions:
REMARK  status: ('A' for Active; 'I' for Inactive)
REMARK    1  A    between atoms: C_4  and  C_7
REMARK    2  A    between atoms: C_11  and  C_20
REMARK    3  A    between atoms: C_17  and  C_24
REMARK                            x       y       z     vdW  Elec       q    Type
REMARK                         _______ _______ _______ _____ _____    ______ ____
ROOT
ATOM      6  C   UNL     1      -4.917  12.923 -11.293  0.00  0.00    +0.107 C 
ATOM      7  C   UNL     1      -3.507  13.405 -11.669  0.00  0.00    +0.029 C 
ATOM      8  C   UNL     1      -3.773  14.905 -11.945  0.00  0.00    +0.021 C 
ATOM      9  C   UNL     1      -5.161  14.873 -12.634  0.00  0.00    +0.109 C 
ATOM     10  N   UNL     1      -5.859  13.644 -12.180  0.00  0.00    -0.290 N 
ATOM     11  C   UNL     1      -7.130  13.304 -12.566  0.00  0.00    +0.249 C 
ATOM     12  O   UNL     1      -7.726  14.045 -13.332  0.00  0.00    -0.270 OA
ENDROOT
BRANCH  11  13
ATOM     13  C   UNL     1      -7.845  12.072 -12.141  0.00  0.00    +0.056 A 
ATOM     14  C   UNL     1      -8.444  11.292 -13.131  0.00  0.00    +0.126 A 
ATOM     15  N   UNL     1      -9.111  10.166 -12.843  0.00  0.00    -0.235 NA
ATOM     16  C   UNL     1      -9.251   9.717 -11.552  0.00  0.00    +0.156 A 
ATOM     17  N   UNL     1      -9.819   8.687 -10.964  0.00  0.00    -0.260 N 
ATOM     18  H   UNL     1     -10.350   7.914 -11.480  0.00  0.00    +0.191 HD
ATOM     19  N   UNL     1      -9.654   8.728  -9.691  0.00  0.00    -0.177 NA
ATOM     20  C   UNL     1      -8.976   9.784  -9.300  0.00  0.00    +0.069 A 
ATOM     21  C   UNL     1      -8.601  10.139  -7.883  0.00  0.00    +0.068 C 
ATOM     22  C   UNL     1      -8.655  10.508 -10.465  0.00  0.00    +0.042 A 
ATOM     23  C   UNL     1      -7.969  11.676 -10.786  0.00  0.00    +0.028 A 
ENDBRANCH  11  13
BRANCH   6   5
ATOM      1  C   UNL     1      -5.673  13.304  -7.067  0.00  0.00    +0.041 A 
ATOM      2 CL   UNL     1      -5.968  13.400  -5.357  0.00  0.00    -0.084 Cl
ATOM      3  C   UNL     1      -5.014  12.201  -7.586  0.00  0.00    +0.020 A 
ATOM      4  C   UNL     1      -4.781  12.110  -8.947  0.00  0.00    +0.007 A 
ATOM      5  C   UNL     1      -5.184  13.120  -9.812  0.00  0.00    -0.027 A 
ATOM     24  C   UNL     1      -5.851  14.229  -9.291  0.00  0.00    +0.007 A 
ATOM     25  C   UNL     1      -6.090  14.319  -7.924  0.00  0.00    +0.020 A 
ENDBRANCH   6   5
TORSDOF 2
