REMARK  Name = 4gfo_ligand
REMARK  2 active torsions:
REMARK  status: ('A' for Active; 'I' for Inactive)
REMARK    1  A    between atoms: C4_1  and  C7_5
REMARK    2  A    between atoms: C8_6  and  N1_10
REMARK                            x       y       z     vdW  Elec       q    Type
REMARK                         _______ _______ _______ _____ _____    ______ ____
ROOT
ATOM      7  C   UNL     1      13.661 -12.930  23.477  0.00  0.00    +0.254 C 
ATOM      8  O   UNL     1      14.014 -11.811  23.822  0.00  0.00    -0.362 OA
ATOM      9  N   UNL     1      13.584 -13.990  24.299  0.00  0.00    -0.198 N 
ATOM     10  H   UNL     1      13.228 -14.839  23.908  0.00  0.00    +0.253 HD
ENDROOT
BRANCH   7   1
ATOM      1  C   UNL     1      13.276 -13.062  22.034  0.00  0.00    +0.088 A 
ATOM      2  C   UNL     1      14.119 -13.704  21.127  0.00  0.00    +0.062 A 
ATOM      3  C   UNL     1      13.792 -13.751  19.769  0.00  0.00    +0.022 A 
ATOM      4  C   UNL     1      12.628 -13.129  19.316  0.00  0.00    +0.009 A 
ATOM      5  C   UNL     1      11.797 -12.461  20.218  0.00  0.00    +0.022 A 
ATOM      6 CL   UNL     1      15.608 -14.522  21.693  0.00  0.00    -0.065 Cl
ATOM     18  C   UNL     1      12.137 -12.417  21.572  0.00  0.00    +0.062 A 
ATOM     19 CL   UNL     1      11.095 -11.555  22.740  0.00  0.00    -0.065 Cl
ENDBRANCH   7   1
BRANCH   9  11
ATOM     11  C   UNL     1      13.957 -14.025  25.664  0.00  0.00    +0.111 C 
ATOM     12  C   UNL     1      14.278 -12.875  26.411  0.00  0.00    +0.264 C 
ATOM     13  C   UNL     1      14.706 -12.992  27.739  0.00  0.00    +0.160 C 
ATOM     14  O   UNL     1      15.011 -11.957  28.375  0.00  0.00    -0.399 OA
ATOM     15  N   UNL     1      14.805 -14.223  28.319  0.00  0.00    -0.307 NA
ATOM     16  C   UNL     1      14.514 -15.348  27.632  0.00  0.00    +0.074 C 
ATOM     17  C   UNL     1      14.087 -15.277  26.290  0.00  0.00    +0.015 C 
ENDBRANCH   9  11
TORSDOF 2
