REMARK  Name = 3i60_ligand
REMARK  8 active torsions:
REMARK  status: ('A' for Active; 'I' for Inactive)
REMARK    1  A    between atoms: C1_1  and  C2_2
REMARK    2  A    between atoms: N6_6  and  C7_7
REMARK    3  A    between atoms: C15_15  and  C16_16
REMARK    4  A    between atoms: C20_19  and  C22_21
REMARK    5  A    between atoms: N24_23  and  C25_24
REMARK    6  A    between atoms: C25_24  and  C27_25
REMARK    7  A    between atoms: C25_24  and  C29_27
REMARK    8  A    between atoms: C27_25  and  O28_26
REMARK                            x       y       z     vdW  Elec       q    Type
REMARK                         _______ _______ _______ _____ _____    ______ ____
ROOT
ATOM      4  C   UNL     1       7.412  -2.531  44.930  0.00  0.00    -0.004 A 
ATOM      5  C   UNL     1       8.642  -2.620  45.626  0.00  0.00    -0.006 A 
ATOM      6  CA  UNL     1       9.556  -3.165  44.757  0.00  0.00    +0.130 A 
ATOM     21  N   UNL     1       8.933  -3.375  43.551  0.00  0.00    -0.270 N 
ATOM     22  H   UNL     1       9.381  -3.757  42.706  0.00  0.00    +0.240 HD
ATOM     23  C   UNL     1       7.637  -3.000  43.649  0.00  0.00    +0.144 A 
ENDROOT
BRANCH   4   3
ATOM      1  C   UNL     1       7.041  -0.692  47.413  0.00  0.00    +0.088 C 
ATOM      2  C   UNL     1       5.931  -1.133  46.494  0.00  0.00    -0.009 A 
ATOM      3  C   UNL     1       6.107  -1.994  45.390  0.00  0.00    +0.036 A 
ATOM     24  N   UNL     1       5.032  -2.285  44.657  0.00  0.00    -0.265 NA
ATOM     25  C   UNL     1       3.831  -1.833  44.962  0.00  0.00    +0.196 A 
ATOM     26  N   UNL     1       2.754  -2.164  44.174  0.00  0.00    -0.246 N 
ATOM     27  H   UNL     1       1.822  -1.831  44.460  0.00  0.00    +0.216 HD
ATOM     35  N   UNL     1       3.633  -1.039  45.997  0.00  0.00    -0.267 NA
ATOM     36  C   UNL     1       4.651  -0.673  46.769  0.00  0.00    +0.089 A 
BRANCH  26  28
ATOM     28  C   UNL     1       2.852  -2.931  43.000  0.00  0.00    +0.078 A 
ATOM     29  C   UNL     1       1.862  -3.881  42.751  0.00  0.00    +0.062 A 
ATOM     30 CL   UNL     1       0.596  -4.079  43.912  0.00  0.00    -0.080 Cl
ATOM     31  C   UNL     1       1.895  -4.661  41.603  0.00  0.00    +0.002 A 
ATOM     32  C   UNL     1       2.926  -4.489  40.692  0.00  0.00    -0.021 A 
ATOM     33  C   UNL     1       3.914  -3.534  40.926  0.00  0.00    -0.013 A 
ATOM     34  C   UNL     1       3.877  -2.750  42.066  0.00  0.00    +0.016 A 
ENDBRANCH  26  28
ENDBRANCH   4   3
BRANCH   6   7
ATOM      7  C   UNL     1      10.969  -3.454  44.992  0.00  0.00    +0.220 C 
ATOM      8  N   UNL     1      11.567  -4.447  44.296  0.00  0.00    -0.271 N 
ATOM      9  H   UNL     1      11.020  -4.995  43.663  0.00  0.00    +0.187 HD
ATOM     20  O   UNL     1      11.600  -2.765  45.783  0.00  0.00    -0.391 OA
BRANCH   8  10
ATOM     10  CA  UNL     1      13.006  -4.745  44.446  0.00  0.00    +0.172 C 
BRANCH  10  11
ATOM     11  C   UNL     1      13.330  -5.853  45.423  0.00  0.00    -0.016 A 
ATOM     12  C   UNL     1      14.662  -6.101  45.744  0.00  0.00    -0.002 A 
ATOM     13  C   UNL     1      14.999  -7.112  46.632  0.00  0.00    -0.009 A 
ATOM     14  C   UNL     1      13.984  -7.865  47.203  0.00  0.00    -0.013 A 
ATOM     15  C   UNL     1      12.655  -7.621  46.890  0.00  0.00    -0.009 A 
ATOM     16  C   UNL     1      12.325  -6.620  45.994  0.00  0.00    -0.002 A 
ENDBRANCH  10  11
BRANCH  10  17
ATOM     17  C   UNL     1      13.520  -5.155  43.060  0.00  0.00    +0.197 C 
BRANCH  17  18
ATOM     18  O   UNL     1      13.010  -4.279  42.045  0.00  0.00    -0.391 OA
ATOM     19  H   UNL     1      13.341  -4.552  41.197  0.00  0.00    +0.210 HD
ENDBRANCH  17  18
ENDBRANCH  10  17
ENDBRANCH   8  10
ENDBRANCH   6   7
TORSDOF 7
