REMARK  Name = 4twc_ligand
REMARK  5 active torsions:
REMARK  status: ('A' for Active; 'I' for Inactive)
REMARK    1  A    between atoms: C2_2  and  C4_5
REMARK    2  A    between atoms: C5_7  and  C6_8
REMARK    3  A    between atoms: C20_10  and  C14_13
REMARK    4  A    between atoms: C7_30  and  O3_31
REMARK    5  A    between atoms: O3_31  and  C12_32
REMARK                            x       y       z     vdW  Elec       q    Type
REMARK                         _______ _______ _______ _____ _____    ______ ____
ROOT
ATOM      1  N   UNL     1       9.322 -13.293   6.254  0.00  0.00    -0.305 NA
ATOM      2  C   UNL     1      10.178 -14.232   5.857  0.00  0.00    +0.209 A 
ATOM      3  N   UNL     1      10.868 -14.952   6.828  0.00  0.00    -0.195 N 
ATOM      4  H   UNL     1      10.607 -14.809   7.783  0.00  0.00    +0.240 HD
ATOM      5  C   UNL     1      11.867 -15.833   6.576  0.00  0.00    +0.238 C 
ATOM     17  O   UNL     1      12.062 -16.075   5.426  0.00  0.00    -0.374 OA
ATOM     18  S   UNL     1      10.331 -14.320   4.243  0.00  0.00    +0.025 S 
ATOM     19  C   UNL     1       9.226 -13.164   3.980  0.00  0.00    +0.094 A 
ATOM     20  C   UNL     1       8.769 -12.699   5.199  0.00  0.00    +0.075 A 
ENDROOT
BRANCH  20  21
ATOM     21  C   UNL     1       7.784 -11.622   5.462  0.00  0.00    +0.235 C 
ATOM     22  O   UNL     1       7.501 -11.399   6.622  0.00  0.00    -0.376 OA
ATOM     23  N   UNL     1       7.232 -10.865   4.441  0.00  0.00    -0.184 N 
ATOM     24  H   UNL     1       7.443 -11.131   3.501  0.00  0.00    +0.241 HD
ATOM     25  C   UNL     1       6.410  -9.767   4.628  0.00  0.00    +0.250 A 
ATOM     26  N   UNL     1       6.085  -9.016   3.576  0.00  0.00    -0.210 N 
ATOM     27  H   UNL     1       6.323  -9.165   2.585  0.00  0.00    +0.240 HD
ATOM     28  C   UNL     1       5.373  -8.021   4.121  0.00  0.00    +0.106 A 
ATOM     29  C   UNL     1       4.783  -6.989   3.472  0.00  0.00    +0.047 A 
ATOM     30  C   UNL     1       4.077  -6.068   4.231  0.00  0.00    +0.022 A 
ATOM     31  C   UNL     1       3.962  -6.241   5.613  0.00  0.00    +0.025 A 
ATOM     32  C   UNL     1       4.539  -7.330   6.251  0.00  0.00    +0.041 A 
ATOM     37  C   UNL     1       5.268  -8.207   5.462  0.00  0.00    +0.043 A 
ATOM     38  N   UNL     1       5.929  -9.302   5.797  0.00  0.00    -0.302 NA
BRANCH  31  33
ATOM     33  C   UNL     1       3.139  -5.225   6.400  0.00  0.00    +0.363 C 
ATOM     34  F   UNL     1       3.091  -4.037   5.778  0.00  0.00    -0.230 F 
ATOM     35  F   UNL     1       3.634  -5.041   7.620  0.00  0.00    -0.230 F 
ATOM     36  F   UNL     1       1.875  -5.669   6.577  0.00  0.00    -0.230 F 
ENDBRANCH  31  33
ENDBRANCH  20  21
BRANCH   5   6
ATOM      6  C   UNL     1      12.645 -16.349   7.732  0.00  0.00    +0.087 A 
ATOM      7  C   UNL     1      14.025 -16.509   7.655  0.00  0.00    +0.123 A 
ATOM     13  C   UNL     1      14.746 -16.961   8.756  0.00  0.00    +0.029 A 
ATOM     14  C   UNL     1      14.077 -17.235   9.937  0.00  0.00    -0.004 A 
ATOM     15  C   UNL     1      12.703 -17.039  10.031  0.00  0.00    -0.013 A 
ATOM     16  C   UNL     1      11.996 -16.607   8.935  0.00  0.00    +0.014 A 
BRANCH   7   8
ATOM      8  O   UNL     1      14.596 -16.229   6.461  0.00  0.00    -0.220 OA
BRANCH   8   9
ATOM      9  C   UNL     1      15.927 -15.893   6.214  0.00  0.00    +0.548 C 
ATOM     10  F   UNL     1      16.763 -16.911   6.486  0.00  0.00    -0.140 F 
ATOM     11  F   UNL     1      15.983 -15.558   4.899  0.00  0.00    -0.140 F 
ATOM     12  F   UNL     1      16.230 -14.872   7.008  0.00  0.00    -0.140 F 
ENDBRANCH   8   9
ENDBRANCH   7   8
ENDBRANCH   5   6
TORSDOF 5
