REMARK  Name = 3VS4
REMARK  4 active torsions:
REMARK  status: ('A' for Active; 'I' for Inactive)
REMARK    1  A    between atoms: N_8  and  C_9
REMARK    2  A    between atoms: C_16  and  C_17
REMARK    3  A    between atoms: C_20  and  O_23
REMARK    4  A    between atoms: O_23  and  C_24
REMARK                            x       y       z     vdW  Elec       q    Type
REMARK                         _______ _______ _______ _____ _____    ______ ____
ROOT
ATOM      1  N   UNL     1       3.377  -7.639  12.631  0.00  0.00    -0.343 N 
ATOM      2  H   UNL     1       2.480  -7.941  13.130  0.00  0.00    +0.144 HD
ATOM      3  H   UNL     1       3.573  -6.601  12.463  0.00  0.00    +0.144 HD
ATOM      4  C   UNL     1       4.264  -8.571  12.212  0.00  0.00    +0.129 A 
ATOM      5  C   UNL     1       4.030  -9.923  12.429  0.00  0.00    +0.066 A 
ATOM      6  C   UNL     1       3.009 -10.651  13.037  0.00  0.00    +0.012 A 
ATOM     20  C   UNL     1       3.366 -11.988  12.919  0.00  0.00    +0.097 A 
ATOM     21  N   UNL     1       4.551 -12.077  12.298  0.00  0.00    -0.328 N 
ATOM     28  C   UNL     1       4.975 -10.837  11.978  0.00  0.00    +0.147 A 
ATOM     29  N   UNL     1       6.090 -10.390  11.346  0.00  0.00    -0.218 NA
ATOM     30  C   UNL     1       6.292  -9.087  11.158  0.00  0.00    +0.225 A 
ATOM     31  N   UNL     1       5.398  -8.184  11.581  0.00  0.00    -0.220 NA
ENDROOT
BRANCH   6   7
ATOM      7  C   UNL     1       1.736 -10.167  13.659  0.00  0.00    -0.016 A 
ATOM      8  C   UNL     1       0.909  -9.350  12.899  0.00  0.00    +0.012 A 
ATOM      9  C   UNL     1      -0.300  -8.892  13.410  0.00  0.00    +0.047 A 
ATOM     10  C   UNL     1      -0.723  -9.272  14.671  0.00  0.00    +0.129 A 
ATOM     18  C   UNL     1       0.089 -10.110  15.433  0.00  0.00    +0.047 A 
ATOM     19  C   UNL     1       1.309 -10.567  14.925  0.00  0.00    +0.012 A 
BRANCH  10  11
ATOM     11  O   UNL     1      -1.928  -8.794  15.123  0.00  0.00    -0.456 OA
BRANCH  11  12
ATOM     12  C   UNL     1      -2.143  -8.352  16.402  0.00  0.00    +0.128 A 
ATOM     13  C   UNL     1      -3.261  -8.802  17.097  0.00  0.00    +0.046 A 
ATOM     14  C   UNL     1      -3.488  -8.364  18.395  0.00  0.00    +0.004 A 
ATOM     15  C   UNL     1      -2.597  -7.481  19.000  0.00  0.00    +0.000 A 
ATOM     16  C   UNL     1      -1.479  -7.035  18.306  0.00  0.00    +0.004 A 
ATOM     17  C   UNL     1      -1.255  -7.474  17.007  0.00  0.00    +0.046 A 
ENDBRANCH  11  12
ENDBRANCH  10  11
ENDBRANCH   6   7
BRANCH  21  22
ATOM     22  C   UNL     1       5.258 -13.351  11.998  0.00  0.00    +0.093 C 
ATOM     23  C   UNL     1       5.444 -14.116  13.304  0.00  0.00    +0.053 C 
ATOM     24  C   UNL     1       6.134 -15.462  13.075  0.00  0.00    +0.162 C 
ATOM     25  O   UNL     1       5.646 -16.079  11.871  0.00  0.00    -0.380 OA
ATOM     26  C   UNL     1       4.330 -15.624  11.541  0.00  0.00    +0.162 C 
ATOM     27  C   UNL     1       4.436 -14.192  11.026  0.00  0.00    +0.053 C 
ENDBRANCH  21  22
TORSDOF 4
