REMARK  Name = 4FKI
REMARK  6 active torsions:
REMARK  status: ('A' for Active; 'I' for Inactive)
REMARK    1  A    between atoms: C_1  and  O_4
REMARK    2  A    between atoms: N_3  and  C_18
REMARK    3  A    between atoms: O_4  and  C_5
REMARK    4  A    between atoms: C_13  and  C_16
REMARK    5  A    between atoms: C_16  and  C_17
REMARK    6  A    between atoms: C_19  and  C_21
REMARK                            x       y       z     vdW  Elec       q    Type
REMARK                         _______ _______ _______ _____ _____    ______ ____
ROOT
ATOM     10  C   UNL     1      -3.308  -7.484  28.543  0.00  0.00    +0.223 C 
ATOM     11  O   UNL     1      -2.525  -8.105  27.850  0.00  0.00    -0.275 OA
ATOM     12  N   UNL     1      -3.018  -6.251  29.103  0.00  0.00    -0.271 N 
ATOM     13  H   UNL     1      -3.766  -5.818  29.734  0.00  0.00    +0.156 HD
ENDROOT
BRANCH  12  14
ATOM     14  C   UNL     1      -1.856  -5.528  28.924  0.00  0.00    +0.121 A 
ATOM     15  C   UNL     1      -0.665  -5.863  28.164  0.00  0.00    +0.068 A 
ATOM     16  C   UNL     1       0.102  -4.676  28.193  0.00  0.00    +0.068 A 
ATOM     20  N   UNL     1      -0.618  -3.743  28.941  0.00  0.00    -0.177 NA
ATOM     21  N   UNL     1      -1.772  -4.231  29.379  0.00  0.00    -0.264 N 
ATOM     22  H   UNL     1      -2.498  -3.715  29.972  0.00  0.00    +0.190 HD
BRANCH  16  17
ATOM     17  C   UNL     1       1.401  -4.313  27.620  0.00  0.00    +0.040 C 
ATOM     18  C   UNL     1       1.790  -4.708  26.219  0.00  0.00    +0.010 C 
ATOM     19  C   UNL     1       2.438  -5.383  27.409  0.00  0.00    +0.010 C 
ENDBRANCH  16  17
ENDBRANCH  12  14
BRANCH  10   9
ATOM      9  C   UNL     1      -4.723  -8.006  28.867  0.00  0.00    +0.131 C 
BRANCH   9   8
ATOM      5  C   UNL     1      -4.713 -10.641  32.208  0.00  0.00    +0.130 A 
ATOM      6  C   UNL     1      -4.912  -9.257  32.436  0.00  0.00    +0.046 A 
ATOM      7  C   UNL     1      -4.889  -8.416  31.305  0.00  0.00    +0.007 A 
ATOM      8  C   UNL     1      -4.683  -8.907  30.023  0.00  0.00    -0.038 A 
ATOM     23  C   UNL     1      -4.462 -10.301  29.820  0.00  0.00    +0.007 A 
ATOM     24  C   UNL     1      -4.469 -11.172  30.924  0.00  0.00    +0.046 A 
BRANCH   5   4
ATOM      4  O   UNL     1      -4.875 -11.534  33.265  0.00  0.00    -0.406 OA
BRANCH   4   1
ATOM      1  C   UNL     1      -4.162 -11.427  34.445  0.00  0.00    +0.575 C 
ATOM      2  F   UNL     1      -2.903 -11.101  34.194  0.00  0.00    -0.133 F 
ATOM      3  F   UNL     1      -4.649 -10.500  35.251  0.00  0.00    -0.133 F 
ATOM     25  F   UNL     1      -4.190 -12.592  35.095  0.00  0.00    -0.133 F 
ENDBRANCH   4   1
ENDBRANCH   5   4
ENDBRANCH   9   8
ENDBRANCH  10   9
TORSDOF 6
