REMARK  Name = 2no3_ligand
REMARK  5 active torsions:
REMARK  status: ('A' for Active; 'I' for Inactive)
REMARK    1  A    between atoms: C3_3  and  N7_7
REMARK    2  A    between atoms: N7_7  and  C8_8
REMARK    3  A    between atoms: C9_9  and  C22_22
REMARK    4  A    between atoms: N14_14  and  C15_15
REMARK    5  A    between atoms: C19_19  and  O21_21
REMARK                            x       y       z     vdW  Elec       q    Type
REMARK                         _______ _______ _______ _____ _____    ______ ____
ROOT
ATOM      1  C   UNL     1      17.771 107.535  51.061  0.00  0.00    +0.195 A 
ATOM      2  N   UNL     1      17.821 107.934  52.372  0.00  0.00    -0.247 N 
ATOM      3  H   UNL     1      16.915 108.199  52.784  0.00  0.00    +0.218 HD
ATOM     12  N   UNL     1      16.596 107.602  50.420  0.00  0.00    -0.269 NA
ATOM     13  C   UNL     1      16.555 107.192  49.119  0.00  0.00    +0.086 A 
ATOM     14  C   UNL     1      17.695 106.699  48.452  0.00  0.00    +0.057 A 
ATOM     15  C   UNL     1      18.875 106.666  49.193  0.00  0.00    +0.136 A 
ATOM     29  N   UNL     1      18.881 107.079  50.470  0.00  0.00    -0.234 NA
ENDROOT
BRANCH   2   4
ATOM      4  C   UNL     1      18.908 108.034  53.226  0.00  0.00    +0.056 A 
ATOM      5  C   UNL     1      20.038 107.151  53.248  0.00  0.00    +0.035 A 
ATOM      6  C   UNL     1      21.110 107.322  54.153  0.00  0.00    +0.078 A 
ATOM      9  C   UNL     1      21.075 108.388  55.072  0.00  0.00    -0.000 A 
ATOM     10  C   UNL     1      19.966 109.277  55.074  0.00  0.00    -0.024 A 
ATOM     11  C   UNL     1      18.903 109.096  54.160  0.00  0.00    -0.005 A 
BRANCH   6   7
ATOM      7  O   UNL     1      22.191 106.451  54.138  0.00  0.00    -0.336 OA
ATOM      8  H   UNL     1      22.814 106.710  54.806  0.00  0.00    +0.248 HD
ENDBRANCH   6   7
ENDBRANCH   2   4
BRANCH  15  16
ATOM     16  N   UNL     1      20.036 106.183  48.648  0.00  0.00    -0.252 N 
ATOM     17  H   UNL     1      19.934 105.864  47.674  0.00  0.00    +0.218 HD
BRANCH  16  18
ATOM     18  C   UNL     1      21.342 106.037  49.158  0.00  0.00    +0.085 A 
ATOM     19  C   UNL     1      21.758 106.451  50.468  0.00  0.00    +0.023 A 
ATOM     20  C   UNL     1      23.061 106.283  50.943  0.00  0.00    -0.005 A 
ATOM     21  C   UNL     1      24.020 105.694  50.118  0.00  0.00    -0.014 A 
ATOM     22  C   UNL     1      23.663 105.264  48.823  0.00  0.00    +0.013 A 
ATOM     23  C   UNL     1      22.342 105.433  48.330  0.00  0.00    +0.073 A 
BRANCH  23  24
ATOM     24  C   UNL     1      22.017 104.947  46.966  0.00  0.00    +0.196 C 
ATOM     25  O   UNL     1      20.905 105.046  46.460  0.00  0.00    -0.391 OA
ATOM     26  N   UNL     1      23.010 104.364  46.273  0.00  0.00    -0.302 N 
ATOM     27  H   UNL     1      23.919 104.274  46.681  0.00  0.00    +0.180 HD
ATOM     28  H   UNL     1      22.840 104.020  45.349  0.00  0.00    +0.180 HD
ENDBRANCH  23  24
ENDBRANCH  16  18
ENDBRANCH  15  16
TORSDOF 5
