REMARK  Name = 5V5N
REMARK  6 active torsions:
REMARK  status: ('A' for Active; 'I' for Inactive)
REMARK    1  A    between atoms: C_1  and  C_2
REMARK    2  A    between atoms: C_6  and  C_7
REMARK    3  A    between atoms: C_8  and  N_20
REMARK    4  A    between atoms: C_15  and  C_16
REMARK    5  A    between atoms: C_15  and  N_22
REMARK    6  A    between atoms: C_16  and  C_17
REMARK                            x       y       z     vdW  Elec       q    Type
REMARK                         _______ _______ _______ _____ _____    ______ ____
ROOT
ATOM      9  C   UNL     1     -14.443 -47.171 -14.980  0.00  0.00    +0.247 C 
ATOM     10  O   UNL     1     -15.163 -46.288 -14.554  0.00  0.00    -0.270 OA
ATOM     11  N   UNL     1     -14.939 -48.170 -15.900  0.00  0.00    -0.271 N 
ATOM     12  H   UNL     1     -14.786 -49.117 -15.427  0.00  0.00    +0.153 HD
ENDROOT
BRANCH  11  13
ATOM     13  C   UNL     1     -16.297 -48.164 -16.359  0.00  0.00    +0.230 C 
ATOM     14  N   UNL     1     -16.857 -49.152 -17.096  0.00  0.00    -0.288 N 
ATOM     18  C   UNL     1     -18.168 -48.816 -17.372  0.00  0.00    +0.054 A 
ATOM     19  C   UNL     1     -19.207 -49.479 -18.095  0.00  0.00    +0.025 A 
ATOM     20  C   UNL     1     -20.455 -48.882 -18.208  0.00  0.00    +0.002 A 
ATOM     21  C   UNL     1     -20.697 -47.627 -17.613  0.00  0.00    +0.002 A 
ATOM     22  C   UNL     1     -19.679 -46.975 -16.904  0.00  0.00    +0.025 A 
ATOM     23  C   UNL     1     -18.403 -47.584 -16.787  0.00  0.00    +0.051 A 
ATOM     24  N   UNL     1     -17.210 -47.194 -16.159  0.00  0.00    -0.302 N 
ATOM     25  H   UNL     1     -17.084 -46.465 -15.720  0.00  0.00    +0.150 HD
BRANCH  14  15
ATOM     15  C   UNL     1     -16.177 -50.364 -17.514  0.00  0.00    +0.109 C 
BRANCH  15  16
ATOM     16  C   UNL     1     -15.355 -50.101 -18.730  0.00  0.00    +0.016 C 
ATOM     17  C   UNL     1     -14.506 -51.278 -19.111  0.00  0.00    +0.005 C 
ENDBRANCH  15  16
ENDBRANCH  14  15
ENDBRANCH  11  13
BRANCH   9   8
ATOM      6  C   UNL     1     -10.855 -48.485 -14.605  0.00  0.00    +0.037 A 
ATOM      7  C   UNL     1     -12.206 -48.381 -14.962  0.00  0.00    +0.026 A 
ATOM      8  C   UNL     1     -12.949 -47.264 -14.564  0.00  0.00    +0.037 A 
ATOM     26  C   UNL     1     -12.358 -46.253 -13.828  0.00  0.00    +0.013 A 
ATOM     27  C   UNL     1     -11.006 -46.356 -13.471  0.00  0.00    +0.002 A 
ATOM     28  C   UNL     1     -10.267 -47.476 -13.867  0.00  0.00    +0.013 A 
BRANCH   6   1
ATOM      1  C   UNL     1     -10.029 -49.697 -15.025  0.00  0.00    +0.242 C 
ATOM      2  O   UNL     1      -8.923 -49.862 -14.562  0.00  0.00    -0.270 OA
ATOM      3  N   UNL     1     -10.556 -50.645 -15.965  0.00  0.00    -0.325 N 
ATOM      4  H   UNL     1     -10.086 -51.327 -16.198  0.00  0.00    +0.145 HD
ATOM      5  H   UNL     1     -11.342 -50.532 -16.296  0.00  0.00    +0.145 HD
ENDBRANCH   6   1
ENDBRANCH   9   8
TORSDOF 5
