REMARK  Name = 5FDX
REMARK  8 active torsions:
REMARK  status: ('A' for Active; 'I' for Inactive)
REMARK    1  A    between atoms: C_1  and  C_21
REMARK    2  A    between atoms: C_2  and  C_32
REMARK    3  A    between atoms: C_3  and  N_33
REMARK    4  A    between atoms: C_17  and  C_22
REMARK    5  A    between atoms: C_17  and  N_34
REMARK    6  A    between atoms: C_20  and  C_28
REMARK    7  A    between atoms: N_25  and  C_27
REMARK    8  A    between atoms: C_30  and  N_35
REMARK                            x       y       z     vdW  Elec       q    Type
REMARK                         _______ _______ _______ _____ _____    ______ ____
ROOT
ATOM      8  C   UNL     1       4.589 -18.632 -29.679  0.00  0.00    +0.248 C 
ATOM      9  O   UNL     1       3.656 -18.204 -28.957  0.00  0.00    -0.270 OA
ATOM     10  N   UNL     1       5.881 -17.892 -29.779  0.00  0.00    -0.281 N 
ATOM     11  H   UNL     1       6.016 -17.672 -30.817  0.00  0.00    +0.155 HD
ENDROOT
BRANCH  10  12
ATOM     12  C   UNL     1       6.133 -16.665 -29.079  0.00  0.00    +0.034 A 
ATOM     13  C   UNL     1       5.496 -16.354 -27.854  0.00  0.00    +0.028 A 
ATOM     14  C   UNL     1       5.748 -15.030 -27.132  0.00  0.00    -0.025 A 
ATOM     15  C   UNL     1       6.617 -14.149 -27.642  0.00  0.00    -0.038 A 
ATOM     16  C   UNL     1       6.975 -12.841 -26.983  0.00  0.00    +0.033 C 
ATOM     17  C   UNL     1       6.511 -12.898 -25.554  0.00  0.00    +0.113 C 
ATOM     18  N   UNL     1       5.223 -13.475 -25.306  0.00  0.00    -0.323 N 
ATOM     25  C   UNL     1       6.463 -11.663 -27.717  0.00  0.00    +0.014 C 
ATOM     26  C   UNL     1       7.307 -14.487 -28.964  0.00  0.00    +0.006 A 
ATOM     27  C   UNL     1       4.965 -14.834 -25.779  0.00  0.00    +0.140 C 
ATOM     28  C   UNL     1       7.041 -15.725 -29.617  0.00  0.00    +0.023 A 
BRANCH  18  19
ATOM     19  C   UNL     1       4.498 -13.116 -24.084  0.00  0.00    +0.067 A 
ATOM     20  C   UNL     1       3.103 -12.963 -24.056  0.00  0.00    +0.137 A 
ATOM     21  N   UNL     1       2.405 -12.697 -22.962  0.00  0.00    -0.242 NA
ATOM     22  C   UNL     1       3.049 -12.561 -21.759  0.00  0.00    +0.221 A 
ATOM     23  N   UNL     1       4.390 -12.710 -21.693  0.00  0.00    -0.242 NA
ATOM     24  C   UNL     1       5.134 -12.988 -22.825  0.00  0.00    +0.137 A 
ENDBRANCH  18  19
ENDBRANCH  10  12
BRANCH   8   7
ATOM      5  C   UNL     1       2.889 -21.758 -31.161  0.00  0.00    +0.056 A 
ATOM      6  C   UNL     1       3.046 -20.478 -30.593  0.00  0.00    +0.025 A 
ATOM      7  C   UNL     1       4.355 -19.938 -30.472  0.00  0.00    +0.038 A 
ATOM     29  C   UNL     1       5.273 -20.296 -31.524  0.00  0.00    +0.018 A 
ATOM     30  C   UNL     1       5.030 -21.430 -32.314  0.00  0.00    -0.032 A 
ATOM     39  C   UNL     1       3.991 -22.296 -31.891  0.00  0.00    +0.017 A 
BRANCH   5   1
ATOM      1  C   UNL     1       1.564 -22.518 -31.037  0.00  0.00    +0.417 C 
ATOM      2  F   UNL     1       1.429 -23.431 -31.990  0.00  0.00    -0.166 F 
ATOM      3  F   UNL     1       1.497 -23.166 -29.855  0.00  0.00    -0.166 F 
ATOM      4  F   UNL     1       0.558 -21.636 -31.146  0.00  0.00    -0.166 F 
ENDBRANCH   5   1
BRANCH  30  31
ATOM     31  C   UNL     1       6.111 -21.954 -33.282  0.00  0.00    +0.119 C 
BRANCH  31  32
ATOM     32  N   UNL     1       7.419 -21.994 -32.668  0.00  0.00    -0.296 NA
ATOM     33  C   UNL     1       8.440 -22.348 -33.616  0.00  0.00    +0.100 C 
ATOM     34  C   UNL     1       9.821 -22.276 -32.978  0.00  0.00    +0.099 C 
ATOM     35  N   UNL     1       9.863 -23.061 -31.730  0.00  0.00    -0.303 NA
ATOM     36  C   UNL     1       8.841 -22.676 -30.819  0.00  0.00    +0.099 C 
ATOM     37  C   UNL     1      11.151 -22.962 -31.128  0.00  0.00    +0.105 C 
ATOM     38  C   UNL     1       7.491 -22.806 -31.516  0.00  0.00    +0.100 C 
ENDBRANCH  31  32
ENDBRANCH  30  31
ENDBRANCH   8   7
TORSDOF 6
