REMARK  Name = 3DZQ
REMARK  8 active torsions:
REMARK  status: ('A' for Active; 'I' for Inactive)
REMARK    1  A    between atoms: C_1  and  C_2
REMARK    2  A    between atoms: N_6  and  C_7
REMARK    3  A    between atoms: C_10  and  C_11
REMARK    4  A    between atoms: C_16  and  C_17
REMARK    5  A    between atoms: N_19  and  C_20
REMARK    6  A    between atoms: C_24  and  C_25
REMARK    7  A    between atoms: C_26  and  N_27
REMARK    8  A    between atoms: C_28  and  C_30
REMARK                            x       y       z     vdW  Elec       q    Type
REMARK                         _______ _______ _______ _____ _____    ______ ____
ROOT
ATOM     11  C   UNL     1      -7.885  14.111  52.882  0.00  0.00    +0.248 C 
ATOM     12  N   UNL     1      -9.235  13.960  52.919  0.00  0.00    -0.281 N 
ATOM     13  H   UNL     1      -9.804  14.696  53.448  0.00  0.00    +0.155 HD
ATOM     30  O   UNL     1      -7.093  13.286  52.444  0.00  0.00    -0.270 OA
ENDROOT
BRANCH  12  14
ATOM     14  C   UNL     1      -9.918  12.932  52.327  0.00  0.00    +0.035 A 
ATOM     15  C   UNL     1     -11.301  13.125  52.258  0.00  0.00    +0.024 A 
ATOM     16  C   UNL     1     -12.118  12.205  51.601  0.00  0.00    +0.007 A 
ATOM     17  C   UNL     1     -11.582  11.072  51.012  0.00  0.00    -0.029 A 
ATOM     18  C   UNL     1     -10.190  10.866  51.018  0.00  0.00    +0.038 A 
ATOM     28  C   UNL     1     -12.567  10.131  50.274  0.00  0.00    +0.045 C 
ATOM     29  C   UNL     1      -9.350  11.832  51.673  0.00  0.00    +0.047 A 
BRANCH  18  19
ATOM     19  N   UNL     1      -9.706   9.750  50.366  0.00  0.00    -0.279 N 
ATOM     20  H   UNL     1      -9.376   9.834  49.352  0.00  0.00    +0.155 HD
ATOM     21  C   UNL     1      -9.643   8.552  50.991  0.00  0.00    +0.286 C 
ATOM     27  O   UNL     1      -9.992   8.331  52.151  0.00  0.00    -0.266 OA
BRANCH  21  22
ATOM     22  C   UNL     1      -9.122   7.404  50.140  0.00  0.00    +0.222 A 
ATOM     23  O   UNL     1      -8.795   7.566  48.855  0.00  0.00    -0.350 OA
ATOM     24  N   UNL     1      -8.379   6.191  48.460  0.00  0.00    -0.086 NA
ATOM     25  C   UNL     1      -8.497   5.405  49.535  0.00  0.00    +0.157 A 
ATOM     26  C   UNL     1      -8.976   6.138  50.551  0.00  0.00    +0.077 A 
ENDBRANCH  21  22
ENDBRANCH  18  19
ENDBRANCH  12  14
BRANCH  11  10
ATOM      6  C   UNL     1      -7.366  17.334  54.893  0.00  0.00    +0.049 A 
ATOM      7  C   UNL     1      -6.194  17.854  54.316  0.00  0.00    +0.038 A 
ATOM      8  C   UNL     1      -5.571  17.151  53.277  0.00  0.00    +0.058 A 
ATOM      9  C   UNL     1      -6.131  15.935  52.821  0.00  0.00    +0.025 A 
ATOM     10  C   UNL     1      -7.306  15.419  53.435  0.00  0.00    +0.040 A 
ATOM     35  C   UNL     1      -7.929  16.129  54.442  0.00  0.00    +0.039 A 
BRANCH   6   5
ATOM      1  C   UNL     1      -9.924  18.275  58.991  0.00  0.00    +0.067 C 
ATOM      2  C   UNL     1      -9.158  18.417  57.655  0.00  0.00    +0.056 A 
ATOM      3  N   UNL     1      -8.906  19.583  57.047  0.00  0.00    -0.241 NA
ATOM      4  C   UNL     1      -8.204  19.312  55.935  0.00  0.00    +0.204 A 
ATOM      5  N   UNL     1      -8.009  17.984  55.883  0.00  0.00    -0.305 N 
ATOM     36  C   UNL     1      -8.610  17.423  56.958  0.00  0.00    +0.115 A 
ENDBRANCH   6   5
BRANCH   8  31
ATOM     31  C   UNL     1      -4.260  17.690  52.693  0.00  0.00    +0.417 C 
ATOM     32  F   UNL     1      -4.246  18.938  52.481  0.00  0.00    -0.166 F 
ATOM     33  F   UNL     1      -3.899  16.985  51.661  0.00  0.00    -0.166 F 
ATOM     34  F   UNL     1      -3.285  17.628  53.545  0.00  0.00    -0.166 F 
ENDBRANCH   8  31
ENDBRANCH  11  10
TORSDOF 6
