REMARK  Name = 3e7o_ligand
REMARK  4 active torsions:
REMARK  status: ('A' for Active; 'I' for Inactive)
REMARK    1  A    between atoms: C10_4  and  C9_20
REMARK    2  A    between atoms: C17_7  and  C1_25
REMARK    3  A    between atoms: C22_9  and  C24_10
REMARK    4  A    between atoms: N16_16  and  C12_17
REMARK                            x       y       z     vdW  Elec       q    Type
REMARK                         _______ _______ _______ _____ _____    ______ ____
ROOT
ATOM      1  C   UNL     1     -27.982 -32.405  24.393  0.00  0.00    +0.021 A 
ATOM      2  C   UNL     1     -26.730 -31.881  24.692  0.00  0.00    +0.027 A 
ATOM      3  C   UNL     1     -26.171 -30.873  23.910  0.00  0.00    +0.009 A 
ATOM      4  C   UNL     1     -26.858 -30.371  22.814  0.00  0.00    +0.027 A 
ATOM      5  C   UNL     1     -28.114 -30.884  22.509  0.00  0.00    +0.094 A 
ATOM      6  N   UNL     1     -28.982 -30.598  21.531  0.00  0.00    -0.209 N 
ATOM      7  H   UNL     1     -28.852 -29.890  20.794  0.00  0.00    +0.249 HD
ATOM      8  N   UNL     1     -30.092 -31.425  21.684  0.00  0.00    -0.195 NA
ATOM      9  C   UNL     1     -29.900 -32.226  22.758  0.00  0.00    +0.064 A 
ATOM     31  C   UNL     1     -28.662 -31.894  23.291  0.00  0.00    +0.024 A 
ENDROOT
BRANCH   9  10
ATOM     10  C   UNL     1     -30.905 -33.219  23.257  0.00  0.00    -0.022 A 
ATOM     11  C   UNL     1     -32.236 -32.937  22.961  0.00  0.00    +0.014 A 
ATOM     12  C   UNL     1     -33.260 -33.767  23.399  0.00  0.00    +0.065 A 
ATOM     22  C   UNL     1     -32.945 -34.908  24.143  0.00  0.00    +0.008 A 
ATOM     23  C   UNL     1     -31.611 -35.193  24.453  0.00  0.00    -0.018 A 
ATOM     24  C   UNL     1     -30.589 -34.350  24.015  0.00  0.00    -0.021 A 
BRANCH  12  13
ATOM     13  N   UNL     1     -34.529 -33.425  23.047  0.00  0.00    -0.234 N 
ATOM     14  H   UNL     1     -34.661 -33.043  22.133  0.00  0.00    +0.225 HD
ATOM     15  C   UNL     1     -35.619 -33.556  23.820  0.00  0.00    +0.256 C 
ATOM     16  O   UNL     1     -35.625 -34.121  24.911  0.00  0.00    -0.379 OA
BRANCH  15  17
ATOM     17  C   UNL     1     -36.768 -33.056  23.366  0.00  0.00    +0.190 A 
ATOM     18  C   UNL     1     -36.958 -32.340  22.252  0.00  0.00    +0.000 A 
ATOM     19  C   UNL     1     -38.187 -32.034  22.141  0.00  0.00    -0.019 A 
ATOM     20  C   UNL     1     -38.911 -32.473  23.082  0.00  0.00    +0.191 A 
ATOM     21  O   UNL     1     -38.051 -33.205  23.992  0.00  0.00    -0.250 OA
ENDBRANCH  15  17
ENDBRANCH  12  13
ENDBRANCH   9  10
BRANCH   2  25
ATOM     25  C   UNL     1     -25.947 -32.387  25.851  0.00  0.00    +0.156 A 
ATOM     26  N   UNL     1     -24.722 -31.939  26.212  0.00  0.00    -0.192 N 
ATOM     27  H   UNL     1     -24.175 -31.202  25.745  0.00  0.00    +0.258 HD
ATOM     28  N   UNL     1     -24.341 -32.673  27.347  0.00  0.00    -0.195 NA
ATOM     29  C   UNL     1     -25.351 -33.534  27.625  0.00  0.00    +0.145 A 
ATOM     30  N   UNL     1     -26.327 -33.364  26.705  0.00  0.00    -0.289 NA
ENDBRANCH   2  25
TORSDOF 4
