REMARK  Name = 5MQJ
REMARK  8 active torsions:
REMARK  status: ('A' for Active; 'I' for Inactive)
REMARK    1  A    between atoms: N_1  and  C_9
REMARK    2  A    between atoms: C_10  and  O_11
REMARK    3  A    between atoms: C_12  and  O_15
REMARK    4  A    between atoms: C_13  and  C_16
REMARK    5  A    between atoms: C_16  and  O_17
REMARK    6  A    between atoms: O_17  and  P_18
REMARK    7  A    between atoms: P_18  and  O_21
REMARK    8  A    between atoms: O_21  and  P_22
REMARK                            x       y       z     vdW  Elec       q    Type
REMARK                         _______ _______ _______ _____ _____    ______ ____
ROOT
ATOM      2  C   UNL     1     -60.184  58.702 365.740  0.00  0.00    +0.255 C 
ATOM      3  O   UNL     1     -61.356  58.557 366.516  0.00  0.00    -0.346 OA
ATOM      4  C   UNL     1     -62.398  57.940 365.726  0.00  0.00    +0.178 C 
ATOM     15  C   UNL     1     -61.796  57.681 364.344  0.00  0.00    +0.178 C 
ATOM     18  C   UNL     1     -60.291  57.666 364.624  0.00  0.00    +0.195 C 
ENDROOT
BRANCH   2   1
ATOM      1  N   UNL     1     -59.003  58.544 366.621  0.00  0.00    -0.272 N 
ATOM     21  C   UNL     1     -58.867  57.433 367.440  0.00  0.00    +0.098 C 
ATOM     22  C   UNL     1     -57.829  57.290 368.289  0.00  0.00    +0.088 C 
ATOM     23  C   UNL     1     -56.822  58.312 368.365  0.00  0.00    +0.254 C 
ATOM     24  O   UNL     1     -55.857  58.320 369.142  0.00  0.00    -0.268 OA
ATOM     25  N   UNL     1     -57.012  59.376 367.503  0.00  0.00    -0.275 N 
ATOM     26  H   UNL     1     -56.267  60.144 367.523  0.00  0.00    +0.173 HD
ATOM     27  C   UNL     1     -58.056  59.555 366.621  0.00  0.00    +0.331 C 
ATOM     28  O   UNL     1     -58.115  60.532 365.887  0.00  0.00    -0.246 OA
ENDBRANCH   2   1
BRANCH  15  16
ATOM     16  O   UNL     1     -62.204  58.660 363.391  0.00  0.00    -0.386 OA
ATOM     17  H   UNL     1     -61.946  59.617 363.739  0.00  0.00    +0.210 HD
ENDBRANCH  15  16
BRANCH  18  19
ATOM     19  O   UNL     1     -59.530  58.052 363.489  0.00  0.00    -0.385 OA
ATOM     20  H   UNL     1     -59.883  58.972 363.126  0.00  0.00    +0.210 HD
ENDBRANCH  18  19
BRANCH   4   5
ATOM      5  C   UNL     1     -62.943  56.726 366.443  0.00  0.00    +0.202 C 
BRANCH   5   6
ATOM      6  O   UNL     1     -61.972  55.655 366.458  0.00  0.00    -0.325 OA
BRANCH   6   7
ATOM      7  P   UNL     1     -62.332  54.121 366.246  0.00  0.00    +0.215 P 
ATOM     13  O   UNL     1     -61.079  53.270 366.101  0.00  0.00    -0.437 OA
ATOM     14  O   UNL     1     -63.277  53.831 365.144  0.00  0.00    -0.517 OA
BRANCH   7   8
ATOM      8  O   UNL     1     -63.026  53.684 367.605  0.00  0.00    -0.314 OA
BRANCH   8   9
ATOM      9  P   UNL     1     -63.902  52.391 367.891  0.00  0.00    -0.007 P 
ATOM     10  O   UNL     1     -63.666  52.111 369.373  0.00  0.00    -0.577 OA
ATOM     11  O   UNL     1     -65.284  52.664 367.545  0.00  0.00    -0.637 OA
ATOM     12  O   UNL     1     -63.333  51.285 367.021  0.00  0.00    -0.577 OA
ENDBRANCH   8   9
ENDBRANCH   7   8
ENDBRANCH   6   7
ENDBRANCH   5   6
ENDBRANCH   4   5
TORSDOF 8
