REMARK  Name = 3b8q_ligand
REMARK  8 active torsions:
REMARK  status: ('A' for Active; 'I' for Inactive)
REMARK    1  A    between atoms: C1_1  and  O17_11
REMARK    2  A    between atoms: C13_10  and  C42_26
REMARK    3  A    between atoms: O17_11  and  C18_12
REMARK    4  A    between atoms: C27_19  and  O32_22
REMARK    5  A    between atoms: C28_20  and  O37_24
REMARK    6  A    between atoms: O32_22  and  C33_23
REMARK    7  A    between atoms: O37_24  and  C38_25
REMARK    8  A    between atoms: N43_27  and  C44_28
REMARK                            x       y       z     vdW  Elec       q    Type
REMARK                         _______ _______ _______ _____ _____    ______ ____
ROOT
ATOM      1  C   UNL     1      38.164  30.898  14.408  0.00  0.00    +0.124 A 
ATOM     17  C   UNL     1      38.981  32.069  14.313  0.00  0.00    +0.040 A 
ATOM     18  C   UNL     1      38.452  33.289  13.811  0.00  0.00    +0.008 A 
ATOM     19  C   UNL     1      37.058  33.386  13.392  0.00  0.00    -0.006 A 
ATOM     20  C   UNL     1      36.457  34.610  12.823  0.00  0.00    +0.058 A 
ATOM     32  C   UNL     1      35.069  34.578  12.451  0.00  0.00    +0.022 A 
ATOM     33  C   UNL     1      34.285  33.402  12.611  0.00  0.00    +0.005 A 
ATOM     34  C   UNL     1      34.862  32.213  13.134  0.00  0.00    +0.010 A 
ATOM     35  C   UNL     1      36.229  32.187  13.517  0.00  0.00    -0.021 A 
ATOM     36  C   UNL     1      36.789  30.968  14.022  0.00  0.00    +0.032 A 
ENDROOT
BRANCH  20  21
ATOM     21  C   UNL     1      37.243  35.854  12.590  0.00  0.00    +0.231 C 
ATOM     22  O   UNL     1      38.451  35.819  12.466  0.00  0.00    -0.374 OA
ATOM     23  N   UNL     1      36.556  37.023  12.453  0.00  0.00    -0.233 N 
ATOM     24  H   UNL     1      35.562  36.983  12.549  0.00  0.00    +0.225 HD
BRANCH  23  25
ATOM     25  C   UNL     1      37.119  38.265  12.191  0.00  0.00    +0.066 A 
ATOM     26  C   UNL     1      38.030  38.425  11.066  0.00  0.00    +0.010 A 
ATOM     27  C   UNL     1      38.622  39.682  10.780  0.00  0.00    -0.003 A 
ATOM     28  C   UNL     1      38.301  40.766  11.616  0.00  0.00    +0.024 A 
ATOM     29 CL   UNL     1      39.014  42.298  11.295  0.00  0.00    -0.085 Cl
ATOM     30  C   UNL     1      37.404  40.630  12.727  0.00  0.00    -0.003 A 
ATOM     31  C   UNL     1      36.821  39.375  13.002  0.00  0.00    +0.010 A 
ENDBRANCH  23  25
ENDBRANCH  20  21
BRANCH   1   2
ATOM      2  O   UNL     1      38.646  29.654  14.849  0.00  0.00    -0.244 OA
BRANCH   2   3
ATOM      3  C   UNL     1      39.301  28.899  13.841  0.00  0.00    +0.139 A 
ATOM      4  C   UNL     1      39.205  29.168  12.484  0.00  0.00    +0.047 A 
ATOM      5  C   UNL     1      39.898  28.341  11.574  0.00  0.00    +0.064 A 
ATOM      6  N   UNL     1      40.663  27.281  11.961  0.00  0.00    -0.328 NA
ATOM      7  C   UNL     1      40.801  26.973  13.297  0.00  0.00    +0.018 A 
ATOM      8  C   UNL     1      41.593  25.880  13.769  0.00  0.00    +0.027 A 
ATOM      9  C   UNL     1      41.696  25.614  15.163  0.00  0.00    +0.129 A 
ATOM     12  C   UNL     1      40.974  26.431  16.054  0.00  0.00    +0.128 A 
ATOM     15  C   UNL     1      40.209  27.499  15.589  0.00  0.00    +0.030 A 
ATOM     16  C   UNL     1      40.094  27.788  14.235  0.00  0.00    +0.028 A 
BRANCH   9  10
ATOM     10  O   UNL     1      42.465  24.567  15.707  0.00  0.00    -0.318 OA
ATOM     11  C   UNL     1      43.711  24.960  16.300  0.00  0.00    +0.233 C 
ENDBRANCH   9  10
BRANCH  12  13
ATOM     13  O   UNL     1      40.948  26.287  17.444  0.00  0.00    -0.321 OA
ATOM     14  C   UNL     1      41.972  26.880  18.198  0.00  0.00    +0.231 C 
ENDBRANCH  12  13
ENDBRANCH   2   3
ENDBRANCH   1   2
TORSDOF 6
