REMARK  Name = 2bpm_ligand
REMARK  6 active torsions:
REMARK  status: ('A' for Active; 'I' for Inactive)
REMARK    1  A    between atoms: N1_1  and  C21_21
REMARK    2  A    between atoms: C8_8  and  N14_14
REMARK    3  A    between atoms: C10_10  and  C11_11
REMARK    4  A    between atoms: C15_15  and  C16_16
REMARK    5  A    between atoms: C16_16  and  C18_18
REMARK    6  A    between atoms: C16_16  and  C25_25
REMARK                            x       y       z     vdW  Elec       q    Type
REMARK                         _______ _______ _______ _____ _____    ______ ____
ROOT
ATOM      7  C   UNL     1      -7.865 206.049 112.861  0.00  0.00    +0.146 C 
ATOM      8  C   UNL     1      -8.095 206.986 114.085  0.00  0.00    +0.045 C 
ENDROOT
BRANCH   7   5
ATOM      2  C   UNL     1      -4.290 203.503 113.223  0.00  0.00    +0.063 A 
ATOM      3  C   UNL     1      -5.114 203.767 114.374  0.00  0.00    +0.002 A 
ATOM      4  C   UNL     1      -6.254 204.575 114.281  0.00  0.00    -0.018 A 
ATOM      5  C   UNL     1      -6.622 205.156 113.026  0.00  0.00    -0.036 A 
ATOM      6  C   UNL     1      -5.822 204.910 111.875  0.00  0.00    -0.018 A 
ATOM     22  C   UNL     1      -4.679 204.101 111.972  0.00  0.00    +0.002 A 
BRANCH   2   1
ATOM      1  N   UNL     1      -3.063 202.626 113.350  0.00  0.00    -0.207 N 
ATOM     23  C   UNL     1      -2.162 202.261 112.403  0.00  0.00    +0.288 C 
ATOM     24  O   UNL     1      -2.158 202.584 111.201  0.00  0.00    -0.391 OA
ATOM     25  N   UNL     1      -1.223 201.486 112.879  0.00  0.00    -0.266 N 
ATOM     26  H   UNL     1      -0.475 201.120 112.325  0.00  0.00    +0.185 HD
ATOM     27  C   UNL     1      -1.380 201.211 114.300  0.00  0.00    +0.165 C 
ATOM     28  C   UNL     1      -2.654 201.998 114.635  0.00  0.00    +0.195 C 
ENDBRANCH   2   1
ENDBRANCH   7   5
BRANCH   7   9
ATOM      9  C   UNL     1      -9.135 205.203 112.603  0.00  0.00    +0.221 C 
ATOM     10  O   UNL     1      -9.649 204.532 113.513  0.00  0.00    -0.381 OA
ATOM     11  N   UNL     1      -9.638 205.281 111.359  0.00  0.00    -0.205 N 
ATOM     12  H   UNL     1      -9.097 205.843 110.734  0.00  0.00    +0.233 HD
BRANCH  11  13
ATOM     13  C   UNL     1     -10.818 204.701 110.759  0.00  0.00    +0.174 A 
ATOM     14  C   UNL     1     -11.787 203.895 111.353  0.00  0.00    -0.019 A 
ATOM     15  C   UNL     1     -12.715 203.632 110.374  0.00  0.00    -0.016 A 
ATOM     19  N   UNL     1     -12.296 204.266 109.225  0.00  0.00    -0.260 NA
ATOM     20  N   UNL     1     -11.148 204.915 109.451  0.00  0.00    -0.215 N 
ATOM     21  H   UNL     1     -10.614 205.471 108.768  0.00  0.00    +0.243 HD
BRANCH  15  16
ATOM     16  C   UNL     1     -14.002 202.803 110.492  0.00  0.00    +0.034 C 
ATOM     17  C   UNL     1     -15.229 203.003 111.322  0.00  0.00    +0.018 C 
ATOM     18  C   UNL     1     -14.160 201.988 111.790  0.00  0.00    +0.018 C 
ENDBRANCH  15  16
ENDBRANCH  11  13
ENDBRANCH   7   9
TORSDOF 5
