REMARK  Name = 4UJ9
REMARK  4 active torsions:
REMARK  status: ('A' for Active; 'I' for Inactive)
REMARK    1  A    between atoms: C_2  and  C_5
REMARK    2  A    between atoms: C_8  and  C_11
REMARK    3  A    between atoms: C_11  and  C_13
REMARK    4  A    between atoms: C_17  and  C_18
REMARK                            x       y       z     vdW  Elec       q    Type
REMARK                         _______ _______ _______ _____ _____    ______ ____
ROOT
ATOM      8  C   UNL     1      25.654   9.406  -2.494  0.00  0.00    +0.083 C 
ATOM      9  C   UNL     1      26.535   9.128  -3.657  0.00  0.00    +0.044 C 
ATOM     22  C   UNL     1      26.493   7.601  -3.695  0.00  0.00    +0.089 C 
ATOM     23  N   UNL     1      25.207   7.181  -3.069  0.00  0.00    -0.315 NA
ATOM     24  H   UNL     1      24.623   6.679  -3.612  0.00  0.00    +0.122 HD
ATOM     25  C   UNL     1      24.533   8.401  -2.637  0.00  0.00    +0.093 C 
ENDROOT
BRANCH   9  10
ATOM     10  C   UNL     1      28.001   9.374  -3.667  0.00  0.00    -0.040 A 
ATOM     11  C   UNL     1      28.697   9.626  -4.872  0.00  0.00    +0.005 A 
ATOM     12  C   UNL     1      30.087   9.819  -4.833  0.00  0.00    +0.016 A 
ATOM     13  C   UNL     1      30.809   9.780  -3.584  0.00  0.00    +0.065 A 
ATOM     14  C   UNL     1      32.298   9.980  -3.563  0.00  0.00    +0.259 C 
ATOM     15  N   UNL     1      32.934   9.937  -2.304  0.00  0.00    -0.313 N 
ATOM     16  H   UNL     1      33.830  10.069  -2.259  0.00  0.00    +0.170 HD
ATOM     17  C   UNL     1      32.204   9.716  -1.094  0.00  0.00    +0.199 C 
ATOM     18  N   UNL     1      30.774   9.534  -1.117  0.00  0.00    -0.237 NA
ATOM     19  O   UNL     1      32.917  10.146  -4.596  0.00  0.00    -0.267 OA
ATOM     20  C   UNL     1      30.123   9.547  -2.419  0.00  0.00    +0.078 A 
ATOM     21  C   UNL     1      28.714   9.350  -2.465  0.00  0.00    +0.032 A 
ENDBRANCH   9  10
BRANCH   8   7
ATOM      7  C   UNL     1      25.191  10.815  -2.679  0.00  0.00    +0.168 C 
ATOM     26  O   UNL     1      25.535  11.417  -3.705  0.00  0.00    -0.292 OA
BRANCH   7   6
ATOM      3  C   UNL     1      22.775  12.709   0.329  0.00  0.00    +0.055 A 
ATOM      4  C   UNL     1      23.224  11.407   0.495  0.00  0.00    +0.013 A 
ATOM      5  C   UNL     1      24.015  10.794  -0.505  0.00  0.00    +0.012 A 
ATOM      6  C   UNL     1      24.332  11.516  -1.640  0.00  0.00    +0.018 A 
ATOM     27  C   UNL     1      23.867  12.826  -1.824  0.00  0.00    +0.012 A 
ATOM     28  C   UNL     1      23.095  13.430  -0.823  0.00  0.00    +0.013 A 
BRANCH   3   2
ATOM      1  F   UNL     1      20.756  12.912   1.436  0.00  0.00    -0.166 F 
ATOM      2  C   UNL     1      21.970  13.368   1.389  0.00  0.00    +0.417 C 
ATOM     29  F   UNL     1      22.025  14.660   1.266  0.00  0.00    -0.166 F 
ATOM     30  F   UNL     1      22.406  13.152   2.597  0.00  0.00    -0.166 F 
ENDBRANCH   3   2
ENDBRANCH   7   6
ENDBRANCH   8   7
TORSDOF 4
