REMARK  Name = 5TTS
REMARK  3 active torsions:
REMARK  status: ('A' for Active; 'I' for Inactive)
REMARK    1  A    between atoms: N_3  and  C_4
REMARK    2  A    between atoms: C_10  and  C_11
REMARK    3  A    between atoms: C_11  and  C_12
REMARK                            x       y       z     vdW  Elec       q    Type
REMARK                         _______ _______ _______ _____ _____    ______ ____
ROOT
ATOM      1  N   UNL     1       1.381  12.106  -3.539  0.00  0.00    -0.237 NA
ATOM      2  C   UNL     1       0.150  11.700  -4.005  0.00  0.00    +0.114 A 
ATOM      3  C   UNL     1      -0.617  12.781  -4.304  0.00  0.00    +0.035 A 
ATOM      4  C   UNL     1       0.174  13.941  -3.995  0.00  0.00    +0.062 A 
ATOM      5  C   UNL     1       0.104  15.372  -4.023  0.00  0.00    +0.161 A 
ATOM      6  N   UNL     1       1.108  16.175  -3.602  0.00  0.00    -0.218 NA
ATOM      7  C   UNL     1       2.210  15.555  -3.162  0.00  0.00    +0.200 A 
ATOM      8  N   UNL     1       2.454  14.242  -3.084  0.00  0.00    -0.330 N 
ATOM      9  H   UNL     1       3.377  13.841  -2.720  0.00  0.00    +0.168 HD
ATOM     10  N   UNL     1      -0.973  15.965  -4.580  0.00  0.00    -0.260 NA
ATOM     21  C   UNL     1       1.432  13.470  -3.506  0.00  0.00    +0.143 A 
ENDROOT
BRANCH  10  11
ATOM     11  C   UNL     1      -1.285  17.380  -4.733  0.00  0.00    +0.125 C 
ATOM     12  C   UNL     1      -0.578  17.934  -5.962  0.00  0.00    +0.134 C 
ATOM     13  N   UNL     1      -0.914  19.347  -6.151  0.00  0.00    -0.299 N 
ATOM     14  C   UNL     1      -0.004  20.352  -6.115  0.00  0.00    +0.215 C 
ATOM     15  O   UNL     1       1.154  20.166  -5.766  0.00  0.00    -0.276 OA
ATOM     18  C   UNL     1      -2.354  19.508  -6.398  0.00  0.00    +0.108 C 
ATOM     19  C   UNL     1      -3.141  19.031  -5.184  0.00  0.00    +0.021 C 
ATOM     20  C   UNL     1      -2.793  17.577  -4.847  0.00  0.00    +0.030 C 
BRANCH  14  16
ATOM     16  C   UNL     1      -0.455  21.746  -6.494  0.00  0.00    +0.092 C 
ATOM     17  C   UNL     1      -0.334  21.960  -7.991  0.00  0.00    +0.013 C 
ENDBRANCH  14  16
ENDBRANCH  10  11
TORSDOF 2
