REMARK  Name = 6Q4I
REMARK  4 active torsions:
REMARK  status: ('A' for Active; 'I' for Inactive)
REMARK    1  A    between atoms: C6_3  and  O3_17
REMARK    2  A    between atoms: C7_5  and  O3_17
REMARK    3  A    between atoms: C3_12  and  C2_16
REMARK    4  A    between atoms: C1_14  and  C2_16
REMARK                            x       y       z     vdW  Elec       q    Type
REMARK                         _______ _______ _______ _____ _____    ______ ____
ROOT
ATOM      1  C   UNL     1      -0.702  -7.872 -23.171  0.00  0.00    -0.130 A 
ATOM      2  C   UNL     1      -1.127  -9.181 -23.299  0.00  0.00    +0.000 A 
ATOM      7  C   UNL     1      -1.380  -9.672 -24.559  0.00  0.00    -0.130 A 
ATOM      8  C   UNL     1      -1.340  -8.842 -25.655  0.00  0.00    -0.130 A 
ATOM      9  C   UNL     1      -0.980  -7.535 -25.481  0.00  0.00    +0.185 A 
ATOM     18  C   UNL     1      -0.720  -7.024 -24.250  0.00  0.00    -0.130 A 
ENDROOT
BRANCH   2   3
ATOM      3  C   UNL     1      -1.168 -10.079 -22.098  0.00  0.00    -0.100 C 
BRANCH   3   4
ATOM      4  C   UNL     1      -2.434 -10.006 -21.268  0.00  0.00    +0.200 C 
ATOM      5  O   UNL     1      -3.355  -9.224 -21.593  0.00  0.00    -0.600 OA
ATOM      6  O   UNL     1      -2.528 -10.784 -20.321  0.00  0.00    -0.600 OA
ENDBRANCH   3   4
ENDBRANCH   2   3
BRANCH   9  10
ATOM     10  O   UNL     1      -1.041  -6.702 -26.592  0.00  0.00    -0.185 OA
BRANCH  10  11
ATOM     11  C   UNL     1       0.124  -6.237 -27.127  0.00  0.00    +0.000 A 
ATOM     12  C   UNL     1       1.299  -6.961 -27.098  0.00  0.00    -0.100 A 
ATOM     13  C   UNL     1       2.380  -6.458 -27.740  0.00  0.00    -0.100 A 
ATOM     14  N   UNL     1       2.308  -5.269 -28.375  0.00  0.00    -0.300 NA
ATOM     15  C   UNL     1       1.184  -4.496 -28.394  0.00  0.00    +0.600 A 
ATOM     16  O   UNL     1       1.218  -3.422 -29.003  0.00  0.00    -0.550 OA
ATOM     17  C   UNL     1       0.035  -5.057 -27.812  0.00  0.00    -0.100 A 
ENDBRANCH  10  11
ENDBRANCH   9  10
TORSDOF 4
