REMARK  Name = 3Q9X
REMARK  4 active torsions:
REMARK  status: ('A' for Active; 'I' for Inactive)
REMARK    1  A    between atoms: C_1  and  O_2
REMARK    2  A    between atoms: C_4  and  O_5
REMARK    3  A    between atoms: C_12  and  C_13
REMARK    4  A    between atoms: C_15  and  O_16
REMARK                            x       y       z     vdW  Elec       q    Type
REMARK                         _______ _______ _______ _____ _____    ______ ____
ROOT
ATOM      1  C   UNL     1      -5.128  45.709  22.674  0.00  0.00    +0.132 A 
ATOM      2  C   UNL     1      -4.863  46.214  23.947  0.00  0.00    +0.075 A 
ATOM      3  C   UNL     1      -5.640  45.770  25.048  0.00  0.00    +0.202 C 
ATOM      4  O   UNL     1      -6.542  44.904  24.801  0.00  0.00    -0.286 OA
ATOM      5  C   UNL     1      -5.396  46.278  26.359  0.00  0.00    +0.074 A 
ATOM      6  C   UNL     1      -6.192  45.885  27.481  0.00  0.00    +0.129 A 
ATOM      9  C   UNL     1      -5.942  46.402  28.753  0.00  0.00    +0.049 A 
ATOM     10  C   UNL     1      -4.906  47.351  28.932  0.00  0.00    -0.046 A 
ATOM     11  C   UNL     1      -4.641  47.892  30.339  0.00  0.00    +0.044 C 
ATOM     12  C   UNL     1      -4.116  47.786  27.809  0.00  0.00    +0.016 A 
ATOM     13  C   UNL     1      -4.375  47.240  26.538  0.00  0.00    +0.037 A 
ATOM     14  C   UNL     1      -3.591  47.674  25.462  0.00  0.00    +0.195 C 
ATOM     15  O   UNL     1      -2.665  48.510  25.692  0.00  0.00    -0.287 OA
ATOM     16  C   UNL     1      -3.841  47.166  24.157  0.00  0.00    +0.040 A 
ATOM     17  C   UNL     1      -3.071  47.562  23.032  0.00  0.00    +0.058 A 
ATOM     18  C   UNL     1      -3.337  47.016  21.755  0.00  0.00    +0.121 A 
ATOM     21  C   UNL     1      -4.363  46.096  21.551  0.00  0.00    +0.091 A 
ENDROOT
BRANCH   6   7
ATOM      7  O   UNL     1      -7.204  44.965  27.386  0.00  0.00    -0.506 OA
ATOM      8  H   UNL     1      -6.984  44.138  27.995  0.00  0.00    +0.292 HD
ENDBRANCH   6   7
BRANCH  18  19
ATOM     19  O   UNL     1      -2.583  47.411  20.725  0.00  0.00    -0.507 OA
ATOM     20  H   UNL     1      -2.099  46.579  20.305  0.00  0.00    +0.292 HD
ENDBRANCH  18  19
BRANCH   1  22
ATOM     22  O   UNL     1      -6.166  44.837  22.521  0.00  0.00    -0.506 OA
ATOM     23  H   UNL     1      -6.872  45.246  21.860  0.00  0.00    +0.292 HD
ENDBRANCH   1  22
TORSDOF 3
