REMARK  Name = 5EYC
REMARK  4 active torsions:
REMARK  status: ('A' for Active; 'I' for Inactive)
REMARK    1  A    between atoms: C_1  and  C_2
REMARK    2  A    between atoms: C_16  and  C_17
REMARK    3  A    between atoms: C_17  and  C_18
REMARK    4  A    between atoms: C_17  and  N_19
REMARK                            x       y       z     vdW  Elec       q    Type
REMARK                         _______ _______ _______ _____ _____    ______ ____
ROOT
ATOM      1  C   UNL     1      28.289  32.028  60.682  0.00  0.00    +0.066 C 
ATOM      2  C   UNL     1      27.050  31.874  59.801  0.00  0.00    +0.050 A 
ATOM      3  N   UNL     1      26.609  32.829  58.983  0.00  0.00    -0.226 N 
ATOM      4  H   UNL     1      27.041  33.796  58.834  0.00  0.00    +0.207 HD
ATOM      5  O   UNL     1      25.459  32.311  58.352  0.00  0.00    -0.380 OA
ATOM      6  C   UNL     1      25.288  31.041  58.872  0.00  0.00    +0.163 A 
ATOM      7  C   UNL     1      24.267  30.201  58.431  0.00  0.00    +0.020 C 
ATOM      8  C   UNL     1      23.392  30.654  57.439  0.00  0.00    +0.164 C 
ATOM      9  N   UNL     1      22.404  29.785  56.976  0.00  0.00    -0.303 N 
ATOM     10  C   UNL     1      21.403  29.891  56.041  0.00  0.00    +0.157 A 
ATOM     24  N   UNL     1      20.737  28.738  55.983  0.00  0.00    -0.132 NA
ATOM     25  N   UNL     1      21.248  27.931  56.794  0.00  0.00    -0.127 NA
ATOM     26  C   UNL     1      22.274  28.489  57.442  0.00  0.00    +0.193 A 
ATOM     27  C   UNL     1      23.144  28.035  58.424  0.00  0.00    +0.168 C 
ATOM     28  F   UNL     1      22.996  26.764  58.874  0.00  0.00    -0.202 F 
ATOM     29  C   UNL     1      24.139  28.887  58.903  0.00  0.00    +0.051 C 
ATOM     30  C   UNL     1      26.284  30.779  59.733  0.00  0.00    +0.073 A 
ENDROOT
BRANCH  10  11
ATOM     11  C   UNL     1      21.137  31.154  55.243  0.00  0.00    +0.155 C 
ATOM     23  C   UNL     1      20.255  30.773  54.029  0.00  0.00    +0.039 C 
BRANCH  11  12
ATOM     12  N   UNL     1      20.433  32.085  56.152  0.00  0.00    -0.304 N 
ATOM     13  C   UNL     1      21.032  33.255  56.632  0.00  0.00    +0.261 C 
ATOM     14  O   UNL     1      22.183  33.545  56.307  0.00  0.00    -0.267 OA
ATOM     15  C   UNL     1      20.312  34.093  57.492  0.00  0.00    +0.065 A 
ATOM     16  C   UNL     1      20.879  35.260  57.972  0.00  0.00    +0.017 A 
ATOM     17  C   UNL     1      20.129  36.066  58.825  0.00  0.00    +0.020 A 
ATOM     18  C   UNL     1      18.839  35.684  59.175  0.00  0.00    +0.111 A 
ATOM     19  N   UNL     1      18.309  34.560  58.708  0.00  0.00    -0.255 NA
ATOM     20  C   UNL     1      19.002  33.768  57.879  0.00  0.00    +0.077 A 
ATOM     21  C   UNL     1      18.413  32.605  57.416  0.00  0.00    +0.046 C 
ATOM     22  C   UNL     1      19.117  31.769  56.561  0.00  0.00    +0.092 C 
ENDBRANCH  11  12
ENDBRANCH  10  11
TORSDOF 2
