REMARK  Name = 3vs3_ligand
REMARK  7 active torsions:
REMARK  status: ('A' for Active; 'I' for Inactive)
REMARK    1  A    between atoms: NAK_1  and  C6_2
REMARK    2  A    between atoms: CAI_4  and  CAJ_5
REMARK    3  A    between atoms: CAN_8  and  OBD_9
REMARK    4  A    between atoms: OBD_9  and  CBE_10
REMARK    5  A    between atoms: NAG_19  and  CAQ_24
REMARK    6  A    between atoms: CAT_27  and  NAW_30
REMARK    7  A    between atoms: NAZ_33  and  CBC_34
REMARK                            x       y       z     vdW  Elec       q    Type
REMARK                         _______ _______ _______ _____ _____    ______ ____
ROOT
ATOM      4  C   UNL     1      -0.046   3.326  12.936  0.00  0.00    +0.117 A 
ATOM      5  N   UNL     1      -1.369   3.135  12.724  0.00  0.00    -0.273 NA
ATOM      6  C   UNL     1      -2.197   4.183  12.622  0.00  0.00    +0.149 A 
ATOM      7  N   UNL     1      -1.744   5.440  12.732  0.00  0.00    -0.276 NA
ATOM      8  C   UNL     1      -0.429   5.692  12.948  0.00  0.00    +0.141 A 
ATOM      9  N   UNL     1       0.263   6.835  13.080  0.00  0.00    -0.246 N 
ATOM     25  C   UNL     1       1.546   6.538  13.280  0.00  0.00    +0.137 A 
ATOM     26  C   UNL     1       1.717   5.173  13.282  0.00  0.00    -0.010 A 
ATOM     40  C   UNL     1       0.460   4.620  13.045  0.00  0.00    +0.053 A 
ENDROOT
BRANCH   9  10
ATOM     10  C   UNL     1      -0.203   8.250  13.067  0.00  0.00    +0.132 C 
ATOM     11  C   UNL     1      -0.489   8.756  11.660  0.00  0.00    +0.042 C 
ATOM     12  C   UNL     1      -0.715  10.260  11.733  0.00  0.00    +0.057 C 
ATOM     13  C   UNL     1      -1.875  10.586  12.671  0.00  0.00    +0.065 C 
ATOM     23  C   UNL     1      -1.598  10.028  14.067  0.00  0.00    +0.057 C 
ATOM     24  C   UNL     1      -1.392   8.518  13.986  0.00  0.00    +0.042 C 
BRANCH  13  14
ATOM     14  N   UNL     1      -1.887  12.043  12.740  0.00  0.00    +0.245 N 
ATOM     15  H   UNL     1      -2.536  12.030  13.511  0.00  0.00    +0.204 HD
ATOM     16  C   UNL     1      -0.904  12.694  13.599  0.00  0.00    +0.183 C 
ATOM     17  C   UNL     1      -1.553  13.899  14.281  0.00  0.00    +0.183 C 
ATOM     18  N   UNL     1      -2.509  14.513  13.364  0.00  0.00    +0.240 N 
ATOM     19  H   UNL     1      -3.167  13.774  13.555  0.00  0.00    +0.203 HD
ATOM     20  C   UNL     1      -3.456  15.505  13.850  0.00  0.00    +0.191 C 
ATOM     21  C   UNL     1      -2.527  14.179  11.952  0.00  0.00    +0.183 C 
ATOM     22  C   UNL     1      -2.887  12.702  11.915  0.00  0.00    +0.183 C 
ENDBRANCH  13  14
ENDBRANCH   9  10
BRANCH  26  27
ATOM     27  C   UNL     1       3.074   4.574  13.440  0.00  0.00    -0.047 A 
ATOM     28  C   UNL     1       3.501   3.586  12.569  0.00  0.00    -0.014 A 
ATOM     29  C   UNL     1       4.784   3.064  12.693  0.00  0.00    +0.022 A 
ATOM     30  C   UNL     1       5.646   3.543  13.672  0.00  0.00    +0.112 A 
ATOM     38  C   UNL     1       5.233   4.561  14.523  0.00  0.00    +0.022 A 
ATOM     39  C   UNL     1       3.948   5.083  14.399  0.00  0.00    -0.014 A 
BRANCH  30  31
ATOM     31  O   UNL     1       6.906   3.012  13.758  0.00  0.00    -0.260 OA
BRANCH  31  32
ATOM     32  C   UNL     1       7.457   2.604  14.942  0.00  0.00    +0.115 A 
ATOM     33  C   UNL     1       6.786   1.711  15.769  0.00  0.00    +0.027 A 
ATOM     34  C   UNL     1       7.374   1.299  16.963  0.00  0.00    -0.011 A 
ATOM     35  C   UNL     1       8.632   1.769  17.323  0.00  0.00    -0.020 A 
ATOM     36  C   UNL     1       9.303   2.654  16.486  0.00  0.00    -0.011 A 
ATOM     37  C   UNL     1       8.719   3.067  15.296  0.00  0.00    +0.027 A 
ENDBRANCH  31  32
ENDBRANCH  30  31
ENDBRANCH  26  27
BRANCH   4   1
ATOM      1  N   UNL     1       0.762   2.250  13.038  0.00  0.00    -0.316 N 
ATOM      2  H   UNL     1       1.771   2.377  13.199  0.00  0.00    +0.182 HD
ATOM      3  H   UNL     1       0.369   1.301  12.955  0.00  0.00    +0.182 HD
ENDBRANCH   4   1
TORSDOF 6
