REMARK  Name = Y27
REMARK  3 active torsions:
REMARK  status: ('A' for Active; 'I' for Inactive)
REMARK    1  A    between atoms: C22_2  and  C31_3
REMARK    2  A    between atoms: C34_6  and  C41_9
REMARK    3  A    between atoms: N21_12  and  C14_13
REMARK                            x       y       z     vdW  Elec       q    Type
REMARK                         _______ _______ _______ _____ _____    ______ ____
ROOT
ATOM      1  O   UNL     1       7.567   9.649   1.659  0.00  0.00    -0.273 OA
ATOM      2  C   UNL     1       7.985   9.482   2.808  0.00  0.00    +0.245 C 
ATOM      3  N   UNL     1       7.175   9.668   3.963  0.00  0.00    -0.179 NA
ENDROOT
BRANCH   3   4
ATOM      4  C   UNL     1       5.735   9.742   4.010  0.00  0.00    +0.076 A 
ATOM      5  C   UNL     1       5.165   9.693   5.293  0.00  0.00    +0.037 A 
ATOM      6  C   UNL     1       3.770   9.746   5.348  0.00  0.00    +0.100 A 
ATOM      7  N   UNL     1       3.010   9.854   4.238  0.00  0.00    -0.242 NA
ATOM      8  C   UNL     1       3.541   9.901   3.006  0.00  0.00    +0.100 A 
ATOM      9  C   UNL     1       4.918   9.844   2.847  0.00  0.00    +0.037 A 
ENDBRANCH   3   4
BRANCH   2  10
ATOM     10  C   UNL     1       9.390   9.033   3.122  0.00  0.00    +0.079 C 
ATOM     11  C   UNL     1      10.410  10.189   3.138  0.00  0.00    +0.009 C 
ATOM     12  C   UNL     1      11.885   9.672   3.277  0.00  0.00    +0.002 C 
ATOM     13  C   UNL     1      12.191   8.500   2.307  0.00  0.00    +0.018 C 
ATOM     14  C   UNL     1      11.177   7.372   2.533  0.00  0.00    +0.002 C 
ATOM     18  C   UNL     1       9.802   7.926   2.147  0.00  0.00    +0.009 C 
BRANCH  13  15
ATOM     15  C   UNL     1      13.635   7.916   2.377  0.00  0.00    +0.092 C 
ATOM     16  N   UNL     1      14.651   8.984   2.688  0.00  0.00    -0.133 NA
ATOM     17  C   UNL     1      14.009   7.234   1.048  0.00  0.00    +0.021 C 
ENDBRANCH  13  15
ENDBRANCH   2  10
TORSDOF 3
