REMARK  Name = 4i5p_ligand
REMARK  5 active torsions:
REMARK  status: ('A' for Active; 'I' for Inactive)
REMARK    1  A    between atoms: N12_3  and  C24_4
REMARK    2  A    between atoms: C14_8  and  C21_9
REMARK    3  A    between atoms: C21_9  and  C22_10
REMARK    4  A    between atoms: N15_11  and  C16_12
REMARK    5  A    between atoms: C6_19  and  C2_20
REMARK                            x       y       z     vdW  Elec       q    Type
REMARK                         _______ _______ _______ _____ _____    ______ ____
ROOT
ATOM      1  O   UNL     1      13.609   4.241  10.452  0.00  0.00    -0.382 OA
ATOM      2  C   UNL     1      12.508   4.828  10.447  0.00  0.00    +0.232 C 
ATOM      3  C   UNL     1      12.517   6.295  10.672  0.00  0.00    +0.217 C 
ATOM      4  N   UNL     1      11.199   6.953  10.691  0.00  0.00    -0.267 N 
ATOM      5  C   UNL     1      10.023   6.218  10.426  0.00  0.00    +0.154 A 
ATOM      6  N   UNL     1       8.821   6.827  10.405  0.00  0.00    -0.270 NA
ATOM      7  C   UNL     1       7.698   6.118  10.145  0.00  0.00    +0.103 A 
ATOM     14  N   UNL     1       7.740   4.784   9.890  0.00  0.00    -0.303 NA
ATOM     15  C   UNL     1       8.887   4.097   9.892  0.00  0.00    +0.102 A 
ATOM     16  C   UNL     1      10.081   4.759  10.150  0.00  0.00    +0.138 A 
ATOM     24  N   UNL     1      11.326   4.100  10.172  0.00  0.00    -0.215 N 
ATOM     25  C   UNL     1      11.412   2.658   9.906  0.00  0.00    +0.210 C 
ENDROOT
BRANCH   7   8
ATOM      8  C   UNL     1       6.392   6.828  10.117  0.00  0.00    +0.082 A 
ATOM      9  N   UNL     1       6.401   8.088  10.573  0.00  0.00    -0.284 N 
ATOM     10  H   UNL     1       7.211   8.601  10.950  0.00  0.00    +0.233 HD
ATOM     11  C   UNL     1       5.136   8.555  10.441  0.00  0.00    +0.108 A 
ATOM     12  C   UNL     1       4.344   7.563   9.892  0.00  0.00    -0.044 A 
ATOM     13  C   UNL     1       5.140   6.460   9.669  0.00  0.00    -0.032 A 
ENDBRANCH   7   8
BRANCH   4  17
ATOM     17  C   UNL     1      11.045   8.401  10.986  0.00  0.00    +0.100 C 
ATOM     18  C   UNL     1      12.147   8.970  11.886  0.00  0.00    +0.028 C 
ATOM     19  C   UNL     1      12.094  10.477  11.673  0.00  0.00    +0.002 C 
ATOM     20  C   UNL     1      11.260  10.726  10.415  0.00  0.00    +0.002 C 
ATOM     21  C   UNL     1      10.919   9.361   9.813  0.00  0.00    +0.028 C 
ENDBRANCH   4  17
BRANCH   3  22
ATOM     22  C   UNL     1      13.264   6.831   9.436  0.00  0.00    +0.047 C 
ATOM     23  C   UNL     1      12.534   6.603   8.115  0.00  0.00    +0.009 C 
ENDBRANCH   3  22
TORSDOF 3
