REMARK  Name = 5EM7
REMARK  18 active torsions:
REMARK  status: ('A' for Active; 'I' for Inactive)
REMARK    1  A    between atoms: C_3  and  N_14
REMARK    2  A    between atoms: C_5  and  N_13
REMARK    3  A    between atoms: N_10  and  C_12
REMARK    4  A    between atoms: C_15  and  C_17
REMARK    5  A    between atoms: C_18  and  N_24
REMARK    6  A    between atoms: C_22  and  O_23
REMARK    7  A    between atoms: N_24  and  C_25
REMARK    8  A    between atoms: C_30  and  O_31
REMARK    9  A    between atoms: O_31  and  C_32
REMARK   10  A    between atoms: C_36  and  N_47
REMARK   11  A    between atoms: C_38  and  N_46
REMARK   12  A    between atoms: N_43  and  C_45
REMARK   13  A    between atoms: C_48  and  C_50
REMARK   14  A    between atoms: C_51  and  N_57
REMARK   15  A    between atoms: C_55  and  O_56
REMARK   16  A    between atoms: N_57  and  C_58
REMARK   17  A    between atoms: C_63  and  O_64
REMARK   18  A    between atoms: O_64  and  C_65
REMARK                            x       y       z     vdW  Elec       q    Type
REMARK                         _______ _______ _______ _____ _____    ______ ____
ROOT
ATOM     10  C   UNL     1     -53.257   0.753 -22.732  0.00  0.00    +0.169 A 
ATOM     11  C   UNL     1     -54.386   1.650 -22.735  0.00  0.00    +0.382 A 
ATOM     14  N   UNL     1     -55.075   1.893 -23.878  0.00  0.00    -0.179 N 
ATOM     15  H   UNL     1     -55.828   2.504 -23.855  0.00  0.00    +0.456 HD
ATOM     16  C   UNL     1     -54.748   1.304 -25.058  0.00  0.00    +0.312 A 
ATOM     17  C   UNL     1     -53.694   0.460 -25.140  0.00  0.00    +0.094 A 
ATOM     18  C   UNL     1     -52.925   0.146 -23.992  0.00  0.00    +0.059 A 
ENDROOT
BRANCH  10   9
ATOM      7  N   UNL     1     -52.793   1.099 -20.315  0.00  0.00    -0.281 N 
ATOM      8  H   UNL     1     -53.565   1.836 -20.391  0.00  0.00    +0.155 HD
ATOM      9  C   UNL     1     -52.495   0.460 -21.481  0.00  0.00    +0.260 C 
ATOM     29  O   UNL     1     -51.619  -0.385 -21.488  0.00  0.00    -0.269 OA
BRANCH   7   6
ATOM      3  C   UNL     1     -51.317   0.712 -16.360  0.00  0.00    +0.030 A 
ATOM      4  C   UNL     1     -50.847  -0.154 -17.368  0.00  0.00    +0.025 A 
ATOM      5  C   UNL     1     -51.304  -0.040 -18.677  0.00  0.00    +0.025 A 
ATOM      6  C   UNL     1     -52.244   0.943 -19.019  0.00  0.00    +0.034 A 
ATOM     30  C   UNL     1     -52.734   1.784 -18.013  0.00  0.00    +0.025 A 
ATOM     31  C   UNL     1     -52.279   1.674 -16.704  0.00  0.00    +0.025 A 
BRANCH   3   2
ATOM      1  C   UNL     1     -51.945  -0.133 -14.228  0.00  0.00    +0.120 C 
ATOM      2  N   UNL     1     -50.910   0.597 -15.008  0.00  0.00    -0.327 N 
ATOM     32  C   UNL     1     -49.521   0.092 -14.822  0.00  0.00    +0.120 C 
ATOM     33  C   UNL     1     -49.177  -0.152 -13.339  0.00  0.00    +0.103 C 
ATOM     34  N   UNL     1     -50.241  -0.944 -12.684  0.00  0.00    -0.302 NA
ATOM     35  C   UNL     1     -49.891  -1.266 -11.292  0.00  0.00    +0.105 C 
ATOM     36  C   UNL     1     -51.556  -0.280 -12.752  0.00  0.00    +0.103 C 
ENDBRANCH   3   2
ENDBRANCH   7   6
ENDBRANCH  10   9
BRANCH  11  12
ATOM     12  O   UNL     1     -54.759   2.237 -21.731  0.00  0.00    -0.459 OA
ATOM     13  H   UNL     1     -55.023   1.538 -20.994  0.00  0.00    +0.298 HD
ENDBRANCH  11  12
BRANCH  18  19
ATOM     19  N   UNL     1     -51.846  -0.706 -24.159  0.00  0.00    -0.311 N 
ATOM     20  H   UNL     1     -50.871  -0.279 -24.047  0.00  0.00    +0.152 HD
BRANCH  19  21
ATOM     21  C   UNL     1     -51.907  -2.078 -24.462  0.00  0.00    +0.074 A 
ATOM     22  C   UNL     1     -51.669  -2.543 -25.772  0.00  0.00    +0.141 A 
ATOM     25  C   UNL     1     -51.663  -3.924 -26.016  0.00  0.00    +0.047 A 
ATOM     26  C   UNL     1     -51.899  -4.826 -24.982  0.00  0.00    +0.004 A 
ATOM     27  C   UNL     1     -52.124  -4.365 -23.689  0.00  0.00    +0.002 A 
ATOM     28  C   UNL     1     -52.106  -2.999 -23.427  0.00  0.00    +0.027 A 
BRANCH  22  23
ATOM     23  O   UNL     1     -51.424  -1.658 -26.790  0.00  0.00    -0.493 OA
ATOM     24  C   UNL     1     -52.356  -1.539 -27.876  0.00  0.00    +0.277 C 
ENDBRANCH  22  23
ENDBRANCH  19  21
ENDBRANCH  18  19
TORSDOF 7
