REMARK  Name = 2wmx_ligand
REMARK  4 active torsions:
REMARK  status: ('A' for Active; 'I' for Inactive)
REMARK    1  A    between atoms: CAQ_6  and  CAR_7
REMARK    2  A    between atoms: CAS_15  and  NAV_16
REMARK    3  A    between atoms: CAW_21  and  CAI_22
REMARK    4  A    between atoms: CAI_22  and  NAA_23
REMARK                            x       y       z     vdW  Elec       q    Type
REMARK                         _______ _______ _______ _____ _____    ______ ____
ROOT
ATOM      3  C   UNL     1      18.095  -1.350   9.632  0.00  0.00    +0.020 A 
ATOM      4  C   UNL     1      17.003  -1.987  10.200  0.00  0.00    +0.075 A 
ATOM     16  C   UNL     1      15.777  -1.328  10.139  0.00  0.00    +0.059 A 
ATOM     17  C   UNL     1      14.553  -1.606  10.549  0.00  0.00    +0.097 A 
ATOM     18  N   UNL     1      13.771  -0.581  10.216  0.00  0.00    -0.207 NA
ATOM     19  N   UNL     1      14.412   0.309   9.652  0.00  0.00    -0.204 N 
ATOM     20  H   UNL     1      14.036   1.198   9.323  0.00  0.00    +0.248 HD
ATOM     21  C   UNL     1      15.676  -0.087   9.546  0.00  0.00    +0.145 A 
ATOM     22  N   UNL     1      16.757   0.492   9.017  0.00  0.00    -0.297 NA
ATOM     23  C   UNL     1      17.929  -0.102   9.057  0.00  0.00    +0.070 A 
ENDROOT
BRANCH   3   2
ATOM      1  C   UNL     1      19.978  -2.209  10.843  0.00  0.00    +0.000 A 
ATOM      2  C   UNL     1      19.376  -1.878   9.640  0.00  0.00    -0.025 A 
ATOM     24  C   UNL     1      20.097  -2.017   8.468  0.00  0.00    +0.000 A 
ATOM     25  C   UNL     1      21.391  -2.516   8.501  0.00  0.00    -0.004 A 
ATOM     26  C   UNL     1      21.979  -2.864   9.705  0.00  0.00    -0.006 A 
ATOM     27  C   UNL     1      21.269  -2.710  10.881  0.00  0.00    -0.004 A 
ENDBRANCH   3   2
BRANCH   4   5
ATOM      5  N   UNL     1      17.119  -3.250  10.807  0.00  0.00    -0.291 N 
ATOM      6  C   UNL     1      15.988  -4.189  10.775  0.00  0.00    +0.166 C 
ATOM      7  C   UNL     1      15.858  -4.928  12.106  0.00  0.00    +0.185 C 
ATOM      8  O   UNL     1      17.127  -5.446  12.477  0.00  0.00    -0.367 OA
ATOM      9  C   UNL     1      17.956  -4.362  12.835  0.00  0.00    +0.186 C 
ATOM     15  C   UNL     1      18.341  -3.673  11.519  0.00  0.00    +0.174 C 
BRANCH   9  10
ATOM     10  C   UNL     1      19.135  -4.960  13.622  0.00  0.00    +0.161 C 
BRANCH  10  11
ATOM     11  N   UNL     1      19.818  -3.943  14.438  0.00  0.00    +0.220 N 
ATOM     12  H   UNL     1      19.157  -3.543  15.104  0.00  0.00    +0.200 HD
ATOM     13  H   UNL     1      20.178  -3.207  13.831  0.00  0.00    +0.200 HD
ATOM     14  H   UNL     1      20.591  -4.377  14.943  0.00  0.00    +0.200 HD
ENDBRANCH  10  11
ENDBRANCH   9  10
ENDBRANCH   4   5
TORSDOF 4
