REMARK  Name = 3twj_ligand
REMARK  4 active torsions:
REMARK  status: ('A' for Active; 'I' for Inactive)
REMARK    1  A    between atoms: N03_3  and  C04_4
REMARK    2  A    between atoms: C04_4  and  C05_5
REMARK    3  A    between atoms: C07_7  and  O08_8
REMARK    4  A    between atoms: C15_15  and  C16_16
REMARK                            x       y       z     vdW  Elec       q    Type
REMARK                         _______ _______ _______ _____ _____    ______ ____
ROOT
ATOM      1  O   UNL     1      18.141  33.991  17.434  0.00  0.00    -0.386 OA
ATOM      2  C   UNL     1      17.081  34.694  17.192  0.00  0.00    +0.301 C 
ATOM      3  N   UNL     1      16.130  34.992  18.260  0.00  0.00    -0.179 N 
ATOM      4  H   UNL     1      15.394  35.664  18.184  0.00  0.00    +0.241 HD
ATOM      5  C   UNL     1      16.390  34.176  19.470  0.00  0.00    +0.209 A 
ATOM      6  S   UNL     1      17.869  34.145  20.185  0.00  0.00    +0.023 S 
ATOM      7  C   UNL     1      17.505  33.077  21.416  0.00  0.00    +0.083 A 
ATOM      8  C   UNL     1      16.134  32.580  21.329  0.00  0.00    +0.010 A 
ATOM     15  N   UNL     1      15.506  33.267  20.157  0.00  0.00    -0.314 NA
ATOM     16  N   UNL     1      16.784  35.225  15.820  0.00  0.00    -0.255 N 
ATOM     17  H   UNL     1      17.266  36.037  15.491  0.00  0.00    +0.188 HD
ENDROOT
BRANCH   8   9
ATOM      9  C   UNL     1      15.380  31.570  22.171  0.00  0.00    -0.008 A 
ATOM     10  C   UNL     1      15.849  30.990  23.379  0.00  0.00    +0.036 A 
ATOM     11  C   UNL     1      14.964  30.028  24.052  0.00  0.00    +0.086 A 
ATOM     12  N   UNL     1      13.709  29.619  23.581  0.00  0.00    -0.304 NA
ATOM     13  C   UNL     1      13.252  30.142  22.406  0.00  0.00    +0.086 A 
ATOM     14  C   UNL     1      14.066  31.110  21.684  0.00  0.00    +0.036 A 
ENDBRANCH   8   9
BRANCH  16  18
ATOM     18  C   UNL     1      15.766  34.549  14.928  0.00  0.00    +0.199 C 
BRANCH  18  19
ATOM     19  C   UNL     1      16.498  33.856  13.767  0.00  0.00    -0.030 A 
ATOM     20  C   UNL     1      16.218  32.530  13.389  0.00  0.00    -0.023 A 
ATOM     21  C   UNL     1      16.963  31.972  12.330  0.00  0.00    -0.020 A 
ATOM     22  C   UNL     1      17.995  32.769  11.672  0.00  0.00    +0.008 A 
ATOM     23  C   UNL     1      18.270  34.095  12.056  0.00  0.00    +0.081 A 
ATOM     26  C   UNL     1      17.553  34.658  13.085  0.00  0.00    +0.017 A 
BRANCH  23  24
ATOM     24  O   UNL     1      19.252  34.857  11.383  0.00  0.00    -0.335 OA
ATOM     25  H   UNL     1      19.653  34.327  10.704  0.00  0.00    +0.248 HD
ENDBRANCH  23  24
ENDBRANCH  18  19
ENDBRANCH  16  18
TORSDOF 4
