REMARK  Name = 5EAK
REMARK  6 active torsions:
REMARK  status: ('A' for Active; 'I' for Inactive)
REMARK    1  A    between atoms: C_2  and  C_18
REMARK    2  A    between atoms: C_8  and  C_10
REMARK    3  A    between atoms: C_13  and  C_15
REMARK    4  A    between atoms: N_16  and  C_24
REMARK    5  A    between atoms: N_20  and  C_23
REMARK    6  A    between atoms: C_25  and  N_26
REMARK                            x       y       z     vdW  Elec       q    Type
REMARK                         _______ _______ _______ _____ _____    ______ ____
ROOT
ATOM      7  C   UNL     1      41.447  32.176  -1.834  0.00  0.00    -0.005 A 
ATOM      8  C   UNL     1      41.416  31.542  -0.577  0.00  0.00    +0.029 A 
ATOM      9  C   UNL     1      41.234  30.163  -0.658  0.00  0.00    +0.074 A 
ATOM     23  S   UNL     1      41.087  29.669  -2.290  0.00  0.00    -0.091 S 
ATOM     24  C   UNL     1      41.276  31.271  -2.866  0.00  0.00    +0.054 A 
ENDROOT
BRANCH   7   6
ATOM      1  C   UNL     1      42.178  37.004  -1.243  0.00  0.00    +0.118 C 
ATOM      2  N   UNL     1      41.916  35.829  -1.847  0.00  0.00    -0.244 N 
ATOM      3  N   UNL     1      41.637  35.651  -3.142  0.00  0.00    -0.298 N 
ATOM      4  H   UNL     1      41.583  36.395  -3.909  0.00  0.00    +0.187 HD
ATOM      5  C   UNL     1      41.439  34.322  -3.265  0.00  0.00    +0.114 A 
ATOM      6  C   UNL     1      41.608  33.651  -2.054  0.00  0.00    +0.044 A 
ATOM     25  C   UNL     1      41.912  34.670  -1.149  0.00  0.00    +0.157 A 
ATOM     26  N   UNL     1      42.171  34.652   0.174  0.00  0.00    -0.260 NA
ATOM     27  C   UNL     1      42.427  35.838   0.743  0.00  0.00    +0.181 C 
ATOM     28  C   UNL     1      42.466  37.075   0.110  0.00  0.00    +0.002 C 
BRANCH  28  29
ATOM     29  C   UNL     1      42.745  38.305   0.888  0.00  0.00    +0.019 A 
ATOM     30  C   UNL     1      42.848  38.389   2.275  0.00  0.00    +0.142 A 
ATOM     31  N   UNL     1      43.086  39.643   2.702  0.00  0.00    -0.179 NA
ATOM     32  N   UNL     1      43.107  40.336   1.562  0.00  0.00    -0.274 N 
ATOM     33  C   UNL     1      43.340  41.775   1.650  0.00  0.00    +0.172 C 
ATOM     34  C   UNL     1      42.903  39.605   0.436  0.00  0.00    +0.116 A 
ENDBRANCH  28  29
ENDBRANCH   7   6
BRANCH   9  10
ATOM     10  C   UNL     1      41.154  29.138   0.422  0.00  0.00    +0.251 C 
ATOM     11  O   UNL     1      40.758  28.013   0.210  0.00  0.00    -0.270 OA
ATOM     12  N   UNL     1      41.540  29.471   1.646  0.00  0.00    -0.307 N 
ATOM     13  H   UNL     1      41.744  30.499   1.864  0.00  0.00    +0.149 HD
BRANCH  12  14
ATOM     14  C   UNL     1      41.695  28.479   2.706  0.00  0.00    +0.090 C 
ATOM     15  C   UNL     1      43.175  28.431   3.104  0.00  0.00    +0.024 C 
ATOM     16  C   UNL     1      43.589  29.607   3.986  0.00  0.00    +0.002 C 
ATOM     17  C   UNL     1      42.747  29.593   5.254  0.00  0.00    +0.002 C 
ATOM     18  C   UNL     1      41.264  29.754   4.927  0.00  0.00    +0.020 C 
ATOM     19  C   UNL     1      40.773  28.720   3.919  0.00  0.00    +0.071 C 
BRANCH  19  20
ATOM     20  N   UNL     1      39.425  29.190   3.492  0.00  0.00    -0.326 NA
ATOM     21  H   UNL     1      39.522  30.108   2.951  0.00  0.00    +0.118 HD
ATOM     22  H   UNL     1      38.972  28.452   2.863  0.00  0.00    +0.118 HD
ENDBRANCH  19  20
ENDBRANCH  12  14
ENDBRANCH   9  10
TORSDOF 5
