REMARK  Name = 5I9Y
REMARK  16 active torsions:
REMARK  status: ('A' for Active; 'I' for Inactive)
REMARK    1  A    between atoms: C_2  and  C_3
REMARK    2  A    between atoms: N_4  and  C_16
REMARK    3  A    between atoms: C_7  and  C_8
REMARK    4  A    between atoms: C_9  and  N_18
REMARK    5  A    between atoms: C_12  and  C_13
REMARK    6  A    between atoms: C_16  and  C_17
REMARK    7  A    between atoms: C_17  and  O_33
REMARK    8  A    between atoms: N_22  and  C_23
REMARK    9  A    between atoms: C_35  and  C_36
REMARK   10  A    between atoms: N_37  and  C_49
REMARK   11  A    between atoms: C_40  and  C_41
REMARK   12  A    between atoms: C_42  and  N_51
REMARK   13  A    between atoms: C_45  and  C_46
REMARK   14  A    between atoms: C_49  and  C_50
REMARK   15  A    between atoms: C_50  and  O_66
REMARK   16  A    between atoms: N_55  and  C_56
REMARK                            x       y       z     vdW  Elec       q    Type
REMARK                         _______ _______ _______ _____ _____    ______ ____
ROOT
ATOM      1  C   UNL     1     -70.682 -13.989  44.609  0.00  0.00    +0.133 A 
ATOM      2  N   UNL     1     -69.736 -13.464  43.783  0.00  0.00    -0.232 NA
ATOM      3  C   UNL     1     -68.487 -13.480  44.272  0.00  0.00    +0.164 A 
ATOM      4  S   UNL     1     -68.549 -14.167  45.827  0.00  0.00    -0.047 S 
ATOM      5  N   UNL     1     -67.421 -13.006  43.587  0.00  0.00    -0.279 N 
ATOM      6  H   UNL     1     -67.578 -12.622  42.601  0.00  0.00    +0.155 HD
ATOM     24  C   UNL     1     -70.223 -14.439  45.792  0.00  0.00    +0.095 A 
ENDROOT
BRANCH   5   7
ATOM      7  C   UNL     1     -66.173 -12.995  44.089  0.00  0.00    +0.130 A 
ATOM      8  N   UNL     1     -65.933 -13.273  45.375  0.00  0.00    -0.217 NA
ATOM      9  C   UNL     1     -64.709 -13.265  45.901  0.00  0.00    +0.130 A 
ATOM     10  N   UNL     1     -63.656 -12.968  45.135  0.00  0.00    -0.218 NA
ATOM     11  C   UNL     1     -63.813 -12.677  43.838  0.00  0.00    +0.127 A 
ATOM     12  N   UNL     1     -62.703 -12.382  43.148  0.00  0.00    -0.313 N 
ATOM     13  C   UNL     1     -61.391 -12.653  43.772  0.00  0.00    +0.122 C 
ATOM     14  C   UNL     1     -60.425 -11.514  43.540  0.00  0.00    +0.103 C 
ATOM     15  N   UNL     1     -60.369 -11.111  42.128  0.00  0.00    -0.297 NA
ATOM     16  C   UNL     1     -61.704 -10.672  41.683  0.00  0.00    +0.103 C 
ATOM     21  C   UNL     1     -62.749 -11.781  41.804  0.00  0.00    +0.122 C 
ATOM     22  C   UNL     1     -64.533 -13.568  47.250  0.00  0.00    +0.088 C 
ATOM     23  C   UNL     1     -65.086 -12.681  43.268  0.00  0.00    +0.087 A 
BRANCH  15  17
ATOM     17  C   UNL     1     -59.431  -9.981  42.009  0.00  0.00    +0.112 C 
BRANCH  17  18
ATOM     18  C   UNL     1     -58.009 -10.387  42.413  0.00  0.00    +0.171 C 
BRANCH  18  19
ATOM     19  O   UNL     1     -57.707  -9.881  43.719  0.00  0.00    -0.394 OA
ATOM     20  H   UNL     1     -57.779  -8.833  43.714  0.00  0.00    +0.209 HD
ENDBRANCH  18  19
ENDBRANCH  17  18
ENDBRANCH  15  17
ENDBRANCH   5   7
BRANCH  24  25
ATOM     25  C   UNL     1     -70.909 -15.019  46.815  0.00  0.00    +0.256 C 
ATOM     26  O   UNL     1     -70.323 -15.224  47.876  0.00  0.00    -0.269 OA
ATOM     27  N   UNL     1     -72.207 -15.397  46.618  0.00  0.00    -0.280 N 
ATOM     28  H   UNL     1     -72.678 -15.218  45.674  0.00  0.00    +0.155 HD
BRANCH  27  29
ATOM     29  C   UNL     1     -72.907 -16.005  47.627  0.00  0.00    +0.055 A 
ATOM     30  C   UNL     1     -73.019 -17.404  47.666  0.00  0.00    +0.062 A 
ATOM     31 CL   UNL     1     -72.284 -18.442  46.486  0.00  0.00    -0.082 Cl
ATOM     32  C   UNL     1     -73.749 -18.004  48.690  0.00  0.00    +0.022 A 
ATOM     33  C   UNL     1     -74.369 -17.231  49.665  0.00  0.00    +0.002 A 
ATOM     34  C   UNL     1     -74.267 -15.846  49.621  0.00  0.00    +0.005 A 
ATOM     35  C   UNL     1     -73.543 -15.226  48.604  0.00  0.00    -0.028 A 
ATOM     36  C   UNL     1     -73.469 -13.837  48.598  0.00  0.00    +0.046 C 
ENDBRANCH  27  29
ENDBRANCH  24  25
TORSDOF 6
