REMARK  Name = XZ8
REMARK  1 active torsions:
REMARK  status: ('A' for Active; 'I' for Inactive)
REMARK    1  A    between atoms: C06_6  and  C07_7
REMARK                            x       y       z     vdW  Elec       q    Type
REMARK                         _______ _______ _______ _____ _____    ______ ____
ROOT
ATOM      1  C   UNL     1      -0.949   3.411  -2.861  0.00  0.00    +0.098 C 
ATOM      2  C   UNL     1      -0.721   4.002  -1.482  0.00  0.00    +0.242 C 
ATOM      3  O   UNL     1      -1.600   3.878  -0.646  0.00  0.00    -0.272 OA
ATOM      4  N   UNL     1       0.471   4.734  -1.182  0.00  0.00    -0.277 N 
ATOM      5  C   UNL     1       0.808   5.288   0.042  0.00  0.00    +0.066 A 
ATOM      6  C   UNL     1       0.154   5.268   1.304  0.00  0.00    +0.018 A 
ATOM      7  C   UNL     1       0.723   5.900   2.405  0.00  0.00    +0.002 A 
ATOM      8  C   UNL     1       1.940   6.575   2.273  0.00  0.00    +0.000 A 
ATOM      9  C   UNL     1       2.590   6.600   1.039  0.00  0.00    +0.001 A 
ATOM     10  C   UNL     1       2.013   5.949  -0.089  0.00  0.00    +0.015 A 
ATOM     11  C   UNL     1       2.429   5.806  -1.448  0.00  0.00    +0.011 A 
ATOM     19  C   UNL     1       1.432   5.050  -2.074  0.00  0.00    +0.079 A 
ENDROOT
BRANCH  11  12
ATOM     12  C   UNL     1       3.583   6.311  -2.059  0.00  0.00    +0.141 C 
ATOM     13  C   UNL     1       4.078   7.620  -2.000  0.00  0.00    +0.069 C 
ATOM     14  C   UNL     1       3.500   8.803  -1.247  0.00  0.00    +0.050 C 
ATOM     15  N   UNL     1       5.191   7.672  -2.745  0.00  0.00    -0.164 NA
ATOM     16  N   UNL     1       5.431   6.459  -3.279  0.00  0.00    -0.079 NA
ATOM     17  C   UNL     1       4.468   5.613  -2.884  0.00  0.00    +0.272 C 
ATOM     18  O   UNL     1       4.401   4.440  -3.199  0.00  0.00    -0.271 OA
ENDBRANCH  11  12
TORSDOF 1
