REMARK  Name = 4w7p_ligand
REMARK  6 active torsions:
REMARK  status: ('A' for Active; 'I' for Inactive)
REMARK    1  A    between atoms: C15_8  and  C16_9
REMARK    2  A    between atoms: C15_8  and  N6_24
REMARK    3  A    between atoms: C16_9  and  C17_10
REMARK    4  A    between atoms: C16_9  and  C18_11
REMARK    5  A    between atoms: C16_9  and  N7_25
REMARK    6  A    between atoms: C7_17  and  C8_19
REMARK                            x       y       z     vdW  Elec       q    Type
REMARK                         _______ _______ _______ _____ _____    ______ ____
ROOT
ATOM      1  C   UNL     1     -13.896  42.656  -9.537  0.00  0.00    +0.095 A 
ATOM      2  N   UNL     1     -14.046  41.400  -9.037  0.00  0.00    -0.290 NA
ATOM      3  C   UNL     1     -14.495  41.240  -7.760  0.00  0.00    +0.120 A 
ATOM      4  C   UNL     1     -14.857  42.323  -6.920  0.00  0.00    +0.069 A 
ATOM      5  N   UNL     1     -15.347  42.111  -5.680  0.00  0.00    -0.282 NA
ATOM      6  C   UNL     1     -15.668  43.186  -4.942  0.00  0.00    +0.104 A 
ATOM     17  N   UNL     1     -15.528  44.453  -5.360  0.00  0.00    -0.245 NA
ATOM     18  C   UNL     1     -15.067  44.715  -6.597  0.00  0.00    +0.151 A 
ATOM     19  N   UNL     1     -14.988  46.058  -7.013  0.00  0.00    -0.285 N 
ATOM     20  H   UNL     1     -14.428  46.268  -7.852  0.00  0.00    +0.192 HD
ATOM     29  C   UNL     1     -14.688  43.646  -7.458  0.00  0.00    +0.070 A 
ATOM     30  C   UNL     1     -14.212  43.815  -8.796  0.00  0.00    +0.061 A 
ENDROOT
BRANCH   6   7
ATOM      7  C   UNL     1     -16.259  42.995  -3.590  0.00  0.00    +0.018 A 
ATOM      8  C   UNL     1     -16.905  44.106  -2.945  0.00  0.00    +0.037 A 
ATOM      9  C   UNL     1     -17.514  43.965  -1.664  0.00  0.00    +0.038 A 
ATOM     10  C   UNL     1     -18.209  44.796  -0.744  0.00  0.00    +0.247 A 
ATOM     11  N   UNL     1     -18.564  44.130   0.328  0.00  0.00    -0.244 N 
ATOM     12  H   UNL     1     -19.079  44.498   1.141  0.00  0.00    +0.293 HD
ATOM     13  N   UNL     1     -18.122  42.872   0.156  0.00  0.00    -0.332 NA
ATOM     14  C   UNL     1     -17.469  42.674  -1.040  0.00  0.00    -0.009 A 
ATOM     15  C   UNL     1     -16.881  41.544  -1.668  0.00  0.00    +0.009 A 
ATOM     16  C   UNL     1     -16.294  41.708  -2.954  0.00  0.00    +0.021 A 
ENDBRANCH   6   7
BRANCH  19  21
ATOM     21  C   UNL     1     -15.645  47.174  -6.337  0.00  0.00    +0.197 C 
BRANCH  21  22
ATOM     22  C   UNL     1     -14.696  47.960  -5.379  0.00  0.00    +0.002 C 
ATOM     27  C   UNL     1     -14.457  47.225  -4.051  0.00  0.00    +0.069 C 
ATOM     28  C   UNL     1     -15.144  49.388  -5.049  0.00  0.00    +0.069 C 
BRANCH  22  23
ATOM     23  N   UNL     1     -13.419  48.113  -6.034  0.00  0.00    +0.224 N 
ATOM     24  H   UNL     1     -12.801  48.648  -5.444  0.00  0.00    +0.200 HD
ATOM     25  H   UNL     1     -13.018  47.204  -6.204  0.00  0.00    +0.200 HD
ATOM     26  H   UNL     1     -13.547  48.594  -6.911  0.00  0.00    +0.200 HD
ENDBRANCH  22  23
ENDBRANCH  21  22
ENDBRANCH  19  21
TORSDOF 4
