REMARK  Name = 4G9R
REMARK  10 active torsions:
REMARK  status: ('A' for Active; 'I' for Inactive)
REMARK    1  A    between atoms: C_5  and  N_12
REMARK    2  A    between atoms: N_8  and  C_33
REMARK    3  A    between atoms: N_12  and  C_13
REMARK    4  A    between atoms: C_14  and  C_19
REMARK    5  A    between atoms: C_17  and  N_20
REMARK    6  A    between atoms: C_21  and  C_22
REMARK    7  A    between atoms: C_25  and  C_29
REMARK    8  A    between atoms: C_29  and  C_30
REMARK    9  A    between atoms: C_29  and  C_31
REMARK   10  A    between atoms: C_29  and  C_32
REMARK                            x       y       z     vdW  Elec       q    Type
REMARK                         _______ _______ _______ _____ _____    ______ ____
ROOT
ATOM     12  C   UNL     1      43.029 -25.909  10.535  0.00  0.00    +0.036 A 
ATOM     13  C   UNL     1      43.627 -25.614   9.287  0.00  0.00    +0.047 A 
ATOM     14  C   UNL     1      44.334 -24.402   9.109  0.00  0.00    +0.035 A 
ATOM     30  C   UNL     1      44.435 -23.480  10.173  0.00  0.00    +0.024 A 
ATOM     31  C   UNL     1      43.841 -23.769  11.420  0.00  0.00    +0.007 A 
ATOM     32  C   UNL     1      43.136 -24.978  11.601  0.00  0.00    -0.029 A 
ATOM     33  C   UNL     1      42.507 -25.241  12.971  0.00  0.00    +0.045 C 
ENDROOT
BRANCH  14  15
ATOM     15  N   UNL     1      44.943 -24.059   7.873  0.00  0.00    -0.281 N 
ATOM     16  H   UNL     1      45.950 -23.706   7.952  0.00  0.00    +0.155 HD
ATOM     17  C   UNL     1      44.450 -24.107   6.598  0.00  0.00    +0.248 C 
ATOM     18  O   UNL     1      43.319 -24.510   6.314  0.00  0.00    -0.270 OA
BRANCH  17  19
ATOM     19  C   UNL     1      45.368 -23.632   5.512  0.00  0.00    +0.037 A 
ATOM     20  C   UNL     1      46.771 -23.657   5.687  0.00  0.00    +0.013 A 
ATOM     21  C   UNL     1      47.621 -23.199   4.655  0.00  0.00    +0.001 A 
ATOM     22  C   UNL     1      47.067 -22.717   3.447  0.00  0.00    +0.005 A 
ATOM     23  C   UNL     1      45.663 -22.683   3.268  0.00  0.00    -0.027 A 
ATOM     29  C   UNL     1      44.819 -23.144   4.307  0.00  0.00    +0.018 A 
BRANCH  23  24
ATOM     24  C   UNL     1      45.029 -22.165   1.965  0.00  0.00    +0.077 C 
ATOM     25  C   UNL     1      45.989 -22.216   0.759  0.00  0.00    +0.032 C 
ATOM     26  C   UNL     1      44.498 -20.729   2.109  0.00  0.00    +0.032 C 
BRANCH  24  27
ATOM     27  C   UNL     1      43.864 -23.010   1.653  0.00  0.00    +0.073 C 
ATOM     28  N   UNL     1      42.947 -23.677   1.407  0.00  0.00    -0.196 NA
ENDBRANCH  24  27
ENDBRANCH  23  24
ENDBRANCH  17  19
ENDBRANCH  14  15
BRANCH  12  10
ATOM     10  N   UNL     1      42.353 -27.071  10.685  0.00  0.00    -0.314 N 
ATOM     11  H   UNL     1      42.973 -27.941  10.625  0.00  0.00    +0.152 HD
BRANCH  10   9
ATOM      1  C   UNL     1      39.254 -28.918  11.449  0.00  0.00    +0.067 A 
ATOM      2  C   UNL     1      38.783 -30.304  11.801  0.00  0.00    +0.261 C 
ATOM      3  O   UNL     1      39.592 -31.234  11.902  0.00  0.00    -0.267 OA
ATOM      4  N   UNL     1      37.427 -30.435  11.992  0.00  0.00    -0.302 N 
ATOM      5  C   UNL     1      36.873 -31.753  12.335  0.00  0.00    +0.153 C 
ATOM      6  C   UNL     1      36.568 -29.368  11.870  0.00  0.00    +0.202 C 
ATOM      7  N   UNL     1      36.932 -28.151  11.569  0.00  0.00    -0.237 NA
ATOM      8  C   UNL     1      40.626 -28.654  11.227  0.00  0.00    +0.038 A 
ATOM      9  C   UNL     1      41.045 -27.347  10.896  0.00  0.00    +0.032 A 
ATOM     34  C   UNL     1      40.082 -26.318  10.794  0.00  0.00    +0.025 A 
ATOM     35  C   UNL     1      38.712 -26.577  11.016  0.00  0.00    +0.030 A 
ATOM     36  C   UNL     1      38.295 -27.884  11.346  0.00  0.00    +0.078 A 
ENDBRANCH  10   9
ENDBRANCH  12  10
TORSDOF 6
