REMARK  Name = 3iph_ligand
REMARK  7 active torsions:
REMARK  status: ('A' for Active; 'I' for Inactive)
REMARK    1  A    between atoms: C1_1  and  C2_2
REMARK    2  A    between atoms: C4_4  and  C9_9
REMARK    3  A    between atoms: C7_7  and  C12_12
REMARK    4  A    between atoms: C14_14  and  C17_17
REMARK    5  A    between atoms: N15_15  and  C18_18
REMARK    6  A    between atoms: N19_19  and  C23_23
REMARK    7  A    between atoms: C23_23  and  C24_24
REMARK                            x       y       z     vdW  Elec       q    Type
REMARK                         _______ _______ _______ _____ _____    ______ ____
ROOT
ATOM      1  C   UNL     1      40.739  31.224  32.562  0.00  0.00    +0.010 A 
ATOM      2  C   UNL     1      39.739  31.289  31.601  0.00  0.00    -0.028 A 
ATOM      3  C   UNL     1      39.833  32.206  30.386  0.00  0.00    +0.097 C 
ATOM      4  C   UNL     1      38.631  30.463  31.776  0.00  0.00    +0.007 A 
ATOM      5  C   UNL     1      38.507  29.598  32.875  0.00  0.00    +0.021 A 
ATOM      6  C   UNL     1      39.500  29.537  33.849  0.00  0.00    +0.046 A 
ATOM     14  C   UNL     1      40.602  30.375  33.656  0.00  0.00    +0.032 A 
ENDROOT
BRANCH   1  15
ATOM     15  C   UNL     1      41.972  32.037  32.513  0.00  0.00    +0.053 A 
ATOM     16  N   UNL     1      43.027  31.621  31.765  0.00  0.00    -0.288 NA
ATOM     17  C   UNL     1      44.148  32.357  31.736  0.00  0.00    +0.115 A 
ATOM     18  C   UNL     1      44.315  33.533  32.473  0.00  0.00    +0.075 A 
ATOM     27  C   UNL     1      43.238  33.953  33.241  0.00  0.00    +0.053 A 
ATOM     28  C   UNL     1      42.080  33.191  33.262  0.00  0.00    +0.047 A 
BRANCH  18  19
ATOM     19  C   UNL     1      45.542  34.358  32.433  0.00  0.00    +0.211 C 
ATOM     20  O   UNL     1      45.699  35.380  33.097  0.00  0.00    -0.383 OA
ATOM     21  N   UNL     1      46.454  33.938  31.510  0.00  0.00    -0.285 N 
ATOM     22  H   UNL     1      46.224  33.121  30.981  0.00  0.00    +0.185 HD
BRANCH  21  23
ATOM     23  C   UNL     1      47.735  34.576  31.227  0.00  0.00    +0.146 C 
BRANCH  23  24
ATOM     24  C   UNL     1      48.806  33.697  31.843  0.00  0.00    +0.056 C 
ATOM     25  C   UNL     1      50.052  34.363  32.275  0.00  0.00    -0.021 C 
ATOM     26  C   UNL     1      49.022  33.982  33.277  0.00  0.00    -0.021 C 
ENDBRANCH  23  24
ENDBRANCH  21  23
ENDBRANCH  18  19
ENDBRANCH   1  15
BRANCH   6   7
ATOM      7  C   UNL     1      39.509  28.677  35.081  0.00  0.00    +0.201 C 
ATOM      8  O   UNL     1      40.321  28.923  35.989  0.00  0.00    -0.388 OA
ATOM      9  N   UNL     1      38.613  27.640  35.197  0.00  0.00    -0.284 N 
ATOM     10  H   UNL     1      37.929  27.528  34.476  0.00  0.00    +0.185 HD
BRANCH   9  11
ATOM     11  C   UNL     1      38.600  26.711  36.287  0.00  0.00    +0.097 C 
ATOM     12  C   UNL     1      37.212  26.686  36.816  0.00  0.00    +0.030 C 
ATOM     13  C   UNL     1      38.278  27.479  37.520  0.00  0.00    +0.030 C 
ENDBRANCH   9  11
ENDBRANCH   6   7
TORSDOF 6
