REMARK  Name = 3hrf_ligand
REMARK  5 active torsions:
REMARK  status: ('A' for Active; 'I' for Inactive)
REMARK    1  A    between atoms: CAP_2  and  CAD_4
REMARK    2  A    between atoms: CAQ_5  and  CAT_6
REMARK    3  A    between atoms: CAQ_5  and  CAN_12
REMARK    4  A    between atoms: CAN_12  and  CAO_13
REMARK    5  A    between atoms: CAO_13  and  CAS_14
REMARK                            x       y       z     vdW  Elec       q    Type
REMARK                         _______ _______ _______ _____ _____    ______ ____
ROOT
ATOM      3  C   UNL     1      12.355  -6.077 -13.747  0.00  0.00    +0.007 C 
ATOM      4  C   UNL     1      13.644  -6.280 -13.444  0.00  0.00    -0.027 C 
ENDROOT
BRANCH   4  14
ATOM     14  C   UNL     1      14.342  -7.580 -13.733  0.00  0.00    -0.011 A 
ATOM     15  C   UNL     1      13.906  -8.755 -13.106  0.00  0.00    +0.015 A 
ATOM     16  C   UNL     1      14.539  -9.963 -13.377  0.00  0.00    +0.004 A 
ATOM     17  C   UNL     1      15.603 -10.001 -14.272  0.00  0.00    +0.004 A 
ATOM     18  C   UNL     1      16.047  -8.839 -14.902  0.00  0.00    +0.004 A 
ATOM     19  C   UNL     1      15.406  -7.631 -14.636  0.00  0.00    +0.015 A 
ENDBRANCH   4  14
BRANCH   3   2
ATOM      1  O   UNL     1      11.854  -7.614 -15.478  0.00  0.00    -0.570 OA
ATOM      2  C   UNL     1      11.476  -7.063 -14.406  0.00  0.00    +0.037 C 
ATOM     20  O   UNL     1      10.380  -7.303 -13.839  0.00  0.00    -0.570 OA
ENDBRANCH   3   2
BRANCH   4   5
ATOM      5  C   UNL     1      14.337  -5.129 -12.745  0.00  0.00    +0.090 C 
BRANCH   5   6
ATOM      6  C   UNL     1      15.542  -4.517 -13.454  0.00  0.00    +0.083 C 
BRANCH   6   7
ATOM      7  C   UNL     1      16.620  -4.400 -12.396  0.00  0.00    -0.041 A 
ATOM      8  C   UNL     1      16.304  -3.919 -11.117  0.00  0.00    -0.004 A 
ATOM      9  C   UNL     1      17.302  -3.829 -10.147  0.00  0.00    +0.006 A 
ATOM     10  C   UNL     1      18.603  -4.229 -10.472  0.00  0.00    +0.033 A 
ATOM     11  C   UNL     1      18.921  -4.714 -11.742  0.00  0.00    +0.006 A 
ATOM     12 CL   UNL     1      19.892  -4.125  -9.239  0.00  0.00    -0.077 Cl
ATOM     13  C   UNL     1      17.923  -4.795 -12.705  0.00  0.00    -0.004 A 
ENDBRANCH   6   7
ENDBRANCH   5   6
ENDBRANCH   4   5
TORSDOF 5
