REMARK  Name = 5M51
REMARK  5 active torsions:
REMARK  status: ('A' for Active; 'I' for Inactive)
REMARK    1  A    between atoms: C_2  and  C_4
REMARK    2  A    between atoms: C_8  and  N_9
REMARK    3  A    between atoms: C_17  and  O_18
REMARK    4  A    between atoms: O_18  and  C_19
REMARK    5  A    between atoms: C_19  and  C_20
REMARK                            x       y       z     vdW  Elec       q    Type
REMARK                         _______ _______ _______ _____ _____    ______ ____
ROOT
ATOM      6  N   UNL     1      34.522  -3.006  14.975  0.00  0.00    -0.283 N 
ATOM      7  H   UNL     1      35.459  -2.562  15.239  0.00  0.00    +0.155 HD
ATOM      8  C   UNL     1      34.483  -3.691  13.722  0.00  0.00    +0.225 A 
ATOM      9  N   UNL     1      33.453  -4.431  13.331  0.00  0.00    -0.177 NA
ATOM     10  C   UNL     1      33.452  -5.075  12.150  0.00  0.00    +0.246 A 
ATOM     19  C   UNL     1      34.575  -4.965  11.272  0.00  0.00    +0.147 A 
ATOM     20  N   UNL     1      34.920  -5.458  10.040  0.00  0.00    -0.339 N 
ATOM     21  H   UNL     1      34.316  -6.096   9.429  0.00  0.00    +0.167 HD
ATOM     22  C   UNL     1      36.150  -5.001   9.730  0.00  0.00    +0.199 A 
ATOM     23  N   UNL     1      36.589  -4.231  10.748  0.00  0.00    -0.216 NA
ATOM     24  C   UNL     1      35.624  -4.197  11.726  0.00  0.00    +0.186 A 
ATOM     25  N   UNL     1      35.553  -3.571  12.950  0.00  0.00    -0.193 NA
ENDROOT
BRANCH   6   5
ATOM      3  C   UNL     1      31.241  -3.285  16.742  0.00  0.00    +0.038 A 
ATOM      4  C   UNL     1      32.234  -3.475  15.791  0.00  0.00    +0.036 A 
ATOM      5  C   UNL     1      33.458  -2.841  15.922  0.00  0.00    +0.034 A 
ATOM     26  C   UNL     1      33.677  -2.016  17.023  0.00  0.00    +0.023 A 
ATOM     27  C   UNL     1      32.687  -1.822  17.976  0.00  0.00    +0.003 A 
ATOM     28  C   UNL     1      31.464  -2.455  17.835  0.00  0.00    +0.013 A 
BRANCH   3   2
ATOM      1  O   UNL     1      29.519  -4.731  17.446  0.00  0.00    -0.270 OA
ATOM      2  C   UNL     1      29.914  -3.981  16.574  0.00  0.00    +0.242 C 
ATOM     29  N   UNL     1      29.134  -3.761  15.405  0.00  0.00    -0.325 N 
ATOM     30  H   UNL     1      29.488  -3.100  14.642  0.00  0.00    +0.145 HD
ATOM     31  H   UNL     1      28.193  -4.257  15.289  0.00  0.00    +0.145 HD
ENDBRANCH   3   2
ENDBRANCH   6   5
BRANCH  10  11
ATOM     11  O   UNL     1      32.369  -5.851  11.712  0.00  0.00    -0.475 OA
BRANCH  11  12
ATOM     12  C   UNL     1      31.565  -6.462  12.695  0.00  0.00    +0.234 C 
BRANCH  12  13
ATOM     13  C   UNL     1      30.160  -6.329  12.153  0.00  0.00    +0.027 C 
ATOM     14  C   UNL     1      29.138  -7.066  13.005  0.00  0.00    +0.007 C 
ATOM     15  C   UNL     1      28.915  -8.514  12.620  0.00  0.00    +0.000 C 
ATOM     16  C   UNL     1      28.732  -8.686  11.130  0.00  0.00    +0.000 C 
ATOM     17  C   UNL     1      29.946  -8.164  10.394  0.00  0.00    +0.000 C 
ATOM     18  C   UNL     1      30.177  -6.698  10.677  0.00  0.00    +0.007 C 
ENDBRANCH  12  13
ENDBRANCH  11  12
ENDBRANCH  10  11
TORSDOF 5
