REMARK  Name = 5FDP
REMARK  8 active torsions:
REMARK  status: ('A' for Active; 'I' for Inactive)
REMARK    1  A    between atoms: C_4  and  N_25
REMARK    2  A    between atoms: C_8  and  C_32
REMARK    3  A    between atoms: C_11  and  C_14
REMARK    4  A    between atoms: C_15  and  N_26
REMARK    5  A    between atoms: C_17  and  C_21
REMARK    6  A    between atoms: C_19  and  C_22
REMARK    7  A    between atoms: C_22  and  N_33
REMARK    8  A    between atoms: C_31  and  N_34
REMARK                            x       y       z     vdW  Elec       q    Type
REMARK                         _______ _______ _______ _____ _____    ______ ____
ROOT
ATOM     15  C   UNL     1      -4.655   4.439 -41.754  0.00  0.00    +0.248 C 
ATOM     16  O   UNL     1      -5.352   5.182 -41.080  0.00  0.00    -0.270 OA
ATOM     17  N   UNL     1      -4.229   3.142 -41.301  0.00  0.00    -0.281 N 
ATOM     18  H   UNL     1      -3.654   2.536 -41.969  0.00  0.00    +0.155 HD
ENDROOT
BRANCH  15  14
ATOM      7  N   UNL     1      -4.446   8.422 -46.501  0.00  0.00    -0.323 N 
ATOM      8  C   UNL     1      -3.323   7.749 -47.138  0.00  0.00    +0.113 C 
ATOM      9  C   UNL     1      -3.516   6.250 -47.214  0.00  0.00    +0.033 C 
ATOM     10  C   UNL     1      -2.356   5.546 -47.942  0.00  0.00    +0.014 C 
ATOM     11  C   UNL     1      -3.766   5.706 -45.787  0.00  0.00    -0.038 A 
ATOM     12  C   UNL     1      -3.140   4.485 -45.257  0.00  0.00    +0.005 A 
ATOM     13  C   UNL     1      -3.416   4.081 -43.942  0.00  0.00    +0.013 A 
ATOM     14  C   UNL     1      -4.291   4.863 -43.129  0.00  0.00    +0.037 A 
ATOM     37  C   UNL     1      -4.888   6.062 -43.627  0.00  0.00    +0.018 A 
ATOM     38  C   UNL     1      -4.616   6.455 -44.976  0.00  0.00    -0.026 A 
ATOM     39  C   UNL     1      -5.213   7.792 -45.465  0.00  0.00    +0.140 C 
BRANCH   7   6
ATOM      1  C   UNL     1      -6.339   9.970 -46.934  0.00  0.00    +0.137 A 
ATOM      2  N   UNL     1      -6.785  11.175 -47.311  0.00  0.00    -0.242 NA
ATOM      3  C   UNL     1      -5.926  12.114 -47.764  0.00  0.00    +0.221 A 
ATOM      4  N   UNL     1      -4.637  11.916 -47.850  0.00  0.00    -0.242 NA
ATOM      5  C   UNL     1      -4.115  10.748 -47.485  0.00  0.00    +0.137 A 
ATOM      6  C   UNL     1      -4.973   9.687 -46.992  0.00  0.00    +0.067 A 
ENDBRANCH   7   6
ENDBRANCH  15  14
BRANCH  17  19
ATOM     19  C   UNL     1      -4.526   2.633 -40.037  0.00  0.00    +0.035 A 
ATOM     20  C   UNL     1      -3.608   1.731 -39.456  0.00  0.00    +0.028 A 
ATOM     21  C   UNL     1      -3.823   1.258 -38.128  0.00  0.00    -0.031 A 
ATOM     30  C   UNL     1      -4.999   1.613 -37.442  0.00  0.00    +0.017 A 
ATOM     31  C   UNL     1      -5.950   2.488 -38.057  0.00  0.00    +0.057 A 
ATOM     36  C   UNL     1      -5.711   2.981 -39.360  0.00  0.00    +0.035 A 
BRANCH  31  32
ATOM     32  C   UNL     1      -7.265   2.967 -37.321  0.00  0.00    +0.417 C 
ATOM     33  F   UNL     1      -8.325   2.974 -38.151  0.00  0.00    -0.166 F 
ATOM     34  F   UNL     1      -7.134   4.209 -36.885  0.00  0.00    -0.166 F 
ATOM     35  F   UNL     1      -7.491   2.200 -36.244  0.00  0.00    -0.166 F 
ENDBRANCH  31  32
BRANCH  21  22
ATOM     22  C   UNL     1      -2.795   0.324 -37.498  0.00  0.00    +0.119 C 
BRANCH  22  23
ATOM     23  N   UNL     1      -1.638   0.811 -37.248  0.00  0.00    -0.296 NA
ATOM     24  C   UNL     1      -1.477   2.118 -36.906  0.00  0.00    +0.100 C 
ATOM     25  C   UNL     1      -0.170   2.345 -36.157  0.00  0.00    +0.099 C 
ATOM     26  N   UNL     1       0.892   1.815 -36.825  0.00  0.00    -0.303 NA
ATOM     27  C   UNL     1       1.941   1.896 -36.093  0.00  0.00    +0.105 C 
ATOM     28  C   UNL     1       0.736   0.528 -37.274  0.00  0.00    +0.099 C 
ATOM     29  C   UNL     1      -0.607   0.254 -37.951  0.00  0.00    +0.100 C 
ENDBRANCH  22  23
ENDBRANCH  21  22
ENDBRANCH  17  19
TORSDOF 6
