REMARK  Name = 3OCS
REMARK  11 active torsions:
REMARK  status: ('A' for Active; 'I' for Inactive)
REMARK    1  A    between atoms: C_1  and  C_8
REMARK    2  A    between atoms: C_2  and  C_3
REMARK    3  A    between atoms: C_4  and  N_15
REMARK    4  A    between atoms: C_10  and  N_29
REMARK    5  A    between atoms: N_13  and  C_35
REMARK    6  A    between atoms: C_16  and  C_18
REMARK    7  A    between atoms: C_21  and  C_24
REMARK    8  A    between atoms: C_24  and  C_25
REMARK    9  A    between atoms: C_24  and  C_26
REMARK   10  A    between atoms: C_24  and  C_27
REMARK   11  A    between atoms: C_32  and  C_36
REMARK                            x       y       z     vdW  Elec       q    Type
REMARK                         _______ _______ _______ _____ _____    ______ ____
ROOT
ATOM      2  C   UNL     1     -42.926  17.946   9.281  0.00  0.00    +0.064 C 
ATOM      3  C   UNL     1     -43.056  16.826   8.453  0.00  0.00    +0.163 C 
ATOM      4  N   UNL     1     -42.543  15.634   8.846  0.00  0.00    -0.295 N 
ATOM      5  C   UNL     1     -42.685  14.499   7.912  0.00  0.00    +0.132 C 
ATOM      6  C   UNL     1     -41.941  15.488  10.031  0.00  0.00    +0.271 C 
ATOM      7  O   UNL     1     -41.476  14.353  10.390  0.00  0.00    -0.271 OA
ATOM      8  C   UNL     1     -41.814  16.589  10.875  0.00  0.00    +0.282 C 
ATOM     24  N   UNL     1     -42.318  17.785  10.502  0.00  0.00    -0.243 NA
ENDROOT
BRANCH   2   1
ATOM      1  C   UNL     1     -43.485  19.277   8.901  0.00  0.00    +0.002 A 
ATOM     25  C   UNL     1     -44.061  20.029   9.942  0.00  0.00    +0.010 A 
ATOM     26  C   UNL     1     -44.616  21.287   9.683  0.00  0.00    +0.002 A 
ATOM     27  C   UNL     1     -44.619  21.831   8.399  0.00  0.00    +0.023 A 
ATOM     28  C   UNL     1     -44.081  21.098   7.360  0.00  0.00    +0.037 A 
ATOM     43  C   UNL     1     -43.511  19.821   7.587  0.00  0.00    -0.020 A 
ATOM     44  C   UNL     1     -42.896  19.038   6.433  0.00  0.00    +0.046 C 
BRANCH  28  29
ATOM     29  N   UNL     1     -44.036  21.598   6.087  0.00  0.00    -0.281 N 
ATOM     30  H   UNL     1     -43.319  22.360   5.861  0.00  0.00    +0.155 HD
ATOM     31  C   UNL     1     -44.847  21.177   5.115  0.00  0.00    +0.248 C 
ATOM     42  O   UNL     1     -45.755  20.366   5.298  0.00  0.00    -0.270 OA
BRANCH  31  32
ATOM     32  C   UNL     1     -44.575  21.665   3.708  0.00  0.00    +0.037 A 
ATOM     33  C   UNL     1     -43.255  22.056   3.411  0.00  0.00    +0.013 A 
ATOM     34  C   UNL     1     -42.939  22.455   2.106  0.00  0.00    +0.005 A 
ATOM     35  C   UNL     1     -43.929  22.465   1.091  0.00  0.00    -0.042 A 
ATOM     40  C   UNL     1     -45.242  22.056   1.402  0.00  0.00    +0.005 A 
ATOM     41  C   UNL     1     -45.554  21.633   2.701  0.00  0.00    +0.013 A 
BRANCH  35  36
ATOM     36  C   UNL     1     -43.594  22.940  -0.310  0.00  0.00    -0.013 C 
ATOM     37  C   UNL     1     -42.313  22.291  -0.848  0.00  0.00    +0.015 C 
ATOM     38  C   UNL     1     -44.735  22.652  -1.277  0.00  0.00    +0.015 C 
ATOM     39  C   UNL     1     -43.371  24.452  -0.258  0.00  0.00    +0.015 C 
ENDBRANCH  35  36
ENDBRANCH  31  32
ENDBRANCH  28  29
ENDBRANCH   2   1
BRANCH   8   9
ATOM      9  N   UNL     1     -41.201  16.377  12.064  0.00  0.00    -0.241 NA
ATOM     10  C   UNL     1     -40.955  17.222  13.104  0.00  0.00    +0.061 C 
ATOM     11  C   UNL     1     -40.358  16.643  14.222  0.00  0.00    +0.024 C 
ATOM     12  C   UNL     1     -40.042  17.398  15.336  0.00  0.00    -0.003 C 
ATOM     13  C   UNL     1     -40.316  18.761  15.335  0.00  0.00    +0.105 C 
ATOM     22  C   UNL     1     -40.935  19.354  14.224  0.00  0.00    -0.003 C 
ATOM     23  C   UNL     1     -41.265  18.581  13.110  0.00  0.00    +0.024 C 
BRANCH  13  14
ATOM     14  C   UNL     1     -39.942  19.575  16.552  0.00  0.00    +0.231 C 
ATOM     15  N   UNL     1     -38.709  19.468  17.093  0.00  0.00    -0.296 N 
ATOM     16  C   UNL     1     -37.635  18.604  16.535  0.00  0.00    +0.136 C 
ATOM     17  C   UNL     1     -36.988  17.786  17.650  0.00  0.00    +0.178 C 
ATOM     18  O   UNL     1     -36.588  18.680  18.686  0.00  0.00    -0.377 OA
ATOM     19  C   UNL     1     -37.726  19.312  19.288  0.00  0.00    +0.178 C 
ATOM     20  C   UNL     1     -38.339  20.271  18.270  0.00  0.00    +0.136 C 
ATOM     21  O   UNL     1     -40.786  20.329  17.001  0.00  0.00    -0.274 OA
ENDBRANCH  13  14
ENDBRANCH   8   9
TORSDOF 6
