REMARK  Name = EAZ
REMARK  6 active torsions:
REMARK  status: ('A' for Active; 'I' for Inactive)
REMARK    1  A    between atoms: C1_1  and  C8_19
REMARK    2  A    between atoms: C18_8  and  C19_9
REMARK    3  A    between atoms: C18_8  and  O7_18
REMARK    4  A    between atoms: C19_9  and  C20_10
REMARK    5  A    between atoms: C20_10  and  C21_11
REMARK    6  A    between atoms: C5_16  and  O7_18
REMARK                            x       y       z     vdW  Elec       q    Type
REMARK                         _______ _______ _______ _____ _____    ______ ____
ROOT
ATOM      1  C   UNL     1      -5.966  17.053  30.586  0.00  0.00    +0.022 A 
ATOM      2  C   UNL     1      -4.578  17.121  30.766  0.00  0.00    +0.099 A 
ATOM      3  N   UNL     1      -3.831  15.995  30.795  0.00  0.00    -0.239 NA
ATOM      4  C   UNL     1      -4.387  14.775  30.657  0.00  0.00    +0.136 A 
ATOM      5  C   UNL     1      -5.769  14.645  30.463  0.00  0.00    +0.158 A 
ATOM     24  C   UNL     1      -6.559  15.795  30.436  0.00  0.00    +0.040 A 
ENDROOT
BRANCH   1  14
ATOM     14  C   UNL     1      -6.793  18.288  30.555  0.00  0.00    +0.002 A 
ATOM     15  C   UNL     1      -8.144  18.229  30.926  0.00  0.00    +0.003 A 
ATOM     16  C   UNL     1      -8.859  19.429  30.874  0.00  0.00    +0.035 A 
ATOM     17  C   UNL     1     -10.275  19.854  31.160  0.00  0.00    +0.082 A 
ATOM     18  C   UNL     1     -11.398  18.979  31.634  0.00  0.00    +0.054 C 
ATOM     19  N   UNL     1     -10.364  21.107  30.936  0.00  0.00    -0.152 NA
ATOM     20  N   UNL     1      -9.188  21.623  30.516  0.00  0.00    -0.148 NA
ATOM     21  C   UNL     1      -8.284  20.629  30.479  0.00  0.00    +0.104 A 
ATOM     22  C   UNL     1      -6.945  20.705  30.109  0.00  0.00    +0.021 A 
ATOM     23  C   UNL     1      -6.208  19.511  30.161  0.00  0.00    +0.002 A 
ENDBRANCH   1  14
BRANCH   5   6
ATOM      6  O   UNL     1      -6.366  13.392  30.315  0.00  0.00    -0.472 OA
BRANCH   6   7
ATOM      7  C   UNL     1      -7.636  13.139  29.696  0.00  0.00    +0.224 C 
BRANCH   7   8
ATOM      8  C   UNL     1      -7.830  11.608  29.835  0.00  0.00    +0.135 C 
ATOM     13  N   UNL     1      -6.703  10.915  29.180  0.00  0.00    -0.129 NA
BRANCH   8   9
ATOM      9  C   UNL     1      -7.899  11.163  31.320  0.00  0.00    +0.023 C 
BRANCH   9  10
ATOM     10  C   UNL     1      -9.039  11.833  32.143  0.00  0.00    +0.002 C 
ATOM     11  C   UNL     1      -9.637  10.793  33.127  0.00  0.00    +0.000 C 
ATOM     12  C   UNL     1      -8.524  13.070  32.932  0.00  0.00    +0.000 C 
ENDBRANCH   9  10
ENDBRANCH   8   9
ENDBRANCH   7   8
ENDBRANCH   6   7
ENDBRANCH   5   6
TORSDOF 6
