REMARK  Name = 5TR6
REMARK  5 active torsions:
REMARK  status: ('A' for Active; 'I' for Inactive)
REMARK    1  A    between atoms: C_1  and  C_3
REMARK    2  A    between atoms: C_6  and  N_19
REMARK    3  A    between atoms: C_9  and  N_10
REMARK    4  A    between atoms: C_14  and  N_15
REMARK    5  A    between atoms: N_15  and  C_16
REMARK                            x       y       z     vdW  Elec       q    Type
REMARK                         _______ _______ _______ _____ _____    ______ ____
ROOT
ATOM      6  C   UNL     1      -2.369  -0.631  14.529  0.00  0.00    +0.089 A 
ATOM      7  C   UNL     1      -3.696  -0.389  14.993  0.00  0.00    +0.070 A 
ATOM      8  C   UNL     1      -4.377   0.632  15.820  0.00  0.00    +0.247 C 
ATOM      9  O   UNL     1      -3.874   1.605  16.346  0.00  0.00    -0.270 OA
ATOM     10  N   UNL     1      -5.668   0.340  15.980  0.00  0.00    -0.307 N 
ATOM     11  H   UNL     1      -6.364   0.918  16.552  0.00  0.00    +0.149 HD
ATOM     12  C   UNL     1      -5.988  -0.888  15.257  0.00  0.00    +0.143 C 
ATOM     13  C   UNL     1      -4.691  -1.342  14.648  0.00  0.00    +0.022 A 
ATOM     14  C   UNL     1      -4.372  -2.452  13.900  0.00  0.00    +0.168 A 
ATOM     15  F   UNL     1      -5.349  -3.331  13.605  0.00  0.00    -0.202 F 
ATOM     16  C   UNL     1      -3.051  -2.639  13.461  0.00  0.00    +0.156 A 
ATOM     28  N   UNL     1      -2.132  -1.728  13.792  0.00  0.00    -0.228 NA
ENDROOT
BRANCH   6   1
ATOM      1  C   UNL     1      -1.188   0.253  14.771  0.00  0.00    +0.039 A 
ATOM      2  C   UNL     1      -1.072   1.411  15.508  0.00  0.00    +0.118 A 
ATOM      3  N   UNL     1       0.207   1.851  15.406  0.00  0.00    -0.274 N 
ATOM      4  N   UNL     1       0.903   0.958  14.582  0.00  0.00    -0.179 NA
ATOM      5  C   UNL     1       0.795   3.049  16.022  0.00  0.00    +0.172 C 
ATOM     29  C   UNL     1       0.085   0.012  14.207  0.00  0.00    +0.144 A 
ENDBRANCH   6   1
BRANCH  16  17
ATOM     17  N   UNL     1      -2.715  -3.758  12.692  0.00  0.00    -0.322 N 
ATOM     18  H   UNL     1      -3.484  -4.428  12.369  0.00  0.00    +0.148 HD
BRANCH  17  19
ATOM     19  C   UNL     1      -1.307  -4.027  12.319  0.00  0.00    +0.088 C 
ATOM     20  C   UNL     1      -0.549  -4.628  13.526  0.00  0.00    +0.071 C 
ATOM     24  C   UNL     1       0.934  -4.855  13.146  0.00  0.00    +0.020 C 
ATOM     25  C   UNL     1       1.063  -5.749  11.890  0.00  0.00    +0.002 C 
ATOM     26  C   UNL     1       0.265  -5.172  10.703  0.00  0.00    +0.002 C 
ATOM     27  C   UNL     1      -1.217  -4.949  11.079  0.00  0.00    +0.024 C 
BRANCH  20  21
ATOM     21  N   UNL     1      -1.173  -5.890  13.981  0.00  0.00    -0.326 NA
ATOM     22  H   UNL     1      -2.185  -5.703  14.275  0.00  0.00    +0.118 HD
ATOM     23  H   UNL     1      -1.160  -6.603  13.183  0.00  0.00    +0.118 HD
ENDBRANCH  20  21
ENDBRANCH  17  19
ENDBRANCH  16  17
TORSDOF 4
