REMARK  Name = 1NN5
REMARK  5 active torsions:
REMARK  status: ('A' for Active; 'I' for Inactive)
REMARK    1  A    between atoms: P_1  and  O_5
REMARK    2  A    between atoms: O_5  and  C_16
REMARK    3  A    between atoms: N_6  and  C_19
REMARK    4  A    between atoms: C_13  and  C_14
REMARK    5  A    between atoms: C_16  and  C_17
REMARK                            x       y       z     vdW  Elec       q    Type
REMARK                         _______ _______ _______ _____ _____    ______ ____
ROOT
ATOM      4  C   UNL     1      14.589  74.950  26.155  0.00  0.00    +0.170 C 
ATOM      5  C   UNL     1      13.366  75.467  26.816  0.00  0.00    +0.007 C 
ATOM      6  C   UNL     1      13.081  76.673  26.408  0.00  0.00    +0.025 C 
ATOM      7  C   UNL     1      14.120  77.125  25.416  0.00  0.00    +0.248 C 
ATOM     18  O   UNL     1      14.914  75.989  25.191  0.00  0.00    -0.343 OA
ENDROOT
BRANCH   7   8
ATOM      8  N   UNL     1      13.534  77.542  24.131  0.00  0.00    -0.270 N 
ATOM      9  C   UNL     1      13.927  78.789  23.649  0.00  0.00    +0.332 C 
ATOM     10  N   UNL     1      13.468  79.097  22.373  0.00  0.00    -0.275 N 
ATOM     11  H   UNL     1      13.739  80.050  21.969  0.00  0.00    +0.173 HD
ATOM     12  C   UNL     1      12.689  78.270  21.584  0.00  0.00    +0.257 C 
ATOM     13  C   UNL     1      12.359  76.999  22.136  0.00  0.00    +0.030 C 
ATOM     14  C   UNL     1      11.494  76.055  21.318  0.00  0.00    +0.051 C 
ATOM     15  O   UNL     1      12.389  78.681  20.456  0.00  0.00    -0.267 OA
ATOM     16  O   UNL     1      14.593  79.576  24.301  0.00  0.00    -0.246 OA
ATOM     17  C   UNL     1      12.759  76.679  23.372  0.00  0.00    +0.102 C 
ENDBRANCH   7   8
BRANCH   4   3
ATOM      3  C   UNL     1      14.421  73.678  25.360  0.00  0.00    +0.199 C 
BRANCH   3   2
ATOM      2  O   UNL     1      14.381  72.644  26.358  0.00  0.00    -0.364 OA
BRANCH   2   1
ATOM      1  P   UNL     1      14.566  71.128  26.028  0.00  0.00    -0.015 P 
ATOM     19  O   UNL     1      14.447  70.694  24.603  0.00  0.00    -0.638 OA
ATOM     20  O   UNL     1      13.607  70.490  26.994  0.00  0.00    -0.577 OA
ATOM     21  O   UNL     1      16.006  70.969  26.531  0.00  0.00    -0.577 OA
ENDBRANCH   2   1
ENDBRANCH   3   2
ENDBRANCH   4   3
TORSDOF 4
