REMARK  Name = 3fy0_ligand
REMARK  2 active torsions:
REMARK  status: ('A' for Active; 'I' for Inactive)
REMARK    1  A    between atoms: C10_2  and  RU_31
REMARK    2  A    between atoms: C25_16  and  O15_19
REMARK                            x       y       z     vdW  Elec       q    Type
REMARK                         _______ _______ _______ _____ _____    ______ ____
ROOT
ATOM      3 RU   UNL     1      12.859  16.087  42.066  0.00  0.00    +8.000 Ru
ATOM      4  N   UNL     1      11.637  16.258  43.808  0.00  0.00    -0.271 NA
ATOM      5  H   UNL     1      12.040  16.165  42.865  0.00  0.00    +0.220 HD
ATOM      6  C   UNL     1      12.303  16.246  44.902  0.00  0.00    +0.100 A 
ATOM      7  C   UNL     1      13.678  16.104  44.926  0.00  0.00    +0.082 A 
ATOM      8  C   UNL     1      14.356  16.073  46.161  0.00  0.00    +0.020 A 
ATOM      9  C   UNL     1      13.559  16.203  47.333  0.00  0.00    +0.072 A 
ATOM     10  C   UNL     1      13.876  16.220  48.699  0.00  0.00    +0.230 C 
ATOM     11  O   UNL     1      14.972  16.124  49.194  0.00  0.00    -0.373 OA
ATOM     12  N   UNL     1      12.735  16.364  49.455  0.00  0.00    -0.200 N 
ATOM     13  H   UNL     1      12.686  16.407  50.453  0.00  0.00    +0.221 HD
ATOM     14  C   UNL     1      11.684  16.437  48.590  0.00  0.00    +0.237 C 
ATOM     15  O   UNL     1      10.540  16.562  48.965  0.00  0.00    -0.365 OA
ATOM     16  C   UNL     1      12.151  16.342  47.272  0.00  0.00    +0.070 A 
ATOM     17  C   UNL     1      15.751  15.927  46.101  0.00  0.00    +0.038 A 
ATOM     18  C   UNL     1      16.365  15.823  44.833  0.00  0.00    +0.036 A 
ATOM     19  C   UNL     1      15.630  15.859  43.630  0.00  0.00    +0.094 A 
ATOM     20  C   UNL     1      11.507  16.362  46.021  0.00  0.00    +0.022 A 
ATOM     21  C   UNL     1      10.179  16.478  45.460  0.00  0.00    -0.008 A 
ATOM     22  C   UNL     1       8.903  16.634  46.014  0.00  0.00    +0.009 A 
ATOM     23  C   UNL     1       7.784  16.720  45.156  0.00  0.00    +0.075 A 
ATOM     26  C   UNL     1       7.986  16.649  43.760  0.00  0.00    +0.010 A 
ATOM     27  C   UNL     1       9.274  16.493  43.214  0.00  0.00    +0.009 A 
ATOM     28  C   UNL     1      10.379  16.406  44.073  0.00  0.00    +0.061 A 
ATOM     29  N   UNL     1      14.280  15.996  43.683  0.00  0.00    -0.293 N 
ATOM     30  C   UNL     1      12.413  17.911  40.863  0.00  0.00    +0.139 C 
ATOM     31  C   UNL     1      13.777  17.928  41.182  0.00  0.00    -0.018 C 
ATOM     32  C   UNL     1      14.376  16.796  40.630  0.00  0.00    -0.052 C 
ATOM     33  C   UNL     1      13.386  16.079  39.957  0.00  0.00    -0.052 C 
ATOM     34  C   UNL     1      12.165  16.762  40.108  0.00  0.00    -0.018 C 
ENDROOT
BRANCH   3   2
ATOM      1  O   UNL     1      12.586  13.096  42.065  0.00  0.00    -0.356 OA
ATOM      2  C   UNL     1      12.660  14.240  42.094  0.00  0.00    +0.357 C 
ENDBRANCH   3   2
BRANCH  23  24
ATOM     24  O   UNL     1       6.504  16.859  45.619  0.00  0.00    -0.341 OA
ATOM     25  H   UNL     1       6.513  16.893  46.568  0.00  0.00    +0.245 HD
ENDBRANCH  23  24
TORSDOF 2
