REMARK  Name = LDC
REMARK  2 active torsions:
REMARK  status: ('A' for Active; 'I' for Inactive)
REMARK    1  A    between atoms: N2_8  and  C8_9
REMARK    2  A    between atoms: C11_13  and  C12_15
REMARK                            x       y       z     vdW  Elec       q    Type
REMARK                         _______ _______ _______ _____ _____    ______ ____
ROOT
ATOM      1  O2    C A   1      48.910  67.202 100.325  0.00  0.00    -0.244 OA
ATOM      2  C2    C A   1      47.848  66.572 100.248  0.00  0.00    +0.353 A 
ATOM      3  N3    C A   1      46.697  67.310 100.646  0.00  0.00    -0.174 NA
ATOM      4  C4    C A   1      45.524  66.819 100.604  0.00  0.00    +0.176 A 
ATOM      5  N4    C A   1      44.454  67.548 100.946  0.00  0.00    -0.107 NA
ATOM      6  C5    C A   1      45.421  65.417 100.106  0.00  0.00    +0.057 A 
ATOM      7  C6    C A   1      46.565  64.727  99.763  0.00  0.00    +0.085 A 
ATOM      8  N1    C A   1      47.758  65.336  99.827  0.00  0.00    -0.256 N 
ENDROOT
BRANCH   8   9
ATOM      9  C1*   C A   1      49.008  64.669  99.427  0.00  0.00    +0.211 C 
ATOM     10  O4*   C A   1      48.850  63.252  99.391  0.00  0.00    -0.333 OA
ATOM     11  C4*   C A   1      49.292  62.612  98.167  0.00  0.00    +0.180 C 
ATOM     12  C3*   C A   1      50.016  63.743  97.399  0.00  0.00    +0.186 C 
ATOM     13  O3*   C A   1      51.424  63.768  97.555  0.00  0.00    -0.220 OA
ATOM     16  C2*   C A   1      49.454  65.067  97.990  0.00  0.00    +0.089 C 
BRANCH  11  14
ATOM     14  C5*   C A   1      48.140  61.987  97.355  0.00  0.00    +0.214 C 
ATOM     15  O5*   C A   1      47.381  61.010  98.107  0.00  0.00    -0.218 OA
ENDBRANCH  11  14
ENDBRANCH   8   9
TORSDOF 2
