REMARK  Name = 4ITI
REMARK  8 active torsions:
REMARK  status: ('A' for Active; 'I' for Inactive)
REMARK    1  A    between atoms: C_5  and  O_30
REMARK    2  A    between atoms: C_7  and  C_22
REMARK    3  A    between atoms: C_12  and  O_15
REMARK    4  A    between atoms: O_15  and  C_16
REMARK    5  A    between atoms: C_25  and  O_26
REMARK    6  A    between atoms: C_25  and  C_27
REMARK    7  A    between atoms: C_27  and  O_28
REMARK    8  A    between atoms: O_30  and  C_31
REMARK                            x       y       z     vdW  Elec       q    Type
REMARK                         _______ _______ _______ _____ _____    ______ ____
ROOT
ATOM      1  C   UNL     1     -22.500   6.333 -23.473  0.00  0.00    +0.008 A 
ATOM      2  C   UNL     1     -21.309   5.614 -23.400  0.00  0.00    +0.046 A 
ATOM      3  C   UNL     1     -20.314   5.948 -22.484  0.00  0.00    +0.121 A 
ATOM      6  C   UNL     1     -20.475   7.016 -21.607  0.00  0.00    +0.056 A 
ATOM      7  C   UNL     1     -21.646   7.757 -21.650  0.00  0.00    +0.009 A 
ATOM      8  C   UNL     1     -21.899   8.914 -20.742  0.00  0.00    +0.125 C 
ATOM      9  N   UNL     1     -21.236   9.227 -19.725  0.00  0.00    +0.002 NA
ATOM     10  N   UNL     1     -21.957  10.204 -19.021  0.00  0.00    -0.043 N 
ATOM     11  C   UNL     1     -21.485  10.798 -17.931  0.00  0.00    +0.395 C 
ATOM     17  C   UNL     1     -23.252  10.513 -19.615  0.00  0.00    +0.339 C 
ATOM     30  C   UNL     1     -23.069   9.816 -20.962  0.00  0.00    +0.121 C 
ATOM     31  C   UNL     1     -24.252   8.936 -21.351  0.00  0.00    +0.021 C 
ATOM     32  C   UNL     1     -23.992   8.211 -22.672  0.00  0.00    +0.037 C 
ATOM     33  C   UNL     1     -22.709   7.405 -22.620  0.00  0.00    -0.038 A 
ENDROOT
BRANCH  17  18
ATOM     18  C   UNL     1     -24.329   9.825 -18.871  0.00  0.00    +0.026 A 
ATOM     19  C   UNL     1     -24.042   8.682 -18.127  0.00  0.00    +0.014 A 
ATOM     20  C   UNL     1     -25.035   8.013 -17.418  0.00  0.00    +0.049 A 
ATOM     21  C   UNL     1     -26.341   8.485 -17.446  0.00  0.00    +0.165 A 
ATOM     22  C   UNL     1     -26.647   9.701 -18.237  0.00  0.00    +0.166 A 
ATOM     23  F   UNL     1     -27.899  10.181 -18.284  0.00  0.00    -0.202 F 
ATOM     29  C   UNL     1     -25.623  10.331 -18.926  0.00  0.00    +0.052 A 
BRANCH  21  24
ATOM     24  O   UNL     1     -27.335   7.847 -16.758  0.00  0.00    -0.403 OA
BRANCH  24  25
ATOM     25  C   UNL     1     -27.014   6.830 -15.814  0.00  0.00    +0.575 C 
ATOM     26  F   UNL     1     -27.709   7.020 -14.711  0.00  0.00    -0.133 F 
ATOM     27  F   UNL     1     -25.727   6.884 -15.538  0.00  0.00    -0.133 F 
ATOM     28  F   UNL     1     -27.309   5.649 -16.323  0.00  0.00    -0.133 F 
ENDBRANCH  24  25
ENDBRANCH  21  24
ENDBRANCH  17  18
BRANCH   3   4
ATOM      4  O   UNL     1     -19.160   5.216 -22.445  0.00  0.00    -0.495 OA
ATOM      5  C   UNL     1     -18.094   5.620 -21.587  0.00  0.00    +0.277 C 
ENDBRANCH   3   4
BRANCH  11  15
ATOM     15  O   UNL     1     -22.072  11.700 -17.357  0.00  0.00    -0.459 OA
ATOM     16  H   UNL     1     -22.200  12.509 -18.014  0.00  0.00    +0.298 HD
ENDBRANCH  11  15
BRANCH  11  12
ATOM     12  C   UNL     1     -20.154  10.307 -17.418  0.00  0.00    +0.309 C 
BRANCH  12  13
ATOM     13  O   UNL     1     -19.631  11.254 -16.481  0.00  0.00    -0.381 OA
ATOM     14  H   UNL     1     -19.505  12.182 -16.955  0.00  0.00    +0.210 HD
ENDBRANCH  12  13
ENDBRANCH  11  12
TORSDOF 7
