REMARK  Name = 5UT6
REMARK  5 active torsions:
REMARK  status: ('A' for Active; 'I' for Inactive)
REMARK    1  A    between atoms: C_1  and  N_19
REMARK    2  A    between atoms: C_4  and  C_14
REMARK    3  A    between atoms: C_6  and  C_7
REMARK    4  A    between atoms: C_10  and  N_17
REMARK    5  A    between atoms: C_14  and  O_23
REMARK                            x       y       z     vdW  Elec       q    Type
REMARK                         _______ _______ _______ _____ _____    ______ ____
ROOT
ATOM      1  C   UNL     1     -28.982  16.590  75.720  0.00  0.00    +0.123 A 
ATOM      5  N   UNL     1     -30.248  16.860  75.917  0.00  0.00    -0.200 NA
ATOM      6  C   UNL     1     -31.016  15.945  76.531  0.00  0.00    +0.223 A 
ATOM      7  N   UNL     1     -30.567  14.797  76.953  0.00  0.00    -0.195 NA
ATOM      8  C   UNL     1     -29.304  14.461  76.800  0.00  0.00    +0.161 A 
ATOM      9  N   UNL     1     -28.827  13.280  77.195  0.00  0.00    -0.221 N 
ATOM     10  N   UNL     1     -27.514  12.897  77.132  0.00  0.00    -0.168 NA
ATOM     11  C   UNL     1     -27.429  11.631  77.557  0.00  0.00    +0.089 A 
ATOM     15  C   UNL     1     -28.702  11.219  77.875  0.00  0.00    +0.047 A 
ATOM     16  C   UNL     1     -29.565  12.277  77.619  0.00  0.00    +0.116 A 
ATOM     17  N   UNL     1     -32.368  16.343  76.690  0.00  0.00    -0.283 N 
ATOM     18  H   UNL     1     -32.609  17.314  76.310  0.00  0.00    +0.155 HD
ATOM     27  C   UNL     1     -28.475  15.360  76.158  0.00  0.00    +0.091 A 
ENDROOT
BRANCH  17  19
ATOM     19  C   UNL     1     -33.465  15.624  77.292  0.00  0.00    +0.034 A 
ATOM     20  C   UNL     1     -33.290  14.525  78.133  0.00  0.00    +0.024 A 
ATOM     21  C   UNL     1     -34.418  13.928  78.682  0.00  0.00    +0.021 A 
ATOM     22  C   UNL     1     -35.662  14.445  78.378  0.00  0.00    +0.052 A 
ATOM     23  C   UNL     1     -35.820  15.527  77.539  0.00  0.00    +0.021 A 
ATOM     26  C   UNL     1     -34.711  16.131  76.990  0.00  0.00    +0.024 A 
BRANCH  22  24
ATOM     24  C   UNL     1     -36.920  13.815  78.954  0.00  0.00    +0.099 C 
ATOM     25  N   UNL     1     -37.871  13.368  79.363  0.00  0.00    -0.191 NA
ENDBRANCH  22  24
ENDBRANCH  17  19
BRANCH   1   2
ATOM      2  N   UNL     1     -28.105  17.527  75.040  0.00  0.00    -0.343 N 
ATOM      3  H   UNL     1     -28.486  18.468  74.703  0.00  0.00    +0.144 HD
ATOM      4  H   UNL     1     -27.078  17.276  74.876  0.00  0.00    +0.144 HD
ENDBRANCH   1   2
BRANCH  11  12
ATOM     12  C   UNL     1     -26.163  10.783  77.670  0.00  0.00    +0.212 C 
BRANCH  12  13
ATOM     13  O   UNL     1     -25.520  10.870  76.420  0.00  0.00    -0.389 OA
ATOM     14  H   UNL     1     -26.157  10.500  75.672  0.00  0.00    +0.210 HD
ENDBRANCH  12  13
ENDBRANCH  11  12
TORSDOF 5
