REMARK  Name = 3tcp_ligand
REMARK  8 active torsions:
REMARK  status: ('A' for Active; 'I' for Inactive)
REMARK    1  A    between atoms: C01_4  and  C32_23
REMARK    2  A    between atoms: N01_5  and  C02_6
REMARK    3  A    between atoms: C02_6  and  C03_8
REMARK    4  A    between atoms: N02_7  and  C32_23
REMARK    5  A    between atoms: C03_8  and  C04_9
REMARK    6  A    between atoms: C04_9  and  C05_10
REMARK    7  A    between atoms: C06_11  and  C31_22
REMARK    8  A    between atoms: C37_27  and  N39_29
REMARK                            x       y       z     vdW  Elec       q    Type
REMARK                         _______ _______ _______ _____ _____    ______ ____
ROOT
ATOM      8  C   UNL     1       3.181 -18.110  15.317  0.00  0.00    +0.069 A 
ATOM      9  C   UNL     1       2.931 -19.055  16.333  0.00  0.00    +0.057 A 
ATOM     10  C   UNL     1       3.769 -18.782  17.310  0.00  0.00    +0.161 A 
ATOM     11  N   UNL     1       3.811 -19.528  18.483  0.00  0.00    -0.239 NA
ATOM     12  C   UNL     1       2.943 -20.558  18.604  0.00  0.00    +0.179 A 
ATOM     13  N   UNL     1       2.079 -20.834  17.607  0.00  0.00    -0.261 NA
ATOM     14  N   UNL     1       2.944 -21.291  19.740  0.00  0.00    -0.292 N 
ATOM     15  H   UNL     1       2.360 -22.125  19.799  0.00  0.00    +0.186 HD
ATOM     20  N   UNL     1       4.551 -17.705  16.985  0.00  0.00    -0.183 N 
ATOM     32  C   UNL     1       2.047 -20.118  16.468  0.00  0.00    +0.109 A 
ATOM     33  N   UNL     1       4.191 -17.269  15.715  0.00  0.00    -0.194 NA
ENDROOT
BRANCH   8   7
ATOM      1  C   UNL     1       3.203 -17.363  12.952  0.00  0.00    +0.006 A 
ATOM      2  C   UNL     1       2.620 -17.206  11.699  0.00  0.00    +0.033 A 
ATOM      3  C   UNL     1       1.321 -17.654  11.494  0.00  0.00    +0.133 A 
ATOM      4  C   UNL     1       0.611 -18.266  12.534  0.00  0.00    +0.033 A 
ATOM      5  C   UNL     1       1.195 -18.426  13.789  0.00  0.00    +0.006 A 
ATOM      6  F   UNL     1       0.758 -17.499  10.284  0.00  0.00    -0.183 F 
ATOM      7  C   UNL     1       2.500 -17.976  13.994  0.00  0.00    -0.011 A 
ENDBRANCH   8   7
BRANCH  14  16
ATOM     16  C   UNL     1       3.764 -20.911  20.881  0.00  0.00    +0.135 C 
BRANCH  16  17
ATOM     17  C   UNL     1       3.427 -19.553  21.496  0.00  0.00    +0.024 C 
BRANCH  17  18
ATOM     18  C   UNL     1       4.320 -19.250  22.695  0.00  0.00    -0.001 C 
ATOM     19  C   UNL     1       5.638 -18.638  22.277  0.00  0.00    +0.004 C 
ENDBRANCH  17  18
ENDBRANCH  16  17
ENDBRANCH  14  16
BRANCH  20  21
ATOM     21  C   UNL     1       5.586 -17.108  17.827  0.00  0.00    +0.198 C 
BRANCH  21  22
ATOM     22  C   UNL     1       5.068 -15.799  18.423  0.00  0.00    +0.021 C 
ATOM     23  C   UNL     1       6.108 -15.252  19.399  0.00  0.00    +0.012 C 
ATOM     24  C   UNL     1       5.661 -13.915  19.998  0.00  0.00    +0.055 C 
ATOM     25  C   UNL     1       4.310 -14.026  20.713  0.00  0.00    +0.061 C 
ATOM     30  C   UNL     1       3.249 -14.665  19.802  0.00  0.00    +0.055 C 
ATOM     31  C   UNL     1       3.735 -15.977  19.166  0.00  0.00    +0.012 C 
BRANCH  25  26
ATOM     26  N   UNL     1       3.911 -12.691  21.115  0.00  0.00    +0.221 N 
ATOM     27  H   UNL     1       3.827 -12.099  20.288  0.00  0.00    +0.200 HD
ATOM     28  H   UNL     1       4.614 -12.302  21.743  0.00  0.00    +0.200 HD
ATOM     29  H   UNL     1       3.012 -12.736  21.595  0.00  0.00    +0.200 HD
ENDBRANCH  25  26
ENDBRANCH  21  22
ENDBRANCH  20  21
TORSDOF 7
