REMARK  Name = 4f4p_ligand
REMARK  4 active torsions:
REMARK  status: ('A' for Active; 'I' for Inactive)
REMARK    1  A    between atoms: C1_1  and  N24_25
REMARK    2  A    between atoms: C4_4  and  C7_7
REMARK    3  A    between atoms: N13_10  and  C10_22
REMARK    4  A    between atoms: C17_12  and  C20_17
REMARK                            x       y       z     vdW  Elec       q    Type
REMARK                         _______ _______ _______ _____ _____    ______ ____
ROOT
ATOM     14  C   UNL     1      -0.213  -0.683  13.907  0.00  0.00    +0.035 A 
ATOM     15  C   UNL     1      -1.147  -1.619  14.333  0.00  0.00    +0.021 A 
ATOM     16  C   UNL     1      -0.780  -2.574  15.265  0.00  0.00    +0.018 A 
ATOM     17  C   UNL     1       0.498  -2.590  15.798  0.00  0.00    +0.051 A 
ATOM     18  C   UNL     1       1.422  -1.636  15.391  0.00  0.00    +0.133 A 
ATOM     31  N   UNL     1       1.059  -0.686  14.468  0.00  0.00    -0.277 NA
ENDROOT
BRANCH  18  19
ATOM     19  N   UNL     1       2.733  -1.712  15.903  0.00  0.00    -0.240 N 
ATOM     20  H   UNL     1       2.886  -2.393  16.661  0.00  0.00    +0.217 HD
ATOM     21  C   UNL     1       3.853  -0.971  15.503  0.00  0.00    +0.165 A 
ATOM     22  N   UNL     1       4.986  -1.146  16.279  0.00  0.00    -0.249 NA
ATOM     23  C   UNL     1       6.142  -0.440  16.005  0.00  0.00    +0.112 A 
ATOM     24  C   UNL     1       6.172   0.453  14.957  0.00  0.00    +0.064 A 
ATOM     25  C   UNL     1       5.051   0.619  14.170  0.00  0.00    +0.059 A 
ATOM     30  C   UNL     1       3.877  -0.078  14.438  0.00  0.00    +0.105 A 
BRANCH  25  26
ATOM     26  C   UNL     1       5.133   1.619  13.054  0.00  0.00    +0.386 C 
ATOM     27  F   UNL     1       4.169   1.437  12.104  0.00  0.00    -0.212 F 
ATOM     28  F   UNL     1       6.361   1.548  12.475  0.00  0.00    -0.212 F 
ATOM     29  F   UNL     1       4.989   2.840  13.614  0.00  0.00    -0.212 F 
ENDBRANCH  25  26
ENDBRANCH  18  19
BRANCH  14  13
ATOM      1  C   UNL     1      -0.140   2.673  12.321  0.00  0.00    +0.043 A 
ATOM     10  C   UNL     1      -1.180   2.598  11.395  0.00  0.00    +0.011 A 
ATOM     11  C   UNL     1      -1.919   1.431  11.265  0.00  0.00    -0.012 A 
ATOM     12  C   UNL     1      -1.634   0.332  12.058  0.00  0.00    -0.011 A 
ATOM     13  C   UNL     1      -0.581   0.391  12.965  0.00  0.00    -0.016 A 
ATOM     32  C   UNL     1       0.130   1.566  13.100  0.00  0.00    +0.019 A 
BRANCH   1   2
ATOM      2  N   UNL     1       0.640   3.848  12.524  0.00  0.00    -0.298 N 
ATOM      3  C   UNL     1       0.272   5.186  11.984  0.00  0.00    +0.180 C 
ATOM      4  C   UNL     1       0.748   6.352  12.873  0.00  0.00    +0.153 C 
ATOM      5  N   UNL     1       2.141   6.180  13.332  0.00  0.00    +0.230 N 
ATOM      6  H   UNL     1       2.757   6.308  12.544  0.00  0.00    +0.202 HD
ATOM      7  H   UNL     1       2.338   6.880  14.030  0.00  0.00    +0.202 HD
ATOM      8  C   UNL     1       2.393   4.860  13.911  0.00  0.00    +0.153 C 
ATOM      9  C   UNL     1       2.078   3.796  12.850  0.00  0.00    +0.180 C 
ENDBRANCH   1   2
ENDBRANCH  14  13
TORSDOF 4
