REMARK  Name = 3w2r_ligand
REMARK  11 active torsions:
REMARK  status: ('A' for Active; 'I' for Inactive)
REMARK    1  A    between atoms: C13_13  and  N34_34
REMARK    2  A    between atoms: C14_14  and  N33_33
REMARK    3  A    between atoms: C15_15  and  O38_38
REMARK    4  A    between atoms: C16_16  and  O38_38
REMARK    5  A    between atoms: C25_25  and  N35_35
REMARK    6  A    between atoms: C26_26  and  C27_27
REMARK    7  A    between atoms: C26_26  and  N32_32
REMARK    8  A    between atoms: C27_27  and  O39_39
REMARK    9  A    between atoms: C28_28  and  C29_29
REMARK   10  A    between atoms: C28_28  and  O37_37
REMARK   11  A    between atoms: C29_29  and  O39_39
REMARK                            x       y       z     vdW  Elec       q    Type
REMARK                         _______ _______ _______ _____ _____    ______ ____
ROOT
ATOM      5  C   UNL     1       5.408  12.103  45.046  0.00  0.00    +0.119 A 
ATOM      6  C   UNL     1       6.393  11.181  44.767  0.00  0.00    +0.064 A 
ATOM      7 CL   UNL     1       7.461  11.416  43.425  0.00  0.00    -0.080 Cl
ATOM      8  C   UNL     1       6.517  10.060  45.568  0.00  0.00    +0.021 A 
ATOM      9  C   UNL     1       5.663   9.870  46.641  0.00  0.00    +0.055 A 
ATOM     28  C   UNL     1       4.675  10.799  46.895  0.00  0.00    +0.007 A 
ATOM     29  C   UNL     1       4.545  11.918  46.106  0.00  0.00    +0.016 A 
ENDROOT
BRANCH   9  10
ATOM     10  N   UNL     1       5.789   8.704  47.422  0.00  0.00    -0.260 N 
ATOM     11  H   UNL     1       4.930   8.196  47.676  0.00  0.00    +0.214 HD
ATOM     12  C   UNL     1       7.029   8.188  47.880  0.00  0.00    +0.168 A 
ATOM     13  N   UNL     1       8.173   8.855  47.680  0.00  0.00    -0.270 NA
ATOM     14  C   UNL     1       9.305   8.334  48.157  0.00  0.00    +0.141 A 
ATOM     15  N   UNL     1       9.496   7.196  48.819  0.00  0.00    -0.313 NA
ATOM     16  C   UNL     1       8.342   6.528  49.009  0.00  0.00    +0.038 A 
ATOM     17  C   UNL     1       8.130   5.295  49.671  0.00  0.00    -0.013 A 
ATOM     18  C   UNL     1       6.780   5.015  49.624  0.00  0.00    +0.136 A 
ATOM     19  N   UNL     1       6.183   6.050  48.959  0.00  0.00    -0.252 N 
ATOM     27  C   UNL     1       7.115   6.999  48.574  0.00  0.00    +0.140 A 
BRANCH  19  20
ATOM     20  C   UNL     1       4.755   6.050  48.701  0.00  0.00    +0.204 C 
BRANCH  20  21
ATOM     21  C   UNL     1       3.941   6.606  49.833  0.00  0.00    +0.192 C 
BRANCH  21  22
ATOM     22  O   UNL     1       4.005   8.008  49.625  0.00  0.00    -0.375 OA
BRANCH  22  23
ATOM     23  C   UNL     1       3.048   8.665  50.453  0.00  0.00    +0.188 C 
BRANCH  23  24
ATOM     24  C   UNL     1       2.301   9.613  49.566  0.00  0.00    +0.184 C 
BRANCH  24  25
ATOM     25  O   UNL     1       1.542   8.819  48.681  0.00  0.00    -0.393 OA
ATOM     26  H   UNL     1       2.125   8.266  48.174  0.00  0.00    +0.209 HD
ENDBRANCH  24  25
ENDBRANCH  23  24
ENDBRANCH  22  23
ENDBRANCH  21  22
ENDBRANCH  20  21
ENDBRANCH  19  20
ENDBRANCH   9  10
BRANCH   5   4
ATOM      4  O   UNL     1       5.303  13.214  44.227  0.00  0.00    -0.268 OA
BRANCH   4   3
ATOM      1  C   UNL     1       5.456  16.116  46.494  0.00  0.00    -0.028 A 
ATOM      2  C   UNL     1       5.716  14.861  45.970  0.00  0.00    -0.002 A 
ATOM      3  C   UNL     1       5.056  14.437  44.830  0.00  0.00    +0.100 A 
ATOM     30  C   UNL     1       4.127  15.231  44.194  0.00  0.00    +0.032 A 
ATOM     31  C   UNL     1       3.862  16.474  44.719  0.00  0.00    +0.058 A 
ATOM     44  C   UNL     1       4.528  16.911  45.849  0.00  0.00    -0.011 A 
BRANCH  31  32
ATOM     32  N   UNL     1       2.930  17.344  44.118  0.00  0.00    -0.222 N 
ATOM     33  H   UNL     1       2.780  18.211  44.593  0.00  0.00    +0.225 HD
ATOM     34  C   UNL     1       2.195  17.161  42.961  0.00  0.00    +0.287 C 
ATOM     35  O   UNL     1       2.030  16.112  42.363  0.00  0.00    -0.390 OA
ATOM     36  N   UNL     1       1.554  18.323  42.594  0.00  0.00    -0.265 N 
ATOM     37  H   UNL     1       1.698  19.145  43.145  0.00  0.00    +0.186 HD
BRANCH  36  38
ATOM     38  C   UNL     1       0.677  18.401  41.438  0.00  0.00    +0.098 C 
ATOM     39  C   UNL     1       1.426  18.747  40.168  0.00  0.00    +0.027 C 
ATOM     40  C   UNL     1       0.458  18.695  39.002  0.00  0.00    +0.002 C 
ATOM     41  C   UNL     1      -0.706  19.667  39.214  0.00  0.00    +0.000 C 
ATOM     42  C   UNL     1      -1.418  19.369  40.506  0.00  0.00    +0.002 C 
ATOM     43  C   UNL     1      -0.418  19.427  41.645  0.00  0.00    +0.027 C 
ENDBRANCH  36  38
ENDBRANCH  31  32
ENDBRANCH   4   3
ENDBRANCH   5   4
TORSDOF 11
