REMARK  Name = 4i0t_ligand
REMARK  6 active torsions:
REMARK  status: ('A' for Active; 'I' for Inactive)
REMARK    1  A    between atoms: C3_3  and  C10_10
REMARK    2  A    between atoms: C7_7  and  C11_11
REMARK    3  A    between atoms: N12_12  and  C14_14
REMARK    4  A    between atoms: C14_14  and  C15_15
REMARK    5  A    between atoms: C14_14  and  C16_16
REMARK    6  A    between atoms: C14_14  and  C21_21
REMARK                            x       y       z     vdW  Elec       q    Type
REMARK                         _______ _______ _______ _____ _____    ______ ____
ROOT
ATOM      1  N   UNL     1       3.017  -1.821  16.055  0.00  0.00    -0.266 NA
ATOM      2  C   UNL     1       3.821  -0.844  15.685  0.00  0.00    +0.163 A 
ATOM      3  N   UNL     1       5.169  -0.587  15.891  0.00  0.00    -0.250 N 
ATOM      4  H   UNL     1       5.804  -1.215  16.404  0.00  0.00    +0.237 HD
ATOM      5  C   UNL     1       5.550   0.590  15.337  0.00  0.00    +0.174 A 
ATOM      6  C   UNL     1       4.482   1.144  14.715  0.00  0.00    +0.072 A 
ATOM     15  C   UNL     1       3.324   0.243  14.931  0.00  0.00    +0.074 A 
ATOM     16  N   UNL     1       2.045   0.259  14.579  0.00  0.00    -0.307 NA
ATOM     17  C   UNL     1       1.211  -0.747  14.950  0.00  0.00    +0.042 A 
ATOM     27  C   UNL     1       1.727  -1.822  15.710  0.00  0.00    +0.102 A 
ENDROOT
BRANCH  17  18
ATOM     18  C   UNL     1      -0.238  -0.750  14.590  0.00  0.00    +0.044 A 
ATOM     19  C   UNL     1      -0.875   0.058  13.714  0.00  0.00    +0.080 A 
ATOM     20  C   UNL     1      -0.329   1.184  12.887  0.00  0.00    +0.107 C 
ATOM     21  C   UNL     1      -1.240   1.345  11.651  0.00  0.00    +0.022 C 
ATOM     22  C   UNL     1      -2.712   1.497  12.006  0.00  0.00    +0.037 C 
ATOM     23  C   UNL     1      -3.257   0.315  12.858  0.00  0.00    +0.186 C 
ATOM     24  N   UNL     1      -2.215  -0.310  13.714  0.00  0.00    -0.237 N 
ATOM     25  C   UNL     1      -2.359  -1.346  14.593  0.00  0.00    +0.216 A 
ATOM     26  N   UNL     1      -1.199  -1.602  15.092  0.00  0.00    -0.326 NA
ENDBRANCH  17  18
BRANCH   6   7
ATOM      7  C   UNL     1       4.446   2.476  14.050  0.00  0.00    +0.182 C 
ATOM      8  O   UNL     1       5.463   3.166  14.105  0.00  0.00    -0.402 OA
ATOM      9  N   UNL     1       3.243   2.863  13.569  0.00  0.00    -0.286 N 
ATOM     10  H   UNL     1       2.495   2.203  13.645  0.00  0.00    +0.184 HD
BRANCH   9  11
ATOM     11  C   UNL     1       2.922   4.161  12.943  0.00  0.00    +0.043 C 
ATOM     12  C   UNL     1       1.456   4.124  12.569  0.00  0.00    +0.036 C 
ATOM     13  C   UNL     1       3.765   4.520  11.726  0.00  0.00    +0.036 C 
ATOM     14  C   UNL     1       3.112   5.286  13.945  0.00  0.00    +0.036 C 
ENDBRANCH   9  11
ENDBRANCH   6   7
TORSDOF 3
