REMARK  Name = 4ag8_ligand
REMARK  6 active torsions:
REMARK  status: ('A' for Active; 'I' for Inactive)
REMARK    1  A    between atoms: C80_2  and  C23_5
REMARK    2  A    between atoms: N82_3  and  C88_4
REMARK    3  A    between atoms: C18_9  and  S24_11
REMARK    4  A    between atoms: S24_11  and  C07_12
REMARK    5  A    between atoms: C13_19  and  C16_21
REMARK    6  A    between atoms: C17_22  and  C02_23
REMARK                            x       y       z     vdW  Elec       q    Type
REMARK                         _______ _______ _______ _____ _____    ______ ____
ROOT
ATOM      6  C   UNL     1      21.489  24.548  38.526  0.00  0.00    +0.024 A 
ATOM      7  C   UNL     1      22.020  25.832  38.865  0.00  0.00    +0.030 A 
ATOM      8  C   UNL     1      21.178  26.775  39.450  0.00  0.00    +0.086 A 
ATOM      9  C   UNL     1      19.844  26.504  39.711  0.00  0.00    +0.014 A 
ATOM     10  C   UNL     1      19.371  27.755  40.274  0.00  0.00    +0.061 A 
ATOM     19  N   UNL     1      20.339  28.597  40.306  0.00  0.00    -0.195 NA
ATOM     20  C   UNL     1      19.257  25.239  39.392  0.00  0.00    -0.007 A 
ATOM     21  N   UNL     1      21.430  28.076  39.855  0.00  0.00    -0.211 N 
ATOM     22  H   UNL     1      22.342  28.551  39.804  0.00  0.00    +0.249 HD
ATOM     23  C   UNL     1      20.123  24.259  38.796  0.00  0.00    -0.005 A 
ENDROOT
BRANCH  10  11
ATOM     11  C   UNL     1      18.018  28.134  40.713  0.00  0.00    +0.029 C 
ATOM     12  C   UNL     1      16.885  27.325  40.808  0.00  0.00    +0.022 C 
BRANCH  12  13
ATOM     13  C   UNL     1      15.547  27.825  41.273  0.00  0.00    +0.040 A 
ATOM     14  C   UNL     1      15.312  29.179  41.616  0.00  0.00    +0.040 A 
ATOM     15  C   UNL     1      14.004  29.530  42.041  0.00  0.00    +0.028 A 
ATOM     16  C   UNL     1      13.002  28.545  42.103  0.00  0.00    +0.032 A 
ATOM     17  C   UNL     1      13.319  27.223  41.745  0.00  0.00    +0.089 A 
ATOM     18  N   UNL     1      14.576  26.890  41.337  0.00  0.00    -0.298 NA
ENDBRANCH  12  13
ENDBRANCH  10  11
BRANCH   6   5
ATOM      5  S   UNL     1      22.510  23.347  37.788  0.00  0.00    -0.041 S 
BRANCH   5   4
ATOM      3  C   UNL     1      25.292  23.032  38.066  0.00  0.00    +0.064 A 
ATOM      4  C   UNL     1      24.018  23.298  38.674  0.00  0.00    +0.051 A 
ATOM     24  C   UNL     1      23.982  23.492  40.094  0.00  0.00    +0.017 A 
ATOM     25  C   UNL     1      25.156  23.462  40.885  0.00  0.00    +0.001 A 
ATOM     26  C   UNL     1      26.409  23.200  40.291  0.00  0.00    -0.005 A 
ATOM     27  C   UNL     1      26.456  22.997  38.889  0.00  0.00    +0.018 A 
BRANCH   3   2
ATOM      1  O   UNL     1      24.831  23.470  35.794  0.00  0.00    -0.388 OA
ATOM      2  C   UNL     1      25.499  22.806  36.610  0.00  0.00    +0.201 C 
ATOM     28  N   UNL     1      26.415  21.916  36.184  0.00  0.00    -0.290 N 
ATOM     29  H   UNL     1      26.872  21.349  36.869  0.00  0.00    +0.184 HD
ATOM     30  C   UNL     1      26.782  21.727  34.783  0.00  0.00    +0.164 C 
ENDBRANCH   3   2
ENDBRANCH   5   4
ENDBRANCH   6   5
TORSDOF 5
