REMARK  Name = 2x6e_ligand
REMARK  7 active torsions:
REMARK  status: ('A' for Active; 'I' for Inactive)
REMARK    1  A    between atoms: C01_1  and  C02_2
REMARK    2  A    between atoms: C04_4  and  C05_5
REMARK    3  A    between atoms: C05_5  and  N06_6
REMARK    4  A    between atoms: N09_9  and  C10_10
REMARK    5  A    between atoms: C17_17  and  C18_18
REMARK    6  A    between atoms: C21_21  and  N22_22
REMARK    7  A    between atoms: N25_25  and  C26_26
REMARK                            x       y       z     vdW  Elec       q    Type
REMARK                         _______ _______ _______ _____ _____    ______ ____
ROOT
ATOM     11  C   UNL     1      -3.965  31.016  -6.764  0.00  0.00    +0.095 A 
ATOM     12  C   UNL     1      -3.234  32.164  -6.264  0.00  0.00    +0.130 A 
ATOM     13  N   UNL     1      -2.973  32.572  -4.988  0.00  0.00    -0.247 N 
ATOM     14  H   UNL     1      -3.260  32.108  -4.126  0.00  0.00    +0.231 HD
ATOM     15  C   UNL     1      -2.219  33.776  -5.100  0.00  0.00    +0.135 A 
ATOM     29  N   UNL     1      -1.988  34.060  -6.419  0.00  0.00    -0.298 NA
ATOM     30  C   UNL     1      -2.637  33.060  -7.159  0.00  0.00    +0.084 A 
ATOM     31  N   UNL     1      -2.740  32.888  -8.546  0.00  0.00    -0.324 NA
ATOM     32  C   UNL     1      -3.459  31.784  -9.045  0.00  0.00    +0.058 A 
ATOM     33  C   UNL     1      -4.069  30.866  -8.124  0.00  0.00    +0.043 A 
ATOM     34 BR   UNL     1      -5.024  29.336  -8.851  0.00  0.00    -0.062 Br
ENDROOT
BRANCH  11  10
ATOM      7  N   UNL     1      -6.156  28.361  -4.338  0.00  0.00    +0.410 NA
ATOM      8  C   UNL     1      -5.109  29.141  -3.632  0.00  0.00    -0.082 C 
ATOM      9  C   UNL     1      -4.041  29.614  -4.630  0.00  0.00    +0.111 C 
ATOM     10  N   UNL     1      -4.674  30.098  -5.851  0.00  0.00    -0.304 N 
ATOM     35  C   UNL     1      -6.108  30.154  -6.042  0.00  0.00    +0.111 C 
ATOM     36  C   UNL     1      -6.834  28.901  -5.548  0.00  0.00    -0.082 C 
BRANCH   7   6
ATOM      6  C   UNL     1      -7.109  27.610  -3.511  0.00  0.00    -0.042 C 
BRANCH   6   5
ATOM      1  C   UNL     1      -6.637  22.478  -4.451  0.00  0.00    +0.143 C 
ATOM      2  C   UNL     1      -6.423  23.911  -3.924  0.00  0.00    +0.129 A 
ATOM      3  O   UNL     1      -5.372  24.309  -3.055  0.00  0.00    -0.181 OA
ATOM      4  N   UNL     1      -5.518  25.712  -2.798  0.00  0.00    -0.175 NA
ATOM      5  C   UNL     1      -6.633  26.157  -3.490  0.00  0.00    -0.009 A 
ATOM     37  C   UNL     1      -7.211  25.034  -4.203  0.00  0.00    -0.009 A 
ENDBRANCH   6   5
ENDBRANCH   7   6
ENDBRANCH  11  10
BRANCH  15  16
ATOM     16  C   UNL     1      -1.686  34.506  -4.020  0.00  0.00    +0.024 A 
ATOM     17  C   UNL     1      -0.745  35.560  -4.268  0.00  0.00    +0.011 A 
ATOM     18  C   UNL     1      -0.193  36.289  -3.118  0.00  0.00    +0.017 A 
ATOM     19  C   UNL     1      -0.615  35.896  -1.781  0.00  0.00    +0.048 A 
ATOM     27  C   UNL     1      -1.538  34.839  -1.555  0.00  0.00    +0.017 A 
ATOM     28  C   UNL     1      -2.095  34.110  -2.694  0.00  0.00    +0.011 A 
BRANCH  19  20
ATOM     20  N   UNL     1      -0.117  36.609  -0.583  0.00  0.00    -0.309 N 
ATOM     21  C   UNL     1      -0.432  38.033  -0.491  0.00  0.00    +0.109 C 
ATOM     22  C   UNL     1       0.609  38.709   0.397  0.00  0.00    -0.086 C 
ATOM     23  N   UNL     1       1.132  37.867   1.505  0.00  0.00    +0.403 NA
ATOM     24  C   UNL     1       0.857  38.462   2.820  0.00  0.00    -0.131 C 
ATOM     25  C   UNL     1       1.242  36.385   1.478  0.00  0.00    -0.086 C 
ATOM     26  C   UNL     1       0.175  35.712   0.582  0.00  0.00    +0.109 C 
ENDBRANCH  19  20
ENDBRANCH  15  16
TORSDOF 5
