REMARK  Name = 1ykr_ligand
REMARK  6 active torsions:
REMARK  status: ('A' for Active; 'I' for Inactive)
REMARK    1  A    between atoms: C1_1  and  C23_17
REMARK    2  A    between atoms: C11_8  and  N35_26
REMARK    3  A    between atoms: S1_10  and  C14_11
REMARK    4  A    between atoms: S1_10  and  N1_29
REMARK    5  A    between atoms: C17_14  and  N35_26
REMARK    6  A    between atoms: C23_17  and  C24_18
REMARK                            x       y       z     vdW  Elec       q    Type
REMARK                         _______ _______ _______ _____ _____    ______ ____
ROOT
ATOM      1  C   UNL     1      -1.241  31.410   9.762  0.00  0.00    +0.068 A 
ATOM     12  C   UNL     1      -0.889  32.761   9.403  0.00  0.00    +0.018 A 
ATOM     13  C   UNL     1       0.148  33.009   8.446  0.00  0.00    +0.038 A 
ATOM     14  C   UNL     1       0.765  31.851   7.886  0.00  0.00    +0.131 A 
ATOM     15  N   UNL     1       1.788  31.788   6.966  0.00  0.00    -0.319 NA
ATOM     16  C   UNL     1       1.967  30.436   6.806  0.00  0.00    +0.089 A 
ATOM     31  C   UNL     1       1.096  29.655   7.599  0.00  0.00    +0.133 A 
ATOM     32  N   UNL     1       0.401  30.590   8.250  0.00  0.00    -0.212 N 
ATOM     33  C   UNL     1      -0.556  30.348   9.126  0.00  0.00    +0.228 A 
ENDROOT
BRANCH   1   2
ATOM      2  C   UNL     1      -2.295  31.108  10.775  0.00  0.00    +0.155 C 
ATOM      3  O   UNL     1      -3.009  31.991  11.256  0.00  0.00    -0.376 OA
BRANCH   2   4
ATOM      4  C   UNL     1      -2.462  29.671  11.262  0.00  0.00    +0.059 A 
ATOM      5  C   UNL     1      -3.640  28.875  10.885  0.00  0.00    +0.059 A 
ATOM      6 CL   UNL     1      -4.626  29.418  10.101  0.00  0.00    -0.065 Cl
ATOM      7  C   UNL     1      -3.793  27.537  11.355  0.00  0.00    +0.022 A 
ATOM      8  C   UNL     1      -2.788  26.943  12.170  0.00  0.00    +0.009 A 
ATOM      9  C   UNL     1      -1.636  27.671  12.546  0.00  0.00    +0.022 A 
ATOM     10  C   UNL     1      -1.443  28.995  12.106  0.00  0.00    +0.059 A 
ATOM     11 CL   UNL     1      -0.302  29.639  12.507  0.00  0.00    -0.065 Cl
ENDBRANCH   2   4
ENDBRANCH   1   2
BRANCH  16  17
ATOM     17  N   UNL     1       2.894  29.664   5.964  0.00  0.00    -0.282 N 
ATOM     18  H   UNL     1       2.869  29.845   4.950  0.00  0.00    +0.204 HD
BRANCH  17  19
ATOM     19  C   UNL     1       3.837  28.675   6.433  0.00  0.00    +0.055 A 
ATOM     20  C   UNL     1       3.930  28.194   7.803  0.00  0.00    +0.014 A 
ATOM     21  C   UNL     1       4.893  27.204   8.140  0.00  0.00    +0.014 A 
ATOM     22  C   UNL     1       5.745  26.715   7.099  0.00  0.00    +0.095 A 
ATOM     23  C   UNL     1       5.652  27.191   5.752  0.00  0.00    +0.014 A 
ATOM     30  C   UNL     1       4.704  28.166   5.423  0.00  0.00    +0.014 A 
BRANCH  22  24
ATOM     24  S   UNL     1       6.951  25.495   7.453  0.00  0.00    +0.060 S 
ATOM     25  O   UNL     1       7.781  25.956   8.538  0.00  0.00    -0.152 OA
ATOM     29  O   UNL     1       7.581  25.180   6.197  0.00  0.00    -0.152 OA
BRANCH  24  26
ATOM     26  N   UNL     1       6.229  24.131   7.988  0.00  0.00    -0.262 NA
ATOM     27  H   UNL     1       5.233  24.091   8.069  0.00  0.00    +0.163 HD
ATOM     28  H   UNL     1       6.783  23.336   8.234  0.00  0.00    +0.163 HD
ENDBRANCH  24  26
ENDBRANCH  22  24
ENDBRANCH  17  19
ENDBRANCH  16  17
TORSDOF 6
