REMARK  Name = 3ctq_ligand
REMARK  16 active torsions:
REMARK  status: ('A' for Active; 'I' for Inactive)
REMARK    1  A    between atoms: N1_1  and  C2_16
REMARK    2  A    between atoms: C4_2  and  C10_7
REMARK    3  A    between atoms: C5_3  and  O8_26
REMARK    4  A    between atoms: C6_4  and  N16_28
REMARK    5  A    between atoms: C10_7  and  C13_8
REMARK    6  A    between atoms: C10_7  and  C11_19
REMARK    7  A    between atoms: C10_7  and  C12_20
REMARK    8  A    between atoms: C20_11  and  S17_29
REMARK    9  A    between atoms: C24_13  and  C23_24
REMARK   10  A    between atoms: C26_14  and  C14_21
REMARK   11  A    between atoms: C1_15  and  C76_42
REMARK   12  A    between atoms: C9_18  and  O8_26
REMARK   13  A    between atoms: N16_28  and  S17_29
REMARK   14  A    between atoms: C48_33  and  N49_34
REMARK   15  A    between atoms: C53_38  and  C61_39
REMARK   16  A    between atoms: N75_41  and  C76_42
REMARK                            x       y       z     vdW  Elec       q    Type
REMARK                         _______ _______ _______ _____ _____    ______ ____
ROOT
ATOM      5  C   UNL     1      34.783  38.409  14.174  0.00  0.00    +0.046 A 
ATOM      6  C   UNL     1      34.754  39.045  15.434  0.00  0.00    +0.054 A 
ATOM      7  C   UNL     1      35.894  39.637  16.016  0.00  0.00    +0.131 A 
ATOM     24  C   UNL     1      37.120  39.583  15.289  0.00  0.00    -0.001 A 
ATOM     25  C   UNL     1      38.393  40.190  15.823  0.00  0.00    +0.090 C 
ATOM     26  C   UNL     1      37.167  38.943  14.017  0.00  0.00    -0.002 A 
ATOM     27  C   UNL     1      36.011  38.357  13.453  0.00  0.00    +0.006 A 
ENDROOT
BRANCH   7   8
ATOM      8  N   UNL     1      35.730  40.237  17.279  0.00  0.00    -0.122 N 
ATOM      9  N   UNL     1      35.873  39.421  18.388  0.00  0.00    -0.078 NA
ATOM     10  N   UNL     1      35.660  40.323  19.388  0.00  0.00    -0.206 NA
ATOM     11  C   UNL     1      35.409  41.576  18.952  0.00  0.00    +0.136 A 
ATOM     23  C   UNL     1      35.450  41.541  17.585  0.00  0.00    +0.225 A 
BRANCH  11  12
ATOM     12  C   UNL     1      35.140  42.732  19.798  0.00  0.00    +0.203 C 
ATOM     13  N   UNL     1      34.885  42.349  21.070  0.00  0.00    -0.278 N 
ATOM     14  H   UNL     1      34.926  41.372  21.279  0.00  0.00    +0.186 HD
ATOM     22  O   UNL     1      35.119  43.901  19.433  0.00  0.00    -0.396 OA
BRANCH  13  15
ATOM     15  C   UNL     1      34.553  43.266  22.162  0.00  0.00    +0.200 C 
BRANCH  15  16
ATOM     16  C   UNL     1      33.043  43.344  22.338  0.00  0.00    -0.021 A 
ATOM     17  C   UNL     1      32.481  44.230  23.287  0.00  0.00    -0.003 A 
ATOM     18  C   UNL     1      31.074  44.288  23.476  0.00  0.00    -0.009 A 
ATOM     19  C   UNL     1      30.215  43.447  22.720  0.00  0.00    -0.013 A 
ATOM     20  C   UNL     1      30.761  42.547  21.780  0.00  0.00    -0.009 A 
ATOM     21  C   UNL     1      32.165  42.493  21.596  0.00  0.00    -0.003 A 
ENDBRANCH  15  16
ENDBRANCH  13  15
ENDBRANCH  11  12
ENDBRANCH   7   8
BRANCH   5   3
ATOM      1  N   UNL     1      33.670  36.773  12.773  0.00  0.00    -0.232 N 
ATOM      2  H   UNL     1      34.593  36.461  12.547  0.00  0.00    +0.223 HD
ATOM      3  C   UNL     1      33.528  37.831  13.658  0.00  0.00    +0.224 C 
ATOM      4  O   UNL     1      32.412  38.261  13.973  0.00  0.00    -0.377 OA
BRANCH   1  28
ATOM     28  C   UNL     1      32.590  36.127  12.187  0.00  0.00    +0.123 A 
ATOM     29  C   UNL     1      31.512  36.884  11.641  0.00  0.00    +0.015 A 
ATOM     30  C   UNL     1      30.373  36.272  11.027  0.00  0.00    -0.100 A 
ATOM     35  C   UNL     1      30.358  34.830  10.971  0.00  0.00    +0.009 A 
ATOM     36  C   UNL     1      31.421  34.057  11.504  0.00  0.00    +0.120 A 
ATOM     43  C   UNL     1      32.549  34.703  12.116  0.00  0.00    +0.180 A 
BRANCH  30  31
ATOM     31  C   UNL     1      29.237  37.176  10.467  0.00  0.00    -0.072 C 
ATOM     32  C   UNL     1      28.058  36.377   9.838  0.00  0.00    -0.066 C 
ATOM     33  C   UNL     1      28.633  38.030  11.615  0.00  0.00    -0.066 C 
ATOM     34  C   UNL     1      29.799  38.109   9.362  0.00  0.00    -0.066 C 
ENDBRANCH  30  31
BRANCH  36  37
ATOM     37  N   UNL     1      31.348  32.690  11.425  0.00  0.00    -0.188 N 
ATOM     38  H   UNL     1      30.678  32.209  11.991  0.00  0.00    +0.213 HD
BRANCH  37  39
ATOM     39  S   UNL     1      32.325  31.811  10.430  0.00  0.00    +0.056 S 
ATOM     40  O   UNL     1      33.362  31.313  11.304  0.00  0.00    -0.150 OA
ATOM     41  O   UNL     1      31.494  30.830   9.818  0.00  0.00    -0.150 OA
ATOM     42  C   UNL     1      33.037  32.822   9.159  0.00  0.00    +0.225 C 
ENDBRANCH  37  39
ENDBRANCH  36  37
BRANCH  43  44
ATOM     44  O   UNL     1      33.576  33.901  12.630  0.00  0.00    -0.301 OA
ATOM     45  C   UNL     1      33.440  33.656  14.033  0.00  0.00    +0.243 C 
ENDBRANCH  43  44
ENDBRANCH   1  28
ENDBRANCH   5   3
TORSDOF 10
