REMARK  Name = 5XQX
REMARK  3 active torsions:
REMARK  status: ('A' for Active; 'I' for Inactive)
REMARK    1  A    between atoms: C_1  and  C_9
REMARK    2  A    between atoms: C_3  and  N_4
REMARK    3  A    between atoms: C_5  and  C_7
REMARK                            x       y       z     vdW  Elec       q    Type
REMARK                         _______ _______ _______ _____ _____    ______ ____
ROOT
ATOM      6  C   UNL     1      -7.698 -12.005  11.883  0.00  0.00    +0.003 A 
ATOM      7  C   UNL     1      -8.038 -12.207  13.250  0.00  0.00    +0.120 A 
ATOM      8  N   UNL     1      -7.222 -13.192  13.747  0.00  0.00    -0.250 NA
ATOM      9  C   UNL     1      -6.378 -13.580  12.742  0.00  0.00    +0.126 A 
ATOM     15  C   UNL     1      -6.629 -12.847  11.575  0.00  0.00    +0.043 A 
ENDROOT
BRANCH   6   1
ATOM      1  C   UNL     1      -8.289 -10.983  11.021  0.00  0.00    -0.014 A 
ATOM      2  C   UNL     1      -7.963 -10.872   9.665  0.00  0.00    +0.028 A 
ATOM      3  C   UNL     1      -8.523  -9.774   8.953  0.00  0.00    +0.111 A 
ATOM      4  N   UNL     1      -9.342  -8.849   9.564  0.00  0.00    -0.263 NA
ATOM      5  C   UNL     1      -9.624  -8.907  10.886  0.00  0.00    +0.111 A 
ATOM     16  C   UNL     1      -9.095  -9.966  11.629  0.00  0.00    +0.028 A 
ENDBRANCH   6   1
BRANCH   9  10
ATOM     10  C   UNL     1      -5.339 -14.626  12.925  0.00  0.00    +0.262 C 
ATOM     11  O   UNL     1      -5.322 -15.222  13.984  0.00  0.00    -0.269 OA
ATOM     12  N   UNL     1      -4.411 -14.850  11.845  0.00  0.00    -0.313 N 
ATOM     13  H   UNL     1      -5.001 -15.124  10.995  0.00  0.00    +0.149 HD
ATOM     14  C   UNL     1      -3.349 -15.834  11.936  0.00  0.00    +0.128 C 
ENDBRANCH   9  10
TORSDOF 2
