REMARK  Name = 82I
REMARK  1 active torsions:
REMARK  status: ('A' for Active; 'I' for Inactive)
REMARK    1  A    between atoms: N05_2  and  C07_3
REMARK                            x       y       z     vdW  Elec       q    Type
REMARK                         _______ _______ _______ _____ _____    ______ ____
ROOT
ATOM      3  C   UNL     1      25.590  47.057   0.416  0.00  0.00    +0.101 C 
ATOM      4  C   UNL     1      24.470  46.252   0.522  0.00  0.00    +0.131 C 
ATOM      5 CL   UNL     1      24.548  44.780   1.407  0.00  0.00    -0.076 Cl
ATOM      6  C   UNL     1      23.196  46.590  -0.077  0.00  0.00    +0.288 C 
ATOM      7  O   UNL     1      22.180  45.907  -0.012  0.00  0.00    -0.265 OA
ATOM      8  N   UNL     1      23.208  47.780  -0.762  0.00  0.00    -0.214 N 
ATOM      9  N   UNL     1      24.281  48.606  -0.896  0.00  0.00    -0.164 NA
ATOM     10  C   UNL     1      21.995  48.238  -1.429  0.00  0.00    +0.157 C 
ATOM     11  C   UNL     1      25.389  48.262  -0.336  0.00  0.00    +0.137 C 
ENDROOT
BRANCH   3   2
ATOM      1  C   UNL     1      27.947  47.601   0.949  0.00  0.00    +0.136 C 
ATOM      2  N   UNL     1      26.759  46.766   1.005  0.00  0.00    -0.233 NA
ENDBRANCH   3   2
TORSDOF 1
