REMARK  Name = 3anq_ligand
REMARK  6 active torsions:
REMARK  status: ('A' for Active; 'I' for Inactive)
REMARK    1  A    between atoms: N_1  and  C11_14
REMARK    2  A    between atoms: C1_4  and  O13_16
REMARK    3  A    between atoms: C7_10  and  C8_11
REMARK    4  A    between atoms: C8_11  and  C9_12
REMARK    5  A    between atoms: C9_12  and  C10_13
REMARK    6  A    between atoms: C11_14  and  C12_15
REMARK                            x       y       z     vdW  Elec       q    Type
REMARK                         _______ _______ _______ _____ _____    ______ ____
ROOT
ATOM      1  N   UNL     1       5.747  27.336  12.013  0.00  0.00    -0.290 N 
ATOM      4  C   UNL     1       6.007  26.311  12.882  0.00  0.00    +0.174 A 
ATOM      9  S   UNL     1       7.538  25.966  12.918  0.00  0.00    +0.090 S 
ATOM     10  C   UNL     1       7.922  26.994  11.912  0.00  0.00    +0.134 A 
ATOM     11  C   UNL     1       9.167  27.298  11.406  0.00  0.00    +0.099 A 
ATOM     12  C   UNL     1       9.321  28.307  10.463  0.00  0.00    +0.149 A 
ATOM     13  C   UNL     1       8.228  29.022  10.022  0.00  0.00    +0.151 A 
ATOM     16  C   UNL     1       6.993  28.722  10.524  0.00  0.00    +0.091 A 
ATOM     17  C   UNL     1       6.831  27.712  11.464  0.00  0.00    +0.100 A 
ENDROOT
BRANCH   1   2
ATOM      2  C   UNL     1       4.464  28.072  11.610  0.00  0.00    +0.098 C 
ATOM      3  C   UNL     1       3.183  27.733  12.281  0.00  0.00    +0.019 C 
ENDBRANCH   1   2
BRANCH  13  14
ATOM     14  O   UNL     1       8.363  30.035   9.084  0.00  0.00    -0.300 OA
ATOM     15  H   UNL     1       7.501  30.416   8.900  0.00  0.00    +0.269 HD
ENDBRANCH  13  14
BRANCH   4   5
ATOM      5  C   UNL     1       5.092  25.641  13.663  0.00  0.00    +0.308 C 
BRANCH   5   6
ATOM      6  C   UNL     1       5.389  24.620  14.555  0.00  0.00    +0.135 C 
ATOM      7  C   UNL     1       4.233  24.020  15.331  0.00  0.00    +0.153 C 
ATOM      8  O   UNL     1       6.562  24.197  14.746  0.00  0.00    -0.382 OA
ENDBRANCH   5   6
ENDBRANCH   4   5
TORSDOF 4
