REMARK  Name = 3rcj_ligand
REMARK  3 active torsions:
REMARK  status: ('A' for Active; 'I' for Inactive)
REMARK    1  A    between atoms: C9_9  and  C10_10
REMARK    2  A    between atoms: N13_13  and  C15_15
REMARK    3  A    between atoms: C15_15  and  C16_16
REMARK                            x       y       z     vdW  Elec       q    Type
REMARK                         _______ _______ _______ _____ _____    ______ ____
ROOT
ATOM      5  C   UNL     1     -15.499 -22.387  -7.259  0.00  0.00    +0.048 A 
ATOM      6  C   UNL     1     -16.699 -22.671  -7.855  0.00  0.00    +0.173 A 
ATOM      7  N   UNL     1     -17.498 -21.603  -7.621  0.00  0.00    -0.164 N 
ATOM     15  N   UNL     1     -16.836 -20.740  -6.938  0.00  0.00    -0.095 NA
ATOM     16  N   UNL     1     -15.646 -21.170  -6.704  0.00  0.00    -0.226 NA
ENDROOT
BRANCH   5   4
ATOM      1  C   UNL     1     -14.198 -26.727  -8.908  0.00  0.00    +0.009 A 
ATOM      2  C   UNL     1     -14.788 -25.503  -8.538  0.00  0.00    +0.013 A 
ATOM      3  C   UNL     1     -14.029 -24.571  -7.779  0.00  0.00    +0.008 A 
ATOM      4  C   UNL     1     -14.266 -23.228  -7.205  0.00  0.00    -0.008 A 
ATOM     17  C   UNL     1     -13.111 -22.879  -6.580  0.00  0.00    +0.127 A 
ATOM     18  N   UNL     1     -12.182 -23.868  -6.703  0.00  0.00    -0.266 N 
ATOM     19  H   UNL     1     -11.230 -23.831  -6.311  0.00  0.00    +0.230 HD
ATOM     20  C   UNL     1     -12.687 -24.913  -7.417  0.00  0.00    +0.136 A 
ATOM     21  N   UNL     1     -12.174 -26.100  -7.797  0.00  0.00    -0.286 NA
ATOM     22  C   UNL     1     -12.872 -26.993  -8.513  0.00  0.00    +0.070 A 
ENDBRANCH   5   4
BRANCH   7   8
ATOM      8  C   UNL     1     -18.890 -21.457  -8.072  0.00  0.00    +0.274 C 
BRANCH   8   9
ATOM      9  C   UNL     1     -18.944 -20.453  -9.190  0.00  0.00    -0.010 A 
ATOM     10  C   UNL     1     -19.055 -19.076  -8.896  0.00  0.00    -0.002 A 
ATOM     11  C   UNL     1     -19.103 -18.135  -9.944  0.00  0.00    -0.009 A 
ATOM     12  C   UNL     1     -19.040 -18.576 -11.285  0.00  0.00    -0.013 A 
ATOM     13  C   UNL     1     -18.930 -19.951 -11.575  0.00  0.00    -0.009 A 
ATOM     14  C   UNL     1     -18.883 -20.888 -10.527  0.00  0.00    -0.002 A 
ENDBRANCH   8   9
ENDBRANCH   7   8
TORSDOF 3
