REMARK  Name = 5VC3
REMARK  13 active torsions:
REMARK  status: ('A' for Active; 'I' for Inactive)
REMARK    1  A    between atoms: C_1  and  O_22
REMARK    2  A    between atoms: O_2  and  C_24
REMARK    3  A    between atoms: O_2  and  C_36
REMARK    4  A    between atoms: C_3  and  C_13
REMARK    5  A    between atoms: C_3  and  N_34
REMARK    6  A    between atoms: C_7  and  C_27
REMARK    7  A    between atoms: C_13  and  C_14
REMARK    8  A    between atoms: C_14  and  O_23
REMARK    9  A    between atoms: C_15  and  N_35
REMARK   10  A    between atoms: N_21  and  C_28
REMARK   11  A    between atoms: N_21  and  C_31
REMARK   12  A    between atoms: O_22  and  C_29
REMARK   13  A    between atoms: O_23  and  C_30
REMARK                            x       y       z     vdW  Elec       q    Type
REMARK                         _______ _______ _______ _____ _____    ______ ____
ROOT
ATOM      3  C   UNL     1      -5.273   6.102   9.944  0.00  0.00    +0.162 A 
ATOM      4  C   UNL     1      -6.069   6.631  10.988  0.00  0.00    +0.164 A 
ATOM     16  C   UNL     1      -5.996   6.094  12.283  0.00  0.00    +0.077 A 
ATOM     17  C   UNL     1      -5.135   5.015  12.550  0.00  0.00    +0.073 A 
ATOM     18  C   UNL     1      -4.326   4.459  11.519  0.00  0.00    +0.009 A 
ATOM     19  C   UNL     1      -3.466   3.364  11.828  0.00  0.00    +0.112 C 
ATOM     20  C   UNL     1      -3.452   2.878  13.184  0.00  0.00    +0.145 C 
ATOM     21  C   UNL     1      -4.285   3.486  14.147  0.00  0.00    +0.110 C 
ATOM     36  N   UNL     1      -5.084   4.516  13.803  0.00  0.00    -0.258 NA
ATOM     37  C   UNL     1      -4.413   5.017  10.220  0.00  0.00    +0.057 A 
ENDROOT
BRANCH   3   2
ATOM      1  C   UNL     1      -4.308   6.508   7.709  0.00  0.00    +0.277 C 
ATOM      2  O   UNL     1      -5.382   6.665   8.683  0.00  0.00    -0.491 OA
ENDBRANCH   3   2
BRANCH  20  22
ATOM     22  C   UNL     1      -2.727   1.892  13.647  0.00  0.00    +0.080 C 
ATOM     23  N   UNL     1      -2.091   1.024  14.047  0.00  0.00    -0.196 NA
ENDBRANCH  20  22
BRANCH  19  24
ATOM     24  N   UNL     1      -2.694   2.841  10.798  0.00  0.00    -0.329 N 
ATOM     25  H   UNL     1      -2.803   3.243   9.979  0.00  0.00    +0.147 HD
BRANCH  24  26
ATOM     26  C   UNL     1      -1.795   1.811  10.834  0.00  0.00    +0.050 A 
ATOM     27  C   UNL     1      -2.215   0.478  11.076  0.00  0.00    +0.063 A 
ATOM     28  C   UNL     1      -1.255  -0.552  11.131  0.00  0.00    +0.045 A 
ATOM     29  C   UNL     1       0.112  -0.254  10.926  0.00  0.00    +0.084 A 
ATOM     30  C   UNL     1       0.546   1.063  10.675  0.00  0.00    +0.140 A 
ATOM     33 CL   UNL     1       1.243  -1.504  10.997  0.00  0.00    -0.080 Cl
ATOM     34 CL   UNL     1      -3.858   0.097  11.329  0.00  0.00    -0.082 Cl
ATOM     35  C   UNL     1      -0.423   2.086  10.631  0.00  0.00    +0.071 A 
BRANCH  30  31
ATOM     31  O   UNL     1       1.890   1.303  10.477  0.00  0.00    -0.494 OA
ATOM     32  C   UNL     1       2.324   2.583   9.956  0.00  0.00    +0.277 C 
ENDBRANCH  30  31
ENDBRANCH  24  26
ENDBRANCH  19  24
BRANCH   4   5
ATOM      5  O   UNL     1      -6.903   7.683  10.710  0.00  0.00    -0.488 OA
BRANCH   5   6
ATOM      6  C   UNL     1      -7.633   8.329  11.771  0.00  0.00    +0.230 C 
BRANCH   6   7
ATOM      7  C   UNL     1      -8.445   9.462  11.099  0.00  0.00    +0.056 C 
BRANCH   7   8
ATOM      8  C   UNL     1      -9.186   8.986   9.821  0.00  0.00    +0.088 C 
BRANCH   8   9
ATOM      9  N   UNL     1     -10.193   9.981   9.330  0.00  0.00    -0.300 NA
ATOM     10  C   UNL     1     -11.547   9.420   9.048  0.00  0.00    +0.100 C 
ATOM     11  C   UNL     1     -12.564  10.578   8.916  0.00  0.00    +0.099 C 
ATOM     12  N   UNL     1     -12.144  11.552   7.862  0.00  0.00    -0.303 NA
ATOM     13  C   UNL     1     -10.724  12.011   7.980  0.00  0.00    +0.099 C 
ATOM     14  C   UNL     1     -13.082  12.704   7.783  0.00  0.00    +0.105 C 
ATOM     15  C   UNL     1      -9.744  10.833   8.188  0.00  0.00    +0.100 C 
ENDBRANCH   8   9
ENDBRANCH   7   8
ENDBRANCH   6   7
ENDBRANCH   5   6
ENDBRANCH   4   5
TORSDOF 10
