REMARK  Name = 5IEY
REMARK  9 active torsions:
REMARK  status: ('A' for Active; 'I' for Inactive)
REMARK    1  A    between atoms: C_1  and  S_20
REMARK    2  A    between atoms: C_4  and  N_18
REMARK    3  A    between atoms: C_7  and  C_8
REMARK    4  A    between atoms: C_7  and  O_9
REMARK    5  A    between atoms: C_7  and  C_10
REMARK    6  A    between atoms: C_10  and  C_11
REMARK    7  A    between atoms: C_10  and  N_12
REMARK    8  A    between atoms: N_12  and  C_13
REMARK    9  A    between atoms: S_20  and  N_23
REMARK                            x       y       z     vdW  Elec       q    Type
REMARK                         _______ _______ _______ _____ _____    ______ ____
ROOT
ATOM     11  N   UNL     1       3.007  -5.758 -29.179  0.00  0.00    -0.284 N 
ATOM     12  H   UNL     1       3.405  -5.178 -29.986  0.00  0.00    +0.155 HD
ATOM     13  C   UNL     1       1.934  -5.214 -28.572  0.00  0.00    +0.221 A 
ATOM     14  N   UNL     1       1.599  -3.936 -28.865  0.00  0.00    -0.223 NA
ATOM     15  C   UNL     1       0.480  -3.377 -28.310  0.00  0.00    +0.118 A 
ATOM     16  C   UNL     1      -0.315  -4.125 -27.435  0.00  0.00    +0.063 A 
ATOM     17  C   UNL     1       0.061  -5.461 -27.168  0.00  0.00    +0.124 A 
ATOM     26  N   UNL     1       1.134  -5.953 -27.772  0.00  0.00    -0.200 NA
ENDROOT
BRANCH  11  10
ATOM      1  C   UNL     1       5.297  -9.090 -28.466  0.00  0.00    +0.105 A 
ATOM      8  C   UNL     1       5.652  -8.237 -29.495  0.00  0.00    +0.030 A 
ATOM      9  C   UNL     1       4.835  -7.126 -29.664  0.00  0.00    +0.025 A 
ATOM     10  C   UNL     1       3.654  -6.896 -28.942  0.00  0.00    +0.034 A 
ATOM     27  C   UNL     1       3.317  -7.777 -27.918  0.00  0.00    +0.025 A 
ATOM     28  C   UNL     1       4.159  -8.848 -27.702  0.00  0.00    +0.030 A 
BRANCH   1   2
ATOM      2  S   UNL     1       6.336 -10.464 -28.172  0.00  0.00    +0.056 S 
ATOM      6  O   UNL     1       6.831 -10.976 -29.519  0.00  0.00    -0.153 OA
ATOM      7  O   UNL     1       7.425  -9.902 -27.378  0.00  0.00    -0.153 OA
BRANCH   2   3
ATOM      3  N   UNL     1       5.588 -11.676 -27.421  0.00  0.00    -0.203 NA
ATOM      4  H   UNL     1       5.224 -11.338 -26.473  0.00  0.00    +0.144 HD
ATOM      5  H   UNL     1       4.767 -12.014 -28.018  0.00  0.00    +0.144 HD
ENDBRANCH   2   3
ENDBRANCH   1   2
ENDBRANCH  11  10
BRANCH  17  18
ATOM     18  N   UNL     1      -0.652  -6.270 -26.346  0.00  0.00    -0.324 N 
ATOM     19  H   UNL     1      -1.651  -5.997 -26.077  0.00  0.00    +0.148 HD
BRANCH  18  20
ATOM     20  C   UNL     1      -0.071  -7.527 -25.813  0.00  0.00    +0.097 C 
ATOM     21  C   UNL     1      -0.422  -8.739 -26.674  0.00  0.00    +0.030 C 
BRANCH  20  22
ATOM     22  C   UNL     1      -0.716  -7.820 -24.425  0.00  0.00    +0.131 C 
ATOM     25  C   UNL     1      -0.456  -6.616 -23.675  0.00  0.00    +0.039 C 
BRANCH  22  23
ATOM     23  O   UNL     1      -2.170  -7.972 -24.632  0.00  0.00    -0.390 OA
ATOM     24  H   UNL     1      -2.652  -8.031 -23.701  0.00  0.00    +0.210 HD
ENDBRANCH  22  23
ENDBRANCH  20  22
ENDBRANCH  18  20
ENDBRANCH  17  18
TORSDOF 7
