REMARK  Name = 2vv9_ligand
REMARK  9 active torsions:
REMARK  status: ('A' for Active; 'I' for Inactive)
REMARK    1  A    between atoms: C1_1  and  C2_2
REMARK    2  A    between atoms: C2_2  and  C3_3
REMARK    3  A    between atoms: C2_2  and  N4_4
REMARK    4  A    between atoms: C5_5  and  C6_6
REMARK    5  A    between atoms: C9_9  and  C10_10
REMARK    6  A    between atoms: N15_15  and  C16_16
REMARK    7  A    between atoms: C19_19  and  N22_22
REMARK    8  A    between atoms: C28_28  and  C30_30
REMARK    9  A    between atoms: C30_30  and  O31_31
REMARK                            x       y       z     vdW  Elec       q    Type
REMARK                         _______ _______ _______ _____ _____    ______ ____
ROOT
ATOM      5  C   UNL     1      -0.449  30.451   8.496  0.00  0.00    +0.065 A 
ATOM      6  N   UNL     1       0.546  29.662   8.022  0.00  0.00    -0.257 NA
ATOM      7  C   UNL     1       1.544  30.219   7.301  0.00  0.00    +0.199 A 
ATOM      8  N   UNL     1       2.618  29.523   6.760  0.00  0.00    -0.250 N 
ATOM      9  H   UNL     1       3.155  30.044   6.052  0.00  0.00    +0.214 HD
ATOM     27  N   UNL     1       1.545  31.519   7.022  0.00  0.00    -0.261 NA
ATOM     28  C   UNL     1       0.596  32.338   7.478  0.00  0.00    +0.093 A 
ATOM     29  C   UNL     1      -0.444  31.843   8.247  0.00  0.00    +0.040 A 
ENDROOT
BRANCH   5   4
ATOM      3  N   UNL     1      -1.466  28.707  10.058  0.00  0.00    -0.233 N 
ATOM      4  C   UNL     1      -1.540  29.864   9.296  0.00  0.00    +0.097 A 
ATOM     30  C   UNL     1      -2.809  30.354   9.403  0.00  0.00    +0.049 A 
ATOM     31  N   UNL     1      -3.477  29.531  10.221  0.00  0.00    -0.318 NA
ATOM     32  C   UNL     1      -2.686  28.547  10.605  0.00  0.00    +0.122 A 
ATOM     33  C   UNL     1      -3.060  27.410  11.527  0.00  0.00    +0.161 C 
BRANCH   3   2
ATOM      1  C   UNL     1       0.143  27.885  11.730  0.00  0.00    +0.043 C 
ATOM      2  C   UNL     1      -0.285  27.858  10.259  0.00  0.00    +0.128 C 
ATOM     34  C   UNL     1      -0.541  26.420   9.813  0.00  0.00    +0.043 C 
ENDBRANCH   3   2
ENDBRANCH   5   4
BRANCH   8  10
ATOM     10  C   UNL     1       3.089  28.237   7.017  0.00  0.00    +0.053 A 
ATOM     11  C   UNL     1       4.107  27.782   6.186  0.00  0.00    +0.002 A 
ATOM     12  C   UNL     1       4.666  26.517   6.317  0.00  0.00    -0.004 A 
ATOM     13  C   UNL     1       4.202  25.681   7.326  0.00  0.00    +0.029 A 
ATOM     25  C   UNL     1       3.201  26.137   8.178  0.00  0.00    -0.004 A 
ATOM     26  C   UNL     1       2.638  27.406   8.043  0.00  0.00    +0.002 A 
BRANCH  13  14
ATOM     14  N   UNL     1       4.789  24.405   7.498  0.00  0.00    -0.311 N 
ATOM     15  C   UNL     1       4.890  23.699   6.213  0.00  0.00    +0.151 C 
ATOM     16  C   UNL     1       5.782  22.454   6.399  0.00  0.00    +0.161 C 
ATOM     17  N   UNL     1       5.163  21.664   7.475  0.00  0.00    -0.268 N 
ATOM     18  C   UNL     1       4.846  20.364   7.270  0.00  0.00    +0.204 C 
ATOM     22  O   UNL     1       5.104  19.840   6.192  0.00  0.00    -0.394 OA
ATOM     23  C   UNL     1       4.913  22.338   8.768  0.00  0.00    +0.161 C 
ATOM     24  C   UNL     1       4.095  23.601   8.512  0.00  0.00    +0.151 C 
BRANCH  18  19
ATOM     19  C   UNL     1       4.192  19.555   8.364  0.00  0.00    +0.293 C 
BRANCH  19  20
ATOM     20  O   UNL     1       4.010  18.183   7.973  0.00  0.00    -0.375 OA
ATOM     21  H   UNL     1       3.458  18.145   7.201  0.00  0.00    +0.213 HD
ENDBRANCH  19  20
ENDBRANCH  18  19
ENDBRANCH  13  14
ENDBRANCH   8  10
TORSDOF 6
