REMARK  Name = 4fc0_ligand
REMARK  11 active torsions:
REMARK  status: ('A' for Active; 'I' for Inactive)
REMARK    1  A    between atoms: C1_1  and  N2_2
REMARK    2  A    between atoms: N2_2  and  C3_3
REMARK    3  A    between atoms: N2_2  and  C26_26
REMARK    4  A    between atoms: C8_8  and  N9_9
REMARK    5  A    between atoms: C10_10  and  C12_12
REMARK    6  A    between atoms: C16_16  and  O17_17
REMARK    7  A    between atoms: O17_17  and  C18_18
REMARK    8  A    between atoms: C18_18  and  C19_19
REMARK    9  A    between atoms: C18_18  and  C20_20
REMARK   10  A    between atoms: C18_18  and  C21_21
REMARK   11  A    between atoms: C33_33  and  C35_35
REMARK                            x       y       z     vdW  Elec       q    Type
REMARK                         _______ _______ _______ _____ _____    ______ ____
ROOT
ATOM     19  C   UNL     1      45.755 -35.586   9.557  0.00  0.00    +0.045 A 
ATOM     20  C   UNL     1      46.490 -35.305   8.409  0.00  0.00    +0.019 A 
ATOM     21  C   UNL     1      47.330 -34.195   8.381  0.00  0.00    +0.090 A 
ATOM     39  C   UNL     1      47.448 -33.411   9.530  0.00  0.00    +0.139 A 
ATOM     40  F   UNL     1      48.267 -32.343   9.529  0.00  0.00    -0.203 F 
ATOM     41  C   UNL     1      46.731 -33.704  10.674  0.00  0.00    +0.003 A 
ATOM     42  C   UNL     1      45.891 -34.797  10.688  0.00  0.00    -0.016 A 
ENDROOT
BRANCH  21  22
ATOM     22  N   UNL     1      48.115 -33.855   7.263  0.00  0.00    -0.235 N 
ATOM     23  H   UNL     1      48.947 -33.333   7.452  0.00  0.00    +0.224 HD
ATOM     24  C   UNL     1      47.880 -34.149   5.967  0.00  0.00    +0.229 C 
ATOM     38  O   UNL     1      46.888 -34.752   5.619  0.00  0.00    -0.374 OA
BRANCH  24  25
ATOM     25  C   UNL     1      48.876 -33.711   4.962  0.00  0.00    +0.061 A 
ATOM     26  C   UNL     1      48.524 -32.910   3.870  0.00  0.00    +0.088 A 
ATOM     27 CL   UNL     1      46.884 -32.410   3.655  0.00  0.00    -0.073 Cl
ATOM     28  C   UNL     1      49.481 -32.524   2.939  0.00  0.00    +0.114 A 
ATOM     35  C   UNL     1      50.804 -32.926   3.113  0.00  0.00    +0.030 A 
ATOM     36  C   UNL     1      51.161 -33.724   4.189  0.00  0.00    -0.005 A 
ATOM     37  C   UNL     1      50.207 -34.113   5.108  0.00  0.00    +0.005 A 
BRANCH  28  29
ATOM     29  O   UNL     1      49.130 -31.728   1.880  0.00  0.00    -0.284 OA
BRANCH  29  30
ATOM     30  C   UNL     1      48.767 -32.229   0.575  0.00  0.00    +0.207 C 
ATOM     33  C   UNL     1      48.892 -31.083  -0.426  0.00  0.00    +0.078 C 
ATOM     34  C   UNL     1      49.658 -33.371   0.064  0.00  0.00    +0.078 C 
BRANCH  30  31
ATOM     31  C   UNL     1      47.352 -32.638   0.580  0.00  0.00    +0.130 C 
ATOM     32  N   UNL     1      46.253 -32.932   0.562  0.00  0.00    -0.300 NA
ENDBRANCH  30  31
ENDBRANCH  29  30
ENDBRANCH  28  29
ENDBRANCH  24  25
ENDBRANCH  21  22
BRANCH  19   2
ATOM      1  C   UNL     1      45.605 -37.994   9.576  0.00  0.00    +0.193 C 
ATOM      2  N   UNL     1      44.920 -36.700   9.613  0.00  0.00    -0.260 N 
BRANCH   2   3
ATOM      3  C   UNL     1      43.527 -36.684   9.762  0.00  0.00    +0.118 A 
ATOM      4  N   UNL     1      42.982 -37.824  10.117  0.00  0.00    -0.277 NA
ATOM      5  C   UNL     1      41.687 -37.967  10.307  0.00  0.00    +0.104 A 
ATOM      6  S   UNL     1      40.793 -39.383  10.787  0.00  0.00    +0.044 S 
ATOM      7  C   UNL     1      39.268 -38.526  10.716  0.00  0.00    +0.212 A 
ATOM      8  N   UNL     1      38.045 -39.107  11.083  0.00  0.00    -0.190 N 
ATOM      9  H   UNL     1      37.227 -38.533  11.124  0.00  0.00    +0.244 HD
ATOM     10  C   UNL     1      37.942 -40.428  11.384  0.00  0.00    +0.221 C 
ATOM     14  O   UNL     1      38.908 -41.143  11.282  0.00  0.00    -0.379 OA
ATOM     15  N   UNL     1      39.508 -37.290  10.384  0.00  0.00    -0.310 NA
ATOM     16  C   UNL     1      40.792 -36.917  10.135  0.00  0.00    +0.022 A 
ATOM     17  C   UNL     1      41.349 -35.672   9.744  0.00  0.00    +0.009 A 
ATOM     18  C   UNL     1      42.707 -35.566   9.572  0.00  0.00    +0.031 A 
BRANCH  10  11
ATOM     11  C   UNL     1      36.683 -41.102  11.881  0.00  0.00    +0.112 C 
ATOM     12  C   UNL     1      35.980 -42.089  10.961  0.00  0.00    +0.029 C 
ATOM     13  C   UNL     1      35.297 -40.769  11.343  0.00  0.00    +0.029 C 
ENDBRANCH  10  11
ENDBRANCH   2   3
ENDBRANCH  19   2
TORSDOF 8
