REMARK  Name = 5T3Q
REMARK  13 active torsions:
REMARK  status: ('A' for Active; 'I' for Inactive)
REMARK    1  A    between atoms: C_1  and  O_2
REMARK    2  A    between atoms: O_2  and  C_3
REMARK    3  A    between atoms: C_12  and  O_13
REMARK    4  A    between atoms: O_13  and  C_14
REMARK    5  A    between atoms: N_21  and  C_22
REMARK    6  A    between atoms: C_22  and  C_24
REMARK    7  A    between atoms: C_27  and  C_28
REMARK    8  A    between atoms: N_29  and  C_30
REMARK    9  A    between atoms: C_30  and  C_31
REMARK   10  A    between atoms: C_31  and  C_32
REMARK   11  A    between atoms: C_31  and  C_33
REMARK   12  A    between atoms: C_31  and  O_34
REMARK   13  A    between atoms: N_35  and  C_36
REMARK                            x       y       z     vdW  Elec       q    Type
REMARK                         _______ _______ _______ _____ _____    ______ ____
ROOT
ATOM      9  C   UNL     1      21.693  -4.479  19.245  0.00  0.00    +0.160 C 
ATOM     10  C   UNL     1      21.706  -3.085  19.135  0.00  0.00    +0.028 C 
ATOM     11  C   UNL     1      22.130  -2.495  17.937  0.00  0.00    +0.083 C 
ATOM     12  C   UNL     1      22.502  -3.285  16.841  0.00  0.00    +0.041 C 
ATOM     13  N   UNL     1      22.928  -2.818  15.648  0.00  0.00    -0.180 NA
ATOM     35  C   UNL     1      22.462  -4.674  16.971  0.00  0.00    +0.063 C 
ATOM     36  C   UNL     1      22.066  -5.263  18.163  0.00  0.00    +0.167 C 
ATOM     37  F   UNL     1      22.041  -6.609  18.260  0.00  0.00    -0.202 F 
ENDROOT
BRANCH  13  14
ATOM     14  C   UNL     1      23.076  -1.522  15.283  0.00  0.00    +0.275 C 
ATOM     34  O   UNL     1      22.877  -0.536  16.000  0.00  0.00    -0.268 OA
BRANCH  14  15
ATOM     15  C   UNL     1      23.687  -1.341  13.900  0.00  0.00    +0.125 A 
ATOM     16  C   UNL     1      24.031  -0.154  13.266  0.00  0.00    +0.051 A 
ATOM     17  N   UNL     1      24.564  -0.482  12.078  0.00  0.00    -0.278 N 
ATOM     18  N   UNL     1      24.564  -1.728  11.936  0.00  0.00    -0.216 N 
ATOM     31  C   UNL     1      23.802   1.263  13.829  0.00  0.00    +0.066 C 
ATOM     32  C   UNL     1      24.090  -2.345  13.034  0.00  0.00    +0.284 A 
ATOM     33  O   UNL     1      23.968  -3.571  13.221  0.00  0.00    -0.265 OA
BRANCH  18  19
ATOM     19  C   UNL     1      25.147  -2.420  10.969  0.00  0.00    +0.067 A 
ATOM     20  C   UNL     1      24.543  -3.200   9.989  0.00  0.00    +0.028 A 
ATOM     21  C   UNL     1      25.356  -3.896   9.093  0.00  0.00    +0.002 A 
ATOM     22  C   UNL     1      26.745  -3.845   9.177  0.00  0.00    +0.000 A 
ATOM     23  C   UNL     1      27.349  -3.086  10.171  0.00  0.00    +0.002 A 
ATOM     24  C   UNL     1      26.546  -2.396  11.073  0.00  0.00    +0.028 A 
ENDBRANCH  18  19
BRANCH  17  25
ATOM     25  C   UNL     1      25.052   0.512  11.086  0.00  0.00    +0.176 C 
BRANCH  25  26
ATOM     26  C   UNL     1      23.938   1.114  10.173  0.00  0.00    +0.080 C 
ATOM     29  C   UNL     1      22.937   1.969  10.951  0.00  0.00    +0.043 C 
ATOM     30  C   UNL     1      24.561   1.983   9.087  0.00  0.00    +0.043 C 
BRANCH  26  27
ATOM     27  O   UNL     1      23.254   0.048   9.530  0.00  0.00    -0.387 OA
ATOM     28  H   UNL     1      23.933  -0.504   8.949  0.00  0.00    +0.210 HD
ENDBRANCH  26  27
ENDBRANCH  25  26
ENDBRANCH  17  25
ENDBRANCH  14  15
ENDBRANCH  13  14
BRANCH   9   8
ATOM      8  O   UNL     1      21.290  -5.099  20.379  0.00  0.00    -0.453 OA
BRANCH   8   7
ATOM      3  C   UNL     1      20.305  -6.336  25.109  0.00  0.00    +0.122 A 
ATOM      4  C   UNL     1      19.527  -6.288  23.948  0.00  0.00    +0.046 A 
ATOM      5  C   UNL     1      20.121  -5.894  22.745  0.00  0.00    +0.017 A 
ATOM      6  C   UNL     1      21.480  -5.541  22.702  0.00  0.00    +0.043 A 
ATOM      7  C   UNL     1      22.078  -5.122  21.505  0.00  0.00    +0.139 A 
ATOM     38  C   UNL     1      23.443  -4.754  21.515  0.00  0.00    +0.066 A 
ATOM     39  C   UNL     1      24.155  -4.816  22.716  0.00  0.00    +0.115 A 
ATOM     40  N   UNL     1      23.558  -5.216  23.836  0.00  0.00    -0.255 NA
ATOM     41  C   UNL     1      22.244  -5.573  23.867  0.00  0.00    +0.078 A 
ATOM     42  C   UNL     1      21.649  -5.960  25.065  0.00  0.00    +0.074 A 
BRANCH   3   2
ATOM      1  C   UNL     1      20.602  -6.929  27.416  0.00  0.00    +0.277 C 
ATOM      2  O   UNL     1      19.718  -6.721  26.274  0.00  0.00    -0.495 OA
ENDBRANCH   3   2
ENDBRANCH   8   7
ENDBRANCH   9   8
TORSDOF 9
