REMARK  Name = 5N84
REMARK  8 active torsions:
REMARK  status: ('A' for Active; 'I' for Inactive)
REMARK    1  A    between atoms: C_2  and  C_7
REMARK    2  A    between atoms: N_3  and  C_4
REMARK    3  A    between atoms: C_10  and  C_13
REMARK    4  A    between atoms: C_18  and  N_22
REMARK    5  A    between atoms: N_22  and  C_23
REMARK    6  A    between atoms: C_23  and  C_24
REMARK    7  A    between atoms: C_24  and  C_25
REMARK    8  A    between atoms: C_24  and  C_26
REMARK                            x       y       z     vdW  Elec       q    Type
REMARK                         _______ _______ _______ _____ _____    ______ ____
ROOT
ATOM      7  C   UNL     1      36.734  43.196  38.607  0.00  0.00    +0.073 A 
ATOM      8  C   UNL     1      36.390  44.179  37.701  0.00  0.00    +0.140 A 
ATOM      9  N   UNL     1      35.621  45.075  38.369  0.00  0.00    -0.232 NA
ATOM     10  C   UNL     1      35.496  44.628  39.652  0.00  0.00    +0.178 A 
ATOM     11  C   UNL     1      34.761  45.220  40.825  0.00  0.00    +0.162 A 
ATOM     18  N   UNL     1      34.783  44.560  42.013  0.00  0.00    -0.235 NA
ATOM     19  C   UNL     1      35.468  43.404  42.131  0.00  0.00    +0.131 A 
ATOM     20  C   UNL     1      36.161  42.847  41.032  0.00  0.00    +0.113 A 
ATOM     21  N   UNL     1      36.175  43.453  39.807  0.00  0.00    -0.295 N 
ENDROOT
BRANCH   7   6
ATOM      3  C   UNL     1      38.934  39.546  37.908  0.00  0.00    +0.037 A 
ATOM      4  C   UNL     1      39.132  40.260  39.110  0.00  0.00    +0.013 A 
ATOM      5  C   UNL     1      38.423  41.450  39.349  0.00  0.00    +0.010 A 
ATOM      6  C   UNL     1      37.521  41.961  38.408  0.00  0.00    +0.000 A 
ATOM     22  C   UNL     1      37.323  41.277  37.228  0.00  0.00    +0.010 A 
ATOM     23  C   UNL     1      38.018  40.075  36.962  0.00  0.00    +0.013 A 
BRANCH   3   2
ATOM      1  O   UNL     1      40.722  38.156  38.359  0.00  0.00    -0.270 OA
ATOM      2  C   UNL     1      39.726  38.267  37.681  0.00  0.00    +0.244 C 
ATOM     24  N   UNL     1      39.388  37.326  36.777  0.00  0.00    -0.309 N 
ATOM     25  H   UNL     1      38.526  37.495  36.167  0.00  0.00    +0.149 HD
BRANCH  24  26
ATOM     26  C   UNL     1      40.146  36.075  36.586  0.00  0.00    +0.073 C 
ATOM     27  C   UNL     1      41.247  35.922  35.514  0.00  0.00    +0.024 C 
ATOM     28  C   UNL     1      39.829  35.437  35.224  0.00  0.00    +0.024 C 
ENDBRANCH  24  26
ENDBRANCH   3   2
ENDBRANCH   7   6
BRANCH  11  12
ATOM     12  N   UNL     1      34.117  46.409  40.670  0.00  0.00    -0.326 N 
ATOM     13  H   UNL     1      34.024  46.817  39.685  0.00  0.00    +0.148 HD
BRANCH  12  14
ATOM     14  C   UNL     1      33.547  47.152  41.794  0.00  0.00    +0.106 C 
BRANCH  14  15
ATOM     15  C   UNL     1      34.574  48.065  42.510  0.00  0.00    -0.000 C 
ATOM     16  C   UNL     1      34.046  48.601  43.843  0.00  0.00    +0.009 C 
ATOM     17  C   UNL     1      35.058  49.221  41.621  0.00  0.00    +0.009 C 
ENDBRANCH  14  15
ENDBRANCH  12  14
ENDBRANCH  11  12
TORSDOF 6
