REMARK  Name = 2o63_ligand
REMARK  7 active torsions:
REMARK  status: ('A' for Active; 'I' for Inactive)
REMARK    1  A    between atoms: C2_2  and  O30_23
REMARK    2  A    between atoms: C6_6  and  O29_22
REMARK    3  A    between atoms: C10_8  and  O27_21
REMARK    4  A    between atoms: C11_9  and  C14_10
REMARK    5  A    between atoms: C16_12  and  O25_20
REMARK    6  A    between atoms: C17_13  and  O24_19
REMARK    7  A    between atoms: C18_14  and  O23_18
REMARK                            x       y       z     vdW  Elec       q    Type
REMARK                         _______ _______ _______ _____ _____    ______ ____
ROOT
ATOM      1  C   UNL     1      76.176  33.073  -1.502  0.00  0.00    +0.030 A 
ATOM      2  C   UNL     1      76.442  33.169  -0.135  0.00  0.00    +0.077 A 
ATOM      5  C   UNL     1      76.280  34.354   0.573  0.00  0.00    +0.034 A 
ATOM      6  C   UNL     1      75.819  35.480  -0.067  0.00  0.00    +0.121 A 
ATOM      7  O   UNL     1      75.631  36.641   0.602  0.00  0.00    -0.259 OA
ATOM      8  C   UNL     1      75.136  37.838  -0.059  0.00  0.00    +0.151 A 
ATOM     21  C   UNL     1      74.860  37.844  -1.371  0.00  0.00    +0.160 A 
ATOM     24  C   UNL     1      75.016  36.639  -2.164  0.00  0.00    +0.145 A 
ATOM     25  O   UNL     1      74.769  36.622  -3.360  0.00  0.00    -0.415 OA
ATOM     26  C   UNL     1      75.511  35.425  -1.493  0.00  0.00    +0.081 A 
ATOM     27  C   UNL     1      75.695  34.164  -2.214  0.00  0.00    +0.093 A 
ENDROOT
BRANCH   8   9
ATOM      9  C   UNL     1      75.012  39.028   0.859  0.00  0.00    -0.014 A 
ATOM     10  C   UNL     1      75.418  38.817   2.192  0.00  0.00    -0.002 A 
ATOM     11  C   UNL     1      75.383  39.840   3.133  0.00  0.00    +0.108 A 
ATOM     14  C   UNL     1      74.885  41.175   2.719  0.00  0.00    +0.144 A 
ATOM     17  C   UNL     1      74.447  41.348   1.325  0.00  0.00    +0.108 A 
ATOM     20  C   UNL     1      74.523  40.273   0.435  0.00  0.00    -0.002 A 
BRANCH  11  12
ATOM     12  O   UNL     1      75.785  39.649   4.388  0.00  0.00    -0.340 OA
ATOM     13  H   UNL     1      75.687  40.457   4.877  0.00  0.00    +0.244 HD
ENDBRANCH  11  12
BRANCH  14  15
ATOM     15  O   UNL     1      74.813  42.192   3.576  0.00  0.00    -0.341 OA
ATOM     16  H   UNL     1      74.472  42.958   3.129  0.00  0.00    +0.241 HD
ENDBRANCH  14  15
BRANCH  17  18
ATOM     18  O   UNL     1      73.994  42.547   0.960  0.00  0.00    -0.340 OA
ATOM     19  H   UNL     1      73.746  42.525   0.043  0.00  0.00    +0.244 HD
ENDBRANCH  17  18
ENDBRANCH   8   9
BRANCH   2   3
ATOM      3  O   UNL     1      76.896  32.109   0.529  0.00  0.00    -0.335 OA
ATOM      4  H   UNL     1      76.961  31.369  -0.064  0.00  0.00    +0.249 HD
ENDBRANCH   2   3
BRANCH  21  22
ATOM     22  O   UNL     1      74.410  38.918  -2.010  0.00  0.00    -0.340 OA
ATOM     23  H   UNL     1      74.280  38.708  -2.927  0.00  0.00    +0.242 HD
ENDBRANCH  21  22
BRANCH  27  28
ATOM     28  O   UNL     1      75.413  34.107  -3.516  0.00  0.00    -0.333 OA
ATOM     29  H   UNL     1      75.959  34.728  -3.985  0.00  0.00    +0.250 HD
ENDBRANCH  27  28
TORSDOF 7
