REMARK  Name = 2cgv_ligand
REMARK  7 active torsions:
REMARK  status: ('A' for Active; 'I' for Inactive)
REMARK    1  A    between atoms: C4B_6  and  N5_7
REMARK    2  A    between atoms: N5_7  and  C6_8
REMARK    3  A    between atoms: C6_8  and  CB_13
REMARK    4  A    between atoms: C10_11  and  N1_18
REMARK    5  A    between atoms: CB_13  and  CA_14
REMARK    6  A    between atoms: CB_13  and  O16_19
REMARK    7  A    between atoms: CA_14  and  N_15
REMARK                            x       y       z     vdW  Elec       q    Type
REMARK                         _______ _______ _______ _____ _____    ______ ____
ROOT
ATOM      1  C   UNL     1       4.052  -3.979  19.212  0.00  0.00    +0.172 A 
ATOM      2  C   UNL     1       3.049  -4.774  18.539  0.00  0.00    +0.170 A 
ATOM      3  C   UNL     1       1.787  -4.615  18.934  0.00  0.00    +0.225 A 
ATOM      7  C   UNL     1       0.662  -5.284  18.378  0.00  0.00    +0.236 A 
ATOM      8  C   UNL     1       0.867  -6.204  17.350  0.00  0.00    +0.272 A 
ATOM      9  C   UNL     1       2.190  -6.399  16.934  0.00  0.00    +0.249 A 
ATOM     21  C   UNL     1       3.267  -5.721  17.517  0.00  0.00    +0.231 A 
ATOM     22  N   UNL     1       4.573  -5.900  17.101  0.00  0.00    -0.191 NA
ATOM     23  C   UNL     1       5.570  -5.152  17.702  0.00  0.00    +0.204 A 
ATOM     24  C   UNL     1       5.352  -4.185  18.764  0.00  0.00    +0.142 A 
ENDROOT
BRANCH   3   4
ATOM      4  N   UNL     1       1.652  -3.689  19.861  0.00  0.00    -0.116 N 
ATOM      5  O   UNL     1       0.240  -3.669  20.227  0.00  0.00    -0.439 OA
ATOM      6  O   UNL     1       2.798  -2.717  20.309  0.00  0.00    -0.439 OA
ENDBRANCH   3   4
BRANCH   9  10
ATOM     10  N   UNL     1       2.405  -7.284  15.945  0.00  0.00    -0.217 N 
ATOM     11  H   UNL     1       1.600  -7.841  15.625  0.00  0.00    +0.264 HD
BRANCH  10  12
ATOM     12  C   UNL     1       3.744  -7.531  15.258  0.00  0.00    +0.238 C 
BRANCH  12  13
ATOM     13  C   UNL     1       3.925  -6.663  13.895  0.00  0.00    +0.193 C 
BRANCH  13  14
ATOM     14  O   UNL     1       3.275  -5.369  14.048  0.00  0.00    -0.383 OA
ATOM     15  H   UNL     1       2.339  -5.495  14.149  0.00  0.00    +0.210 HD
ENDBRANCH  13  14
BRANCH  13  16
ATOM     16  C   UNL     1       5.399  -6.090  13.758  0.00  0.00    +0.162 C 
BRANCH  16  17
ATOM     17  N   UNL     1       5.969  -5.901  12.429  0.00  0.00    +0.220 N 
ATOM     18  H   UNL     1       5.998  -6.786  11.947  0.00  0.00    +0.200 HD
ATOM     19  H   UNL     1       5.399  -5.253  11.908  0.00  0.00    +0.200 HD
ATOM     20  H   UNL     1       6.904  -5.533  12.514  0.00  0.00    +0.200 HD
ENDBRANCH  16  17
ENDBRANCH  13  16
ENDBRANCH  12  13
ENDBRANCH  10  12
ENDBRANCH   9  10
TORSDOF 7
