REMARK  Name = 4wwn_ligand
REMARK  4 active torsions:
REMARK  status: ('A' for Active; 'I' for Inactive)
REMARK    1  A    between atoms: N7_10  and  C10_11
REMARK    2  A    between atoms: C10_11  and  C11_12
REMARK    3  A    between atoms: C10_11  and  C1_13
REMARK    4  A    between atoms: C2_23  and  C12_24
REMARK                            x       y       z     vdW  Elec       q    Type
REMARK                         _______ _______ _______ _____ _____    ______ ____
ROOT
ATOM      6  C   UNL     1      20.968  16.753  20.316  0.00  0.00    +0.021 A 
ATOM      7  C   UNL     1      19.824  17.506  19.994  0.00  0.00    +0.074 A 
ATOM     14  N   UNL     1      19.229  17.406  18.794  0.00  0.00    -0.293 NA
ATOM     15  C   UNL     1      19.719  16.598  17.855  0.00  0.00    +0.039 A 
ATOM     16  C   UNL     1      19.076  16.522  16.622  0.00  0.00    +0.051 A 
ATOM     17  C   UNL     1      19.580  15.658  15.652  0.00  0.00    +0.137 A 
ATOM     18  F   UNL     1      18.987  15.545  14.446  0.00  0.00    -0.181 F 
ATOM     19  C   UNL     1      20.709  14.883  15.922  0.00  0.00    +0.041 A 
ATOM     20  C   UNL     1      21.354  14.974  17.152  0.00  0.00    +0.014 A 
ATOM     21  C   UNL     1      20.859  15.825  18.121  0.00  0.00    -0.003 A 
ATOM     22  C   UNL     1      21.498  15.901  19.352  0.00  0.00    +0.034 A 
ENDROOT
BRANCH   7   8
ATOM      8  C   UNL     1      19.218  18.388  20.873  0.00  0.00    +0.071 A 
ATOM      9  N   UNL     1      18.144  17.968  21.573  0.00  0.00    -0.287 NA
ATOM     10  C   UNL     1      17.520  18.774  22.403  0.00  0.00    +0.096 A 
ATOM     11  C   UNL     1      17.947  20.090  22.568  0.00  0.00    +0.040 A 
ATOM     12  C   UNL     1      19.044  20.561  21.850  0.00  0.00    +0.034 A 
ATOM     13  C   UNL     1      19.690  19.695  20.980  0.00  0.00    +0.050 A 
ENDBRANCH   7   8
BRANCH   6   5
ATOM      5  C   UNL     1      21.665  16.853  21.677  0.00  0.00    +0.151 C 
ATOM     23  C   UNL     1      22.894  17.734  21.468  0.00  0.00    +0.052 C 
BRANCH   5   3
ATOM      1  C   UNL     1      21.993  13.362  23.140  0.00  0.00    +0.155 A 
ATOM      2  C   UNL     1      21.391  14.534  22.679  0.00  0.00    +0.157 A 
ATOM      3  N   UNL     1      22.143  15.536  22.182  0.00  0.00    -0.286 N 
ATOM      4  H   UNL     1      23.160  15.373  22.148  0.00  0.00    +0.187 HD
ATOM     24  N   UNL     1      20.061  14.603  22.754  0.00  0.00    -0.269 NA
ATOM     25  C   UNL     1      19.339  13.587  23.240  0.00  0.00    +0.148 A 
ATOM     26  N   UNL     1      19.880  12.461  23.693  0.00  0.00    -0.295 NA
ATOM     27  C   UNL     1      21.208  12.328  23.637  0.00  0.00    +0.102 A 
ATOM     28  N   UNL     1      22.026  11.354  23.987  0.00  0.00    -0.286 NA
ATOM     29  C   UNL     1      23.280  11.736  23.746  0.00  0.00    +0.251 A 
ATOM     30  N   UNL     1      23.263  12.961  23.229  0.00  0.00    -0.241 N 
ATOM     31  H   UNL     1      24.089  13.507  22.946  0.00  0.00    +0.238 HD
ENDBRANCH   5   3
ENDBRANCH   6   5
TORSDOF 3
