REMARK  Name = 5AV2
REMARK  5 active torsions:
REMARK  status: ('A' for Active; 'I' for Inactive)
REMARK    1  A    between atoms: C_2  and  O_21
REMARK    2  A    between atoms: C_6  and  O_20
REMARK    3  A    between atoms: C_8  and  O_19
REMARK    4  A    between atoms: C_9  and  C_10
REMARK    5  A    between atoms: C_13  and  O_18
REMARK                            x       y       z     vdW  Elec       q    Type
REMARK                         _______ _______ _______ _____ _____    ______ ____
ROOT
ATOM      1  C   UNL     1     -20.100  -1.129 -12.012  0.00  0.00    +0.091 A 
ATOM      2  C   UNL     1     -19.870  -0.341 -10.890  0.00  0.00    +0.124 A 
ATOM      5  C   UNL     1     -20.704   0.728 -10.593  0.00  0.00    +0.092 A 
ATOM      6  C   UNL     1     -21.768   1.026 -11.425  0.00  0.00    +0.146 A 
ATOM      7  O   UNL     1     -22.583   2.073 -11.106  0.00  0.00    -0.451 OA
ATOM      8  C   UNL     1     -23.693   2.372 -11.834  0.00  0.00    +0.181 C 
ATOM     17  C   UNL     1     -23.952   1.591 -12.966  0.00  0.00    +0.208 C 
ATOM     20  C   UNL     1     -23.109   0.562 -13.371  0.00  0.00    +0.238 C 
ATOM     21  O   UNL     1     -23.363  -0.105 -14.373  0.00  0.00    -0.283 OA
ATOM     22  C   UNL     1     -22.015   0.264 -12.568  0.00  0.00    +0.109 A 
ATOM     23  C   UNL     1     -21.174  -0.822 -12.840  0.00  0.00    +0.135 A 
ENDROOT
BRANCH   8   9
ATOM      9  C   UNL     1     -24.487   3.379 -11.267  0.00  0.00    +0.021 A 
ATOM     10  C   UNL     1     -25.642   3.891 -11.860  0.00  0.00    +0.015 A 
ATOM     11  C   UNL     1     -26.395   4.864 -11.205  0.00  0.00    +0.046 A 
ATOM     12  C   UNL     1     -26.011   5.322  -9.943  0.00  0.00    +0.117 A 
ATOM     15  C   UNL     1     -24.873   4.801  -9.331  0.00  0.00    +0.046 A 
ATOM     16  C   UNL     1     -24.127   3.833  -9.994  0.00  0.00    +0.015 A 
BRANCH  12  13
ATOM     13  O   UNL     1     -26.756   6.264  -9.298  0.00  0.00    -0.507 OA
ATOM     14  H   UNL     1     -27.111   5.870  -8.392  0.00  0.00    +0.292 HD
ENDBRANCH  12  13
ENDBRANCH   8   9
BRANCH   2   3
ATOM      3  O   UNL     1     -18.832  -0.613 -10.060  0.00  0.00    -0.506 OA
ATOM      4  H   UNL     1     -18.942  -1.580  -9.667  0.00  0.00    +0.292 HD
ENDBRANCH   2   3
BRANCH  17  18
ATOM     18  O   UNL     1     -25.061   1.831 -13.726  0.00  0.00    -0.501 OA
ATOM     19  H   UNL     1     -24.769   2.079 -14.704  0.00  0.00    +0.292 HD
ENDBRANCH  17  18
BRANCH  23  24
ATOM     24  O   UNL     1     -21.446  -1.563 -13.953  0.00  0.00    -0.506 OA
ATOM     25  H   UNL     1     -20.623  -1.532 -14.605  0.00  0.00    +0.292 HD
ENDBRANCH  23  24
TORSDOF 5
