REMARK  Name = 3pjc_ligand
REMARK  3 active torsions:
REMARK  status: ('A' for Active; 'I' for Inactive)
REMARK    1  A    between atoms: C5_1  and  C2_10
REMARK    2  A    between atoms: C6_2  and  C27_19
REMARK    3  A    between atoms: C28_8  and  C35_25
REMARK                            x       y       z     vdW  Elec       q    Type
REMARK                         _______ _______ _______ _____ _____    ______ ____
ROOT
ATOM     18  C   UNL     1       9.126  -3.666   8.931  0.00  0.00    +0.104 C 
ATOM     19  C   UNL     1       9.224  -2.586   7.951  0.00  0.00    +0.234 C 
ATOM     20  O   UNL     1       8.270  -2.147   7.337  0.00  0.00    -0.375 OA
ATOM     21  N   UNL     1      10.494  -2.154   7.862  0.00  0.00    -0.196 N 
ATOM     22  H   UNL     1      10.839  -1.406   7.261  0.00  0.00    +0.221 HD
ATOM     23  C   UNL     1      11.224  -2.894   8.715  0.00  0.00    +0.259 C 
ATOM     24  O   UNL     1      12.420  -2.762   8.902  0.00  0.00    -0.350 OA
ATOM     25  C   UNL     1      10.384  -3.928   9.356  0.00  0.00    +0.095 C 
ENDROOT
BRANCH  18  17
ATOM      1  C   UNL     1       6.906  -4.989   8.410  0.00  0.00    +0.063 A 
ATOM      6  C   UNL     1       5.772  -5.608   8.969  0.00  0.00    +0.148 A 
ATOM      7  N   UNL     1       5.564  -5.601  10.296  0.00  0.00    -0.226 NA
ATOM      8  C   UNL     1       6.393  -4.925  11.129  0.00  0.00    +0.212 A 
ATOM      9  N   UNL     1       7.520  -4.375  10.604  0.00  0.00    -0.238 NA
ATOM     10  N   UNL     1       6.241  -4.971  12.488  0.00  0.00    -0.258 N 
ATOM     11  C   UNL     1       5.293  -5.896  13.133  0.00  0.00    +0.169 C 
ATOM     12  C   UNL     1       6.152  -7.123  13.576  0.00  0.00    +0.146 C 
ATOM     13  C   UNL     1       7.419  -6.655  14.281  0.00  0.00    +0.109 C 
ATOM     14  O   UNL     1       7.833  -7.283  15.229  0.00  0.00    -0.392 OA
ATOM     15  C   UNL     1       8.178  -5.409  13.843  0.00  0.00    +0.146 C 
ATOM     16  C   UNL     1       7.187  -4.292  13.385  0.00  0.00    +0.169 C 
ATOM     17  C   UNL     1       7.839  -4.393   9.297  0.00  0.00    +0.071 A 
BRANCH   1   2
ATOM      2  C   UNL     1       7.097  -5.173   6.906  0.00  0.00    +0.350 C 
ATOM      3  F   UNL     1       6.703  -6.436   6.603  0.00  0.00    -0.251 F 
ATOM      4  F   UNL     1       8.404  -5.110   6.559  0.00  0.00    -0.251 F 
ATOM      5  F   UNL     1       6.382  -4.273   6.185  0.00  0.00    -0.251 F 
ENDBRANCH   1   2
ENDBRANCH  18  17
BRANCH  25  26
ATOM     26  C   UNL     1      10.872  -4.837  10.428  0.00  0.00    +0.043 A 
ATOM     27  C   UNL     1      10.336  -6.180  10.869  0.00  0.00    +0.003 A 
ATOM     28  C   UNL     1       9.293  -7.033  10.488  0.00  0.00    -0.012 A 
ATOM     29  C   UNL     1       9.119  -8.210  11.246  0.00  0.00    -0.021 A 
ATOM     30  C   UNL     1       9.978  -8.542  12.329  0.00  0.00    -0.017 A 
ATOM     31  C   UNL     1      11.058  -7.708  12.672  0.00  0.00    +0.019 A 
ATOM     32  C   UNL     1      11.200  -6.531  11.916  0.00  0.00    +0.080 A 
ATOM     33  N   UNL     1      12.136  -5.578  12.059  0.00  0.00    -0.252 N 
ATOM     34  H   UNL     1      12.882  -5.602  12.755  0.00  0.00    +0.242 HD
ATOM     35  C   UNL     1      11.967  -4.616  11.191  0.00  0.00    +0.204 A 
ENDBRANCH  25  26
TORSDOF 3
