REMARK  Name = 3zep_ligand
REMARK  8 active torsions:
REMARK  status: ('A' for Active; 'I' for Inactive)
REMARK    1  A    between atoms: C1_1  and  C2_2
REMARK    2  A    between atoms: C2_2  and  N4_3
REMARK    3  A    between atoms: C2_2  and  C31_29
REMARK    4  A    between atoms: C5_4  and  C7_6
REMARK    5  A    between atoms: C13_12  and  O16_15
REMARK    6  A    between atoms: O16_15  and  C17_16
REMARK    7  A    between atoms: C20_19  and  N22_20
REMARK    8  A    between atoms: C23_21  and  C24_22
REMARK                            x       y       z     vdW  Elec       q    Type
REMARK                         _______ _______ _______ _____ _____    ______ ____
ROOT
ATOM      9  C   UNL     1      -8.887  -9.643   6.227  0.00  0.00    +0.071 A 
ATOM     10  C   UNL     1      -9.806  -8.606   6.713  0.00  0.00    +0.075 A 
ATOM     11  N   UNL     1     -10.065  -8.121   7.927  0.00  0.00    -0.270 NA
ATOM     12  C   UNL     1     -10.970  -7.161   8.099  0.00  0.00    +0.198 A 
ATOM     28  C   UNL     1     -11.630  -6.668   6.967  0.00  0.00    +0.141 A 
ATOM     29  N   UNL     1     -11.376  -7.141   5.752  0.00  0.00    -0.265 NA
ATOM     30  C   UNL     1     -10.476  -8.107   5.581  0.00  0.00    +0.160 A 
ATOM     31  N   UNL     1      -9.998  -8.796   4.489  0.00  0.00    -0.251 N 
ATOM     32  H   UNL     1     -10.307  -8.646   3.518  0.00  0.00    +0.237 HD
ATOM     33  C   UNL     1      -9.063  -9.701   4.873  0.00  0.00    +0.173 A 
ENDROOT
BRANCH   9   8
ATOM      6  N   UNL     1      -8.045 -10.325   8.415  0.00  0.00    -0.288 N 
ATOM      7  H   UNL     1      -8.702  -9.673   8.793  0.00  0.00    +0.184 HD
ATOM      8  C   UNL     1      -7.981 -10.451   7.059  0.00  0.00    +0.182 C 
ATOM     34  O   UNL     1      -7.207 -11.216   6.509  0.00  0.00    -0.402 OA
BRANCH   6   2
ATOM      1  C   UNL     1      -6.465 -10.105  10.256  0.00  0.00    +0.034 C 
ATOM      2  C   UNL     1      -7.215 -11.082   9.355  0.00  0.00    +0.096 C 
BRANCH   2   3
ATOM      3  C   UNL     1      -8.162 -11.943  10.193  0.00  0.00    +0.014 C 
ATOM      4  C   UNL     1      -7.764 -13.390  10.482  0.00  0.00    +0.006 C 
ATOM      5  C   UNL     1      -8.878 -13.089   9.479  0.00  0.00    +0.006 C 
ENDBRANCH   2   3
ENDBRANCH   6   2
ENDBRANCH   9   8
BRANCH  12  13
ATOM     13  O   UNL     1     -11.290  -6.623   9.318  0.00  0.00    -0.244 OA
BRANCH  13  14
ATOM     14  C   UNL     1     -10.891  -7.048  10.562  0.00  0.00    +0.107 A 
ATOM     15  C   UNL     1     -10.593  -8.380  10.883  0.00  0.00    +0.007 A 
ATOM     16  C   UNL     1     -10.204  -8.722  12.169  0.00  0.00    -0.022 A 
ATOM     17  C   UNL     1     -10.117  -7.755  13.163  0.00  0.00    -0.048 A 
ATOM     18  C   UNL     1      -9.724  -7.874  14.618  0.00  0.00    +0.057 C 
ATOM     19  C   UNL     1      -9.359  -6.437  15.045  0.00  0.00    +0.051 C 
ATOM     20  C   UNL     1     -10.246  -5.587  14.111  0.00  0.00    +0.143 C 
ATOM     26  C   UNL     1     -10.418  -6.433  12.864  0.00  0.00    -0.023 A 
ATOM     27  C   UNL     1     -10.807  -6.087  11.572  0.00  0.00    +0.017 A 
BRANCH  20  21
ATOM     21  N   UNL     1      -9.574  -4.317  13.798  0.00  0.00    -0.274 N 
ATOM     22  H   UNL     1      -8.661  -4.355  13.392  0.00  0.00    +0.188 HD
ATOM     23  C   UNL     1     -10.120  -3.098  14.028  0.00  0.00    +0.175 C 
ATOM     24  O   UNL     1     -11.225  -2.956  14.513  0.00  0.00    -0.397 OA
ATOM     25  C   UNL     1      -9.324  -1.872  13.665  0.00  0.00    +0.166 C 
ENDBRANCH  20  21
ENDBRANCH  13  14
ENDBRANCH  12  13
TORSDOF 6
