REMARK  Name = 3eyg_ligand
REMARK  6 active torsions:
REMARK  status: ('A' for Active; 'I' for Inactive)
REMARK    1  A    between atoms: C1_1  and  N8_13
REMARK    2  A    between atoms: C6_5  and  C7_12
REMARK    3  A    between atoms: C20_8  and  C22_9
REMARK    4  A    between atoms: C22_9  and  C23_10
REMARK    5  A    between atoms: N8_13  and  C9_14
REMARK    6  A    between atoms: N8_13  and  C10_15
REMARK                            x       y       z     vdW  Elec       q    Type
REMARK                         _______ _______ _______ _____ _____    ______ ____
ROOT
ATOM      1  C   UNL     1      11.400  14.076 -15.349  0.00  0.00    +0.125 C 
ATOM     14  C   UNL     1      11.713  12.552 -15.122  0.00  0.00    +0.016 C 
ATOM     15  C   UNL     1      13.007  11.955 -15.729  0.00  0.00    +0.010 C 
ATOM     16  C   UNL     1      10.544  11.632 -15.538  0.00  0.00    +0.030 C 
ATOM     17  C   UNL     1      10.043  11.904 -16.962  0.00  0.00    +0.139 C 
ATOM     18  N   UNL     1       9.909  13.380 -17.070  0.00  0.00    -0.269 N 
ATOM     19  C   UNL     1       8.779  13.946 -17.437  0.00  0.00    +0.205 C 
ATOM     23  O   UNL     1       8.664  15.160 -17.564  0.00  0.00    -0.395 OA
ATOM     24  C   UNL     1      11.111  14.198 -16.832  0.00  0.00    +0.167 C 
ENDROOT
BRANCH   1   2
ATOM      2  N   UNL     1      12.608  14.879 -14.929  0.00  0.00    -0.286 N 
ATOM     13  C   UNL     1      13.600  15.373 -15.888  0.00  0.00    +0.170 C 
BRANCH   2   3
ATOM      3  C   UNL     1      12.872  15.198 -13.612  0.00  0.00    +0.121 A 
ATOM      4  N   UNL     1      14.016  15.902 -13.308  0.00  0.00    -0.273 NA
ATOM      5  C   UNL     1      14.309  16.174 -12.002  0.00  0.00    +0.148 A 
ATOM      6  N   UNL     1      13.530  15.816 -10.946  0.00  0.00    -0.277 NA
ATOM      7  C   UNL     1      12.415  15.138 -11.268  0.00  0.00    +0.136 A 
ATOM      8  N   UNL     1      11.478  14.674 -10.421  0.00  0.00    -0.267 N 
ATOM      9  H   UNL     1      11.489  14.792  -9.398  0.00  0.00    +0.232 HD
ATOM     10  C   UNL     1      10.502  14.017 -11.137  0.00  0.00    +0.117 A 
ATOM     11  C   UNL     1      10.779  14.068 -12.489  0.00  0.00    -0.023 A 
ATOM     12  C   UNL     1      12.037  14.796 -12.553  0.00  0.00    +0.043 A 
ENDBRANCH   2   3
ENDBRANCH   1   2
BRANCH  19  20
ATOM     20  C   UNL     1       7.586  13.042 -17.659  0.00  0.00    +0.321 C 
BRANCH  20  21
ATOM     21  C   UNL     1       6.402  13.886 -17.886  0.00  0.00    +0.112 C 
ATOM     22  N   UNL     1       5.440  14.506 -18.077  0.00  0.00    -0.301 NA
ENDBRANCH  20  21
ENDBRANCH  19  20
TORSDOF 4
