REMARK  Name = 4FV9
REMARK  3 active torsions:
REMARK  status: ('A' for Active; 'I' for Inactive)
REMARK    1  A    between atoms: C_8  and  C_9
REMARK    2  A    between atoms: C_10  and  C_14
REMARK    3  A    between atoms: C_21  and  C_23
REMARK                            x       y       z     vdW  Elec       q    Type
REMARK                         _______ _______ _______ _____ _____    ______ ____
ROOT
ATOM     12  C   UNL     1     -15.526   1.601  14.204  0.00  0.00    +0.047 A 
ATOM     13  C   UNL     1     -16.838   1.722  14.800  0.00  0.00    +0.030 A 
ATOM     14  C   UNL     1     -17.373   2.424  15.879  0.00  0.00    +0.022 A 
ATOM     15  C   UNL     1     -18.731   2.307  16.182  0.00  0.00    +0.001 A 
ATOM     22  C   UNL     1     -19.478   1.494  15.336  0.00  0.00    +0.121 A 
ATOM     23  N   UNL     1     -18.971   0.796  14.311  0.00  0.00    -0.237 NA
ATOM     24  C   UNL     1     -17.657   0.903  14.056  0.00  0.00    +0.139 A 
ATOM     25  N   UNL     1     -16.952   0.274  13.072  0.00  0.00    -0.345 N 
ATOM     26  H   UNL     1     -17.328  -0.393  12.406  0.00  0.00    +0.167 HD
ATOM     27  C   UNL     1     -15.657   0.708  13.163  0.00  0.00    +0.096 A 
ENDROOT
BRANCH  15  16
ATOM     16  C   UNL     1     -19.355   3.137  17.255  0.00  0.00    -0.014 A 
ATOM     17  C   UNL     1     -18.635   3.512  18.392  0.00  0.00    +0.028 A 
ATOM     18  C   UNL     1     -19.284   4.163  19.426  0.00  0.00    +0.111 A 
ATOM     19  N   UNL     1     -20.588   4.458  19.416  0.00  0.00    -0.263 NA
ATOM     20  C   UNL     1     -21.279   4.085  18.335  0.00  0.00    +0.111 A 
ATOM     21  C   UNL     1     -20.718   3.434  17.252  0.00  0.00    +0.028 A 
ENDBRANCH  15  16
BRANCH  12  11
ATOM      7  C   UNL     1     -13.239   2.755  13.882  0.00  0.00    +0.052 A 
ATOM      8  C   UNL     1     -12.434   3.366  14.855  0.00  0.00    +0.165 A 
ATOM      9  N   UNL     1     -12.950   3.307  16.049  0.00  0.00    -0.085 NA
ATOM     10  O   UNL     1     -14.172   2.613  15.882  0.00  0.00    -0.354 OA
ATOM     11  C   UNL     1     -14.336   2.289  14.582  0.00  0.00    +0.177 A 
BRANCH   7   6
ATOM      1  F   UNL     1     -10.287   1.823  10.149  0.00  0.00    -0.203 F 
ATOM      2  C   UNL     1     -11.524   2.143  10.588  0.00  0.00    +0.159 A 
ATOM      3  C   UNL     1     -12.530   2.393   9.683  0.00  0.00    +0.041 A 
ATOM      4  C   UNL     1     -13.766   2.804  10.158  0.00  0.00    +0.004 A 
ATOM      5  C   UNL     1     -13.986   2.946  11.518  0.00  0.00    +0.012 A 
ATOM      6  C   UNL     1     -12.965   2.653  12.423  0.00  0.00    +0.025 A 
ATOM     28  C   UNL     1     -11.739   2.249  11.942  0.00  0.00    +0.166 A 
ATOM     29  F   UNL     1     -10.749   1.906  12.785  0.00  0.00    -0.202 F 
ENDBRANCH   7   6
ENDBRANCH  12  11
TORSDOF 3
