REMARK  Name = 5CTP
REMARK  8 active torsions:
REMARK  status: ('A' for Active; 'I' for Inactive)
REMARK    1  A    between atoms: C_1  and  C_22
REMARK    2  A    between atoms: C_2  and  C_3
REMARK    3  A    between atoms: C_2  and  C_19
REMARK    4  A    between atoms: C_3  and  N_18
REMARK    5  A    between atoms: C_4  and  C_17
REMARK    6  A    between atoms: C_4  and  N_18
REMARK    7  A    between atoms: C_7  and  C_10
REMARK    8  A    between atoms: C_19  and  N_20
REMARK                            x       y       z     vdW  Elec       q    Type
REMARK                         _______ _______ _______ _____ _____    ______ ____
ROOT
ATOM     12  C   UNL     1      -0.826 166.531 398.600  0.00  0.00    -0.032 A 
ATOM     13  C   UNL     1      -1.282 167.506 399.475  0.00  0.00    +0.025 A 
ATOM     14  C   UNL     1      -2.630 167.623 399.747  0.00  0.00    +0.049 A 
ATOM     15 CL   UNL     1      -3.134 168.866 400.845  0.00  0.00    -0.083 Cl
ATOM     16  C   UNL     1      -3.572 166.780 399.162  0.00  0.00    +0.001 A 
ATOM     23  C   UNL     1      -3.102 165.802 398.287  0.00  0.00    +0.010 A 
ATOM     24  C   UNL     1      -1.751 165.685 398.013  0.00  0.00    +0.005 A 
ENDROOT
BRANCH  16  17
ATOM     17  C   UNL     1      -5.036 166.870 399.420  0.00  0.00    -0.017 A 
ATOM     18  C   UNL     1      -5.681 165.933 400.223  0.00  0.00    +0.008 A 
ATOM     19  C   UNL     1      -7.039 166.026 400.469  0.00  0.00    +0.001 A 
ATOM     20  C   UNL     1      -7.776 167.054 399.920  0.00  0.00    +0.000 A 
ATOM     21  C   UNL     1      -7.154 167.988 399.121  0.00  0.00    +0.001 A 
ATOM     22  C   UNL     1      -5.796 167.899 398.872  0.00  0.00    +0.008 A 
ENDBRANCH  16  17
BRANCH  12  11
ATOM     11  C   UNL     1       0.647 166.409 398.287  0.00  0.00    +0.116 C 
BRANCH  11   9
ATOM      9  N   UNL     1       0.974 165.192 397.543  0.00  0.00    -0.312 NA
ATOM     10  H   UNL     1       0.507 164.359 398.025  0.00  0.00    +0.122 HD
BRANCH   9   8
ATOM      8  C   UNL     1       2.415 164.949 397.476  0.00  0.00    +0.083 C 
BRANCH   8   7
ATOM      7  C   UNL     1       2.829 164.302 396.173  0.00  0.00    +0.034 C 
BRANCH   7   6
ATOM      6  C   UNL     1       4.171 163.604 396.238  0.00  0.00    +0.105 C 
BRANCH   6   4
ATOM      1  C   UNL     1       5.622 163.534 394.268  0.00  0.00    +0.210 C 
ATOM      2  C   UNL     1       5.968 162.804 393.004  0.00  0.00    +0.109 C 
ATOM      3  O   UNL     1       6.269 164.502 394.657  0.00  0.00    -0.276 OA
ATOM      4  N   UNL     1       4.572 163.071 394.947  0.00  0.00    -0.316 N 
ATOM      5  H   UNL     1       4.000 162.272 394.523  0.00  0.00    +0.149 HD
ENDBRANCH   6   4
ENDBRANCH   7   6
ENDBRANCH   8   7
ENDBRANCH   9   8
ENDBRANCH  11   9
ENDBRANCH  12  11
TORSDOF 7
