REMARK  Name = 5J95
REMARK  6 active torsions:
REMARK  status: ('A' for Active; 'I' for Inactive)
REMARK    1  A    between atoms: N_2  and  C_17
REMARK    2  A    between atoms: C_3  and  C_4
REMARK    3  A    between atoms: C_5  and  C_20
REMARK    4  A    between atoms: C_10  and  C_15
REMARK    5  A    between atoms: C_10  and  C_26
REMARK    6  A    between atoms: C_26  and  O_28
REMARK                            x       y       z     vdW  Elec       q    Type
REMARK                         _______ _______ _______ _____ _____    ______ ____
ROOT
ATOM      6  C   UNL     1     -34.068  -5.755  20.933  0.00  0.00    +0.001 A 
ATOM      7  C   UNL     1     -33.315  -6.909  20.653  0.00  0.00    +0.121 A 
ATOM      8  N   UNL     1     -33.485  -7.692  19.579  0.00  0.00    -0.239 NA
ATOM      9  C   UNL     1     -34.472  -7.323  18.685  0.00  0.00    +0.124 A 
ATOM     10  C   UNL     1     -35.313  -6.205  18.913  0.00  0.00    +0.022 A 
ATOM     21  C   UNL     1     -35.095  -5.434  20.050  0.00  0.00    +0.022 A 
ENDROOT
BRANCH  10  11
ATOM     11  C   UNL     1     -36.363  -5.823  17.978  0.00  0.00    -0.015 A 
ATOM     12  C   UNL     1     -36.400  -4.505  17.513  0.00  0.00    +0.010 A 
ATOM     13  C   UNL     1     -37.392  -4.110  16.623  0.00  0.00    +0.020 A 
ATOM     14  C   UNL     1     -38.333  -5.042  16.225  0.00  0.00    +0.041 A 
ATOM     15 CL   UNL     1     -39.561  -4.553  15.117  0.00  0.00    -0.084 Cl
ATOM     16  C   UNL     1     -38.327  -6.350  16.683  0.00  0.00    +0.020 A 
ATOM     17  C   UNL     1     -37.327  -6.739  17.568  0.00  0.00    +0.010 A 
ENDBRANCH  10  11
BRANCH   6   3
ATOM      1  C   UNL     1     -33.714  -2.800  23.223  0.00  0.00    +0.005 A 
ATOM      2  C   UNL     1     -34.015  -3.571  22.105  0.00  0.00    +0.009 A 
ATOM      3  C   UNL     1     -33.764  -4.942  22.102  0.00  0.00    -0.016 A 
ATOM      4  C   UNL     1     -33.201  -5.525  23.239  0.00  0.00    +0.009 A 
ATOM      5  C   UNL     1     -32.877  -4.752  24.345  0.00  0.00    +0.005 A 
ATOM     22  C   UNL     1     -33.122  -3.380  24.340  0.00  0.00    -0.031 A 
BRANCH  22  23
ATOM     23  C   UNL     1     -32.741  -2.580  25.546  0.00  0.00    +0.092 C 
ATOM     28  C   UNL     1     -32.686  -1.059  25.329  0.00  0.00    +0.023 C 
ATOM     29  C   UNL     1     -31.833  -0.537  26.483  0.00  0.00    +0.001 C 
ATOM     30  C   UNL     1     -30.882  -1.678  26.853  0.00  0.00    +0.001 C 
ATOM     31  C   UNL     1     -31.315  -2.894  26.032  0.00  0.00    +0.023 C 
BRANCH  23  24
ATOM     24  C   UNL     1     -33.781  -2.895  26.601  0.00  0.00    +0.315 C 
ATOM     27  O   UNL     1     -34.767  -2.240  26.899  0.00  0.00    -0.250 OA
BRANCH  24  25
ATOM     25  O   UNL     1     -33.577  -4.068  27.240  0.00  0.00    -0.480 OA
ATOM     26  H   UNL     1     -33.594  -4.854  26.544  0.00  0.00    +0.295 HD
ENDBRANCH  24  25
ENDBRANCH  23  24
ENDBRANCH  22  23
ENDBRANCH   6   3
BRANCH   9  18
ATOM     18  N   UNL     1     -34.562  -8.102  17.559  0.00  0.00    -0.343 N 
ATOM     19  H   UNL     1     -33.904  -8.936  17.432  0.00  0.00    +0.144 HD
ATOM     20  H   UNL     1     -35.290  -7.875  16.808  0.00  0.00    +0.144 HD
ENDBRANCH   9  18
TORSDOF 6
