REMARK  Name = 4U9A
REMARK  5 active torsions:
REMARK  status: ('A' for Active; 'I' for Inactive)
REMARK    1  A    between atoms: C_4  and  N_34
REMARK    2  A    between atoms: C_5  and  O_32
REMARK    3  A    between atoms: C_6  and  C_7
REMARK    4  A    between atoms: O_32  and  C_33
REMARK    5  A    between atoms: N_34  and  C_35
REMARK                            x       y       z     vdW  Elec       q    Type
REMARK                         _______ _______ _______ _____ _____    ______ ____
ROOT
ATOM      1  O   UNL     1      -0.979  21.411  21.277  0.00  0.00    -0.328 OA
ATOM      2  C   UNL     1       0.316  22.076  20.899  0.00  0.00    +0.174 C 
ATOM      3  N   UNL     1       1.225  22.167  21.994  0.00  0.00    -0.307 N 
ATOM      4  C   UNL     1       2.608  22.143  21.915  0.00  0.00    +0.053 A 
ATOM      5  C   UNL     1       3.515  21.993  20.858  0.00  0.00    +0.026 A 
ATOM      6  C   UNL     1       4.880  22.013  21.150  0.00  0.00    +0.002 A 
ATOM      7  C   UNL     1       5.372  22.178  22.418  0.00  0.00    +0.001 A 
ATOM      8  C   UNL     1       4.508  22.326  23.486  0.00  0.00    +0.010 A 
ATOM      9  C   UNL     1       3.130  22.305  23.203  0.00  0.00    +0.008 A 
ATOM     10  C   UNL     1       2.038  22.438  24.071  0.00  0.00    +0.019 A 
ATOM     11  C   UNL     1       1.944  22.619  25.441  0.00  0.00    +0.013 A 
ATOM     12  C   UNL     1       3.050  22.732  26.498  0.00  0.00    +0.110 C 
ATOM     13  N   UNL     1       2.399  22.911  27.757  0.00  0.00    -0.184 NA
ATOM     14  C   UNL     1       0.999  22.898  27.551  0.00  0.00    +0.269 C 
ATOM     15  O   UNL     1       0.180  23.032  28.439  0.00  0.00    -0.268 OA
ATOM     16  C   UNL     1       0.727  22.711  26.068  0.00  0.00    +0.058 A 
ATOM     17  C   UNL     1      -0.442  22.635  25.276  0.00  0.00    +0.022 A 
ATOM     18  C   UNL     1      -1.818  22.694  25.553  0.00  0.00    +0.009 A 
ATOM     19  C   UNL     1      -2.518  22.867  26.751  0.00  0.00    +0.010 A 
ATOM     20  C   UNL     1      -3.905  22.885  26.688  0.00  0.00    +0.001 A 
ATOM     21  C   UNL     1      -4.579  22.731  25.509  0.00  0.00    +0.002 A 
ATOM     22  C   UNL     1      -3.912  22.562  24.307  0.00  0.00    +0.026 A 
ATOM     23  C   UNL     1      -2.507  22.543  24.335  0.00  0.00    +0.052 A 
ATOM     24  N   UNL     1      -1.549  22.409  23.342  0.00  0.00    -0.312 N 
ATOM     25  C   UNL     1      -0.349  22.447  23.857  0.00  0.00    +0.077 A 
ATOM     26  C   UNL     1       0.869  22.342  23.272  0.00  0.00    +0.077 A 
ATOM     27  C   UNL     1       0.839  21.225  19.733  0.00  0.00    +0.069 C 
ATOM     28  C   UNL     1      -0.005  23.474  20.457  0.00  0.00    +0.187 C 
ATOM     31  C   UNL     1      -1.460  23.602  20.093  0.00  0.00    +0.091 C 
ATOM     35  C   UNL     1      -2.291  23.491  21.303  0.00  0.00    +0.076 C 
ATOM     36  C   UNL     1      -2.006  22.227  22.030  0.00  0.00    +0.224 C 
ENDROOT
BRANCH  31  32
ATOM     32  N   UNL     1      -1.718  24.885  19.445  0.00  0.00    -0.314 NA
ATOM     33  H   UNL     1      -1.149  25.645  19.938  0.00  0.00    +0.122 HD
ATOM     34  C   UNL     1      -1.345  24.851  18.036  0.00  0.00    +0.101 C 
ENDBRANCH  31  32
BRANCH  28  29
ATOM     29  O   UNL     1       0.229  24.425  21.497  0.00  0.00    -0.374 OA
ATOM     30  C   UNL     1       1.326  25.326  21.344  0.00  0.00    +0.194 C 
ENDBRANCH  28  29
TORSDOF 2
