REMARK  Name = 3ccn_ligand
REMARK  4 active torsions:
REMARK  status: ('A' for Active; 'I' for Inactive)
REMARK    1  A    between atoms: C4_3  and  C7_6
REMARK    2  A    between atoms: C13_9  and  C12_16
REMARK    3  A    between atoms: C16_13  and  O1_14
REMARK    4  A    between atoms: C12_16  and  C11_17
REMARK                            x       y       z     vdW  Elec       q    Type
REMARK                         _______ _______ _______ _____ _____    ______ ____
ROOT
ATOM      1  N   UNL     1      19.894  14.038  56.737  0.00  0.00    -0.098 N 
ATOM      2  N   UNL     1      19.105  13.207  57.203  0.00  0.00    -0.132 NA
ATOM      3  C   UNL     1      18.181  13.547  58.128  0.00  0.00    +0.097 A 
ATOM      4  C   UNL     1      18.096  14.868  58.583  0.00  0.00    +0.055 A 
ATOM      5  C   UNL     1      18.968  15.821  58.075  0.00  0.00    +0.081 A 
ATOM     12  C   UNL     1      20.924  13.978  55.811  0.00  0.00    +0.180 A 
ATOM     13  N   UNL     1      21.442  15.196  55.692  0.00  0.00    -0.266 NA
ATOM     14  N   UNL     1      20.849  15.990  56.440  0.00  0.00    -0.278 NA
ATOM     24  C   UNL     1      19.885  15.384  57.125  0.00  0.00    +0.179 A 
ENDROOT
BRANCH   3   6
ATOM      6  C   UNL     1      17.307  12.576  58.622  0.00  0.00    +0.007 A 
ATOM      7  C   UNL     1      16.116  12.946  59.254  0.00  0.00    +0.014 A 
ATOM      8  C   UNL     1      15.243  11.973  59.738  0.00  0.00    +0.003 A 
ATOM      9  C   UNL     1      15.558  10.625  59.596  0.00  0.00    +0.003 A 
ATOM     10  C   UNL     1      16.747  10.246  58.965  0.00  0.00    +0.003 A 
ATOM     11  C   UNL     1      17.615  11.223  58.481  0.00  0.00    +0.014 A 
ENDBRANCH   3   6
BRANCH  12  15
ATOM     15  C   UNL     1      21.320  12.698  55.070  0.00  0.00    +0.184 C 
BRANCH  15  16
ATOM     16  C   UNL     1      22.055  11.723  55.993  0.00  0.00    -0.036 A 
ATOM     17  C   UNL     1      21.373  10.612  56.484  0.00  0.00    -0.013 A 
ATOM     18  C   UNL     1      22.029   9.709  57.319  0.00  0.00    +0.013 A 
ATOM     19  C   UNL     1      23.366   9.929  57.655  0.00  0.00    +0.081 A 
ATOM     22  C   UNL     1      24.051  11.037  57.159  0.00  0.00    +0.013 A 
ATOM     23  C   UNL     1      23.395  11.941  56.318  0.00  0.00    -0.013 A 
BRANCH  19  20
ATOM     20  O   UNL     1      24.000   9.042  58.467  0.00  0.00    -0.337 OA
ATOM     21  H   UNL     1      24.897   9.324  58.604  0.00  0.00    +0.246 HD
ENDBRANCH  19  20
ENDBRANCH  15  16
ENDBRANCH  12  15
TORSDOF 4
