REMARK  Name = 3QF9
REMARK  3 active torsions:
REMARK  status: ('A' for Active; 'I' for Inactive)
REMARK    1  A    between atoms: C_5  and  C_7
REMARK    2  A    between atoms: C_12  and  C_13
REMARK    3  A    between atoms: C_20  and  C_24
REMARK                            x       y       z     vdW  Elec       q    Type
REMARK                         _______ _______ _______ _____ _____    ______ ____
ROOT
ATOM      1  C   UNL     1     -22.209  39.991  -1.958  0.00  0.00    +0.010 A 
ATOM      2  C   UNL     1     -21.835  39.637  -0.640  0.00  0.00    +0.012 A 
ATOM      3  C   UNL     1     -20.885  38.624  -0.398  0.00  0.00    +0.018 A 
ATOM     18  C   UNL     1     -20.224  38.045  -1.488  0.00  0.00    +0.020 A 
ATOM     19  C   UNL     1     -20.582  38.414  -2.811  0.00  0.00    -0.017 A 
ATOM     20  C   UNL     1     -19.936  37.781  -3.885  0.00  0.00    +0.008 A 
ATOM     21  C   UNL     1     -20.269  38.119  -5.210  0.00  0.00    +0.001 A 
ATOM     22  C   UNL     1     -21.251  39.086  -5.467  0.00  0.00    +0.013 A 
ATOM     23  C   UNL     1     -21.924  39.748  -4.424  0.00  0.00    +0.044 A 
ATOM     29  C   UNL     1     -21.587  39.395  -3.073  0.00  0.00    -0.006 A 
ENDROOT
BRANCH   3   4
ATOM      4  C   UNL     1     -20.508  38.371   0.917  0.00  0.00    +0.132 C 
ATOM      5  O   UNL     1     -19.537  37.467   1.244  0.00  0.00    -0.460 OA
ATOM      6  C   UNL     1     -19.404  37.644   2.580  0.00  0.00    +0.107 C 
ATOM      7  C   UNL     1     -18.514  36.936   3.351  0.00  0.00    +0.044 C 
ATOM     16  C   UNL     1     -20.203  38.609   3.061  0.00  0.00    +0.105 C 
ATOM     17  C   UNL     1     -20.871  39.072   2.015  0.00  0.00    +0.028 C 
BRANCH   7   8
ATOM      8  C   UNL     1     -17.809  35.913   2.787  0.00  0.00    +0.150 C 
ATOM      9  S   UNL     1     -18.061  35.289   1.193  0.00  0.00    -0.045 S 
ATOM     10  C   UNL     1     -16.815  34.138   1.502  0.00  0.00    +0.280 C 
ATOM     11  O   UNL     1     -16.479  33.321   0.671  0.00  0.00    -0.263 OA
ATOM     12  N   UNL     1     -16.214  34.269   2.697  0.00  0.00    -0.246 N 
ATOM     13  H   UNL     1     -15.406  33.650   3.026  0.00  0.00    +0.158 HD
ATOM     14  C   UNL     1     -16.741  35.265   3.434  0.00  0.00    +0.242 C 
ATOM     15  O   UNL     1     -16.336  35.562   4.569  0.00  0.00    -0.273 OA
ENDBRANCH   7   8
ENDBRANCH   3   4
BRANCH  23  24
ATOM     24  C   UNL     1     -22.988  40.837  -4.831  0.00  0.00    +0.242 C 
ATOM     25  N   UNL     1     -22.676  41.567  -5.946  0.00  0.00    -0.325 N 
ATOM     26  H   UNL     1     -23.344  42.328  -6.292  0.00  0.00    +0.145 HD
ATOM     27  H   UNL     1     -21.764  41.377  -6.472  0.00  0.00    +0.145 HD
ATOM     28  O   UNL     1     -23.981  41.092  -4.127  0.00  0.00    -0.270 OA
ENDBRANCH  23  24
TORSDOF 3
