REMARK  Name = CQ7
REMARK  6 active torsions:
REMARK  status: ('A' for Active; 'I' for Inactive)
REMARK    1  A    between atoms: C8_12  and  C9_13
REMARK    2  A    between atoms: C13_17  and  O2_20
REMARK    3  A    between atoms: C14_18  and  O2_20
REMARK    4  A    between atoms: O4_22  and  C21_23
REMARK    5  A    between atoms: C23_25  and  C26_26
REMARK    6  A    between atoms: C20_32  and  N4_33
REMARK                            x       y       z     vdW  Elec       q    Type
REMARK                         _______ _______ _______ _____ _____    ______ ____
ROOT
ATOM      9  C   UNL     1       1.744  32.082  12.757  0.00  0.00    +0.046 C 
ATOM     10  C   UNL     1       1.419  30.817  12.512  0.00  0.00    +0.232 C 
ATOM     11  N   UNL     1       0.744  30.741  11.365  0.00  0.00    -0.033 NA
ATOM     12  C   UNL     1       0.625  31.955  10.847  0.00  0.00    +0.378 C 
ATOM     13  N   UNL     1       0.033  32.387   9.730  0.00  0.00    +0.046 NA
ATOM     14  C   UNL     1       0.033  33.686   9.397  0.00  0.00    +0.289 C 
ATOM     15  N   UNL     1       0.636  34.582  10.206  0.00  0.00    -0.283 NA
ATOM     16  C   UNL     1       1.236  34.190  11.343  0.00  0.00    +0.282 C 
ATOM     23  N   UNL     1      -0.578  34.019   8.246  0.00  0.00    -0.111 NA
ATOM     36  C   UNL     1       1.245  32.848  11.697  0.00  0.00    +0.228 C 
ENDROOT
BRANCH   9   8
ATOM      1  C   UNL     1       4.257  32.258  19.634  0.00  0.00    +0.095 C 
ATOM      2  C   UNL     1       3.931  32.458  18.163  0.00  0.00    +0.206 A 
ATOM      3  O   UNL     1       3.042  31.696  17.477  0.00  0.00    -0.438 OA
ATOM      4  C   UNL     1       3.023  32.195  16.204  0.00  0.00    +0.164 A 
ATOM      5  C   UNL     1       3.913  33.260  16.159  0.00  0.00    +0.118 A 
ATOM      6  C   UNL     1       4.085  33.950  14.968  0.00  0.00    +0.022 A 
ATOM      7  C   UNL     1       3.373  33.570  13.831  0.00  0.00    +0.002 A 
ATOM      8  C   UNL     1       2.469  32.515  13.877  0.00  0.00    +0.004 A 
ATOM     37  C   UNL     1       2.315  31.827  15.072  0.00  0.00    +0.039 A 
ATOM     38  N   UNL     1       4.458  33.397  17.374  0.00  0.00    -0.212 NA
ENDBRANCH   9   8
BRANCH  23  24
ATOM     24  C   UNL     1      -0.764  35.276   7.807  0.00  0.00    +0.118 A 
ATOM     25  C   UNL     1      -0.792  36.362   8.682  0.00  0.00    +0.021 A 
ATOM     26  C   UNL     1      -0.999  37.650   8.194  0.00  0.00    +0.006 A 
ATOM     27  C   UNL     1      -1.192  37.865   6.833  0.00  0.00    +0.058 A 
ATOM     32  C   UNL     1      -1.182  36.785   5.960  0.00  0.00    +0.043 A 
ATOM     33  C   UNL     1      -0.963  35.497   6.436  0.00  0.00    +0.155 A 
BRANCH  27  28
ATOM     28  C   UNL     1      -1.440  39.275   6.282  0.00  0.00    +0.265 C 
ATOM     29  N   UNL     1      -0.907  40.280   6.987  0.00  0.00    -0.200 NA
ATOM     30  C   UNL     1      -1.137  41.665   6.521  0.00  0.00    +0.139 C 
ATOM     31  O   UNL     1      -2.128  39.422   5.273  0.00  0.00    -0.268 OA
ENDBRANCH  27  28
BRANCH  33  34
ATOM     34  O   UNL     1      -0.974  34.458   5.548  0.00  0.00    -0.470 OA
ATOM     35  C   UNL     1       0.309  34.134   5.069  0.00  0.00    +0.253 C 
ENDBRANCH  33  34
ENDBRANCH  23  24
BRANCH  16  17
ATOM     17  O   UNL     1       1.852  35.069  12.160  0.00  0.00    -0.457 OA
BRANCH  17  18
ATOM     18  C   UNL     1       1.641  36.441  11.962  0.00  0.00    +0.168 C 
ATOM     19  C   UNL     1       0.388  37.194  12.234  0.00  0.00    +0.044 C 
ATOM     20  C   UNL     1       0.843  38.171  13.337  0.00  0.00    +0.004 C 
ATOM     21  C   UNL     1       2.390  38.129  13.314  0.00  0.00    +0.004 C 
ATOM     22  C   UNL     1       2.731  37.454  11.987  0.00  0.00    +0.044 C 
ENDBRANCH  17  18
ENDBRANCH  16  17
TORSDOF 6
