REMARK  Name = 4KCG
REMARK  16 active torsions:
REMARK  status: ('A' for Active; 'I' for Inactive)
REMARK    1  A    between atoms: C_1  and  S_2
REMARK    2  A    between atoms: S_2  and  N_5
REMARK    3  A    between atoms: N_5  and  C_6
REMARK    4  A    between atoms: C_6  and  C_7
REMARK    5  A    between atoms: C_7  and  O_8
REMARK    6  A    between atoms: O_8  and  C_9
REMARK    7  A    between atoms: C_11  and  O_12
REMARK    8  A    between atoms: O_12  and  C_13
REMARK    9  A    between atoms: C_16  and  C_17
REMARK   10  A    between atoms: C_20  and  C_21
REMARK   11  A    between atoms: C_21  and  C_22
REMARK   12  A    between atoms: C_22  and  C_23
REMARK   13  A    between atoms: C_24  and  C_25
REMARK   14  A    between atoms: C_25  and  S_26
REMARK   15  A    between atoms: S_26  and  C_27
REMARK   16  A    between atoms: C_33  and  N_34
REMARK                            x       y       z     vdW  Elec       q    Type
REMARK                         _______ _______ _______ _____ _____    ______ ____
ROOT
ATOM     13  C   UNL     1     -33.128 -12.498 -21.885  0.00  0.00    +0.109 A 
ATOM     14  S   UNL     1     -32.493 -13.584 -20.752  0.00  0.00    -0.072 S 
ATOM     15  C   UNL     1     -31.001 -13.613 -21.318  0.00  0.00    +0.014 A 
ATOM     16  C   UNL     1     -30.968 -12.804 -22.379  0.00  0.00    +0.063 A 
ATOM     34  N   UNL     1     -32.122 -12.199 -22.680  0.00  0.00    -0.243 NA
ENDROOT
BRANCH  13  12
ATOM      8  C   UNL     1     -35.818 -10.521 -23.353  0.00  0.00    +0.163 A 
ATOM      9  C   UNL     1     -36.942 -10.945 -22.611  0.00  0.00    +0.162 A 
ATOM     10  C   UNL     1     -36.779 -11.899 -21.600  0.00  0.00    +0.050 A 
ATOM     11  C   UNL     1     -35.500 -12.418 -21.349  0.00  0.00    +0.014 A 
ATOM     12  C   UNL     1     -34.379 -12.005 -22.071  0.00  0.00    +0.011 A 
ATOM     37  C   UNL     1     -34.565 -11.070 -23.073  0.00  0.00    +0.060 A 
BRANCH   9  35
ATOM     35  O   UNL     1     -38.153 -10.398 -22.897  0.00  0.00    -0.491 OA
ATOM     36  C   UNL     1     -39.297 -11.182 -22.523  0.00  0.00    +0.277 C 
ENDBRANCH   9  35
BRANCH   8   7
ATOM      7  O   UNL     1     -35.890  -9.594 -24.375  0.00  0.00    -0.487 OA
BRANCH   7   6
ATOM      6  C   UNL     1     -36.992  -8.683 -24.567  0.00  0.00    +0.246 C 
BRANCH   6   5
ATOM      5  C   UNL     1     -37.664  -8.901 -25.950  0.00  0.00    +0.146 C 
BRANCH   5   3
ATOM      3  N   UNL     1     -37.098 -10.032 -26.729  0.00  0.00    -0.192 NA
ATOM      4  H   UNL     1     -36.712  -9.651 -27.651  0.00  0.00    +0.148 HD
BRANCH   3   2
ATOM      1  C   UNL     1     -38.147 -12.731 -25.984  0.00  0.00    +0.214 C 
ATOM      2  S   UNL     1     -38.357 -11.357 -27.113  0.00  0.00    +0.027 S 
ATOM     38  O   UNL     1     -38.201 -11.830 -28.580  0.00  0.00    -0.159 OA
ATOM     39  O   UNL     1     -39.762 -10.764 -26.972  0.00  0.00    -0.159 OA
ENDBRANCH   3   2
ENDBRANCH   5   3
ENDBRANCH   6   5
ENDBRANCH   7   6
ENDBRANCH   8   7
ENDBRANCH  13  12
BRANCH  16  17
ATOM     17  C   UNL     1     -29.704 -12.533 -23.206  0.00  0.00    +0.133 C 
BRANCH  17  18
ATOM     18  S   UNL     1     -28.884 -11.023 -22.579  0.00  0.00    -0.080 S 
BRANCH  18  19
ATOM     19  C   UNL     1     -27.153 -11.349 -22.364  0.00  0.00    +0.192 A 
ATOM     20  N   UNL     1     -26.608 -12.552 -22.447  0.00  0.00    -0.207 NA
ATOM     21  C   UNL     1     -25.294 -12.724 -22.271  0.00  0.00    +0.122 A 
ATOM     22  C   UNL     1     -24.464 -11.651 -21.953  0.00  0.00    +0.086 A 
ATOM     23  C   UNL     1     -25.079 -10.404 -21.842  0.00  0.00    +0.122 A 
ATOM     27  N   UNL     1     -24.791 -13.953 -22.382  0.00  0.00    -0.343 N 
ATOM     28  H   UNL     1     -23.742 -14.116 -22.246  0.00  0.00    +0.144 HD
ATOM     29  H   UNL     1     -25.436 -14.777 -22.608  0.00  0.00    +0.144 HD
ATOM     30  N   UNL     1     -26.398 -10.301 -22.051  0.00  0.00    -0.207 NA
BRANCH  23  24
ATOM     24  N   UNL     1     -24.400  -9.281 -21.575  0.00  0.00    -0.343 N 
ATOM     25  H   UNL     1     -23.345  -9.322 -21.402  0.00  0.00    +0.144 HD
ATOM     26  H   UNL     1     -24.913  -8.343 -21.535  0.00  0.00    +0.144 HD
ENDBRANCH  23  24
ENDBRANCH  18  19
ENDBRANCH  17  18
ENDBRANCH  16  17
BRANCH  15  31
ATOM     31  C   UNL     1     -29.790 -14.411 -20.755  0.00  0.00    +0.044 C 
BRANCH  31  32
ATOM     32  C   UNL     1     -29.983 -15.935 -20.872  0.00  0.00    +0.002 C 
ATOM     33  C   UNL     1     -29.575 -16.454 -22.279  0.00  0.00    +0.004 C 
ENDBRANCH  31  32
ENDBRANCH  15  31
TORSDOF 13
