REMARK  Name = A8Q
REMARK  3 active torsions:
REMARK  status: ('A' for Active; 'I' for Inactive)
REMARK    1  A    between atoms: C1_1  and  C3_10
REMARK    2  A    between atoms: C8_3  and  C9_4
REMARK    3  A    between atoms: C12_7  and  C13_8
REMARK                            x       y       z     vdW  Elec       q    Type
REMARK                         _______ _______ _______ _____ _____    ______ ____
ROOT
ATOM      2  C   UNL     1      -6.297 167.346 399.340  0.00  0.00    -0.022 A 
ATOM      3  C   UNL     1      -7.418 167.004 400.097  0.00  0.00    -0.004 A 
ATOM      4  C   UNL     1      -7.291 166.190 401.208  0.00  0.00    -0.000 A 
ATOM      5  C   UNL     1      -6.043 165.724 401.589  0.00  0.00    -0.000 A 
ATOM      6  C   UNL     1      -4.917 166.071 400.860  0.00  0.00    -0.000 A 
ATOM      7  C   UNL     1      -5.025 166.877 399.719  0.00  0.00    -0.003 A 
ENDROOT
BRANCH   7   8
ATOM      8  C   UNL     1      -3.811 167.056 398.863  0.00  0.00    +0.010 A 
ATOM      9  C   UNL     1      -2.924 168.145 398.965  0.00  0.00    +0.057 A 
ATOM     10 CL   UNL     1      -3.311 169.537 399.929  0.00  0.00    -0.082 Cl
ATOM     11  C   UNL     1      -1.757 168.194 398.230  0.00  0.00    +0.009 A 
ATOM     12  C   UNL     1      -1.450 167.179 397.330  0.00  0.00    -0.002 A 
ATOM     13  C   UNL     1      -2.333 166.115 397.202  0.00  0.00    -0.003 A 
ATOM     16  C   UNL     1      -3.497 166.050 397.947  0.00  0.00    +0.001 A 
BRANCH  12  14
ATOM     14  C   UNL     1      -0.174 167.274 396.515  0.00  0.00    +0.136 C 
ATOM     15  N   UNL     1       0.608 166.046 396.467  0.00  0.00    -0.126 NA
ENDBRANCH  12  14
ENDBRANCH   7   8
BRANCH   2   1
ATOM      1  C   UNL     1      -6.457 168.148 398.060  0.00  0.00    +0.022 C 
ATOM     17  C   UNL     1      -6.840 169.606 398.320  0.00  0.00    +0.005 C 
ATOM     18  C   UNL     1      -7.419 167.478 397.080  0.00  0.00    +0.005 C 
ENDBRANCH   2   1
TORSDOF 3
