REMARK  Name = 4hvs_ligand
REMARK  5 active torsions:
REMARK  status: ('A' for Active; 'I' for Inactive)
REMARK    1  A    between atoms: C12_7  and  C15_10
REMARK    2  A    between atoms: C15_10  and  C18_11
REMARK    3  A    between atoms: N27_17  and  C29_18
REMARK    4  A    between atoms: C29_18  and  C32_19
REMARK    5  A    between atoms: C37_22  and  C42_25
REMARK                            x       y       z     vdW  Elec       q    Type
REMARK                         _______ _______ _______ _____ _____    ______ ____
ROOT
ATOM     11  C   UNL     1      14.334  -1.985   8.208  0.00  0.00    -0.024 A 
ATOM     12  C   UNL     1      13.594  -3.146   8.487  0.00  0.00    +0.014 A 
ATOM     13  C   UNL     1      14.089  -4.407   8.212  0.00  0.00    +0.038 A 
ATOM     14  C   UNL     1      15.337  -4.515   7.631  0.00  0.00    +0.107 A 
ATOM     15  N   UNL     1      15.921  -5.734   7.351  0.00  0.00    -0.295 N 
ATOM     16  H   UNL     1      15.464  -6.620   7.608  0.00  0.00    +0.182 HD
ATOM     28  N   UNL     1      16.104  -3.406   7.356  0.00  0.00    -0.293 NA
ATOM     29  C   UNL     1      15.590  -2.177   7.645  0.00  0.00    +0.070 A 
ENDROOT
BRANCH  11  10
ATOM     10  C   UNL     1      13.801  -0.609   8.521  0.00  0.00    +0.099 C 
BRANCH  10   9
ATOM      1  C   UNL     1      12.741   3.149  11.234  0.00  0.00    +0.008 A 
ATOM      2  C   UNL     1      13.022   2.174  10.249  0.00  0.00    +0.012 A 
ATOM      3  C   UNL     1      13.345   0.864  10.671  0.00  0.00    +0.007 A 
ATOM      4  C   UNL     1      13.346   0.630  12.050  0.00  0.00    +0.132 A 
ATOM      5  N   UNL     1      13.675  -0.685  12.251  0.00  0.00    -0.274 N 
ATOM      6  H   UNL     1      13.766  -1.139  13.171  0.00  0.00    +0.226 HD
ATOM      7  C   UNL     1      13.867  -1.311  11.034  0.00  0.00    +0.108 A 
ATOM      8  N   UNL     1      13.091   1.524  13.033  0.00  0.00    -0.287 NA
ATOM      9  C   UNL     1      13.690  -0.384  10.007  0.00  0.00    -0.028 A 
ATOM     30  C   UNL     1      12.800   2.781  12.579  0.00  0.00    +0.068 A 
ENDBRANCH  10   9
ENDBRANCH  11  10
BRANCH  15  17
ATOM     17  C   UNL     1      17.198  -5.713   6.683  0.00  0.00    +0.225 C 
BRANCH  17  18
ATOM     18  C   UNL     1      18.472  -5.924   7.413  0.00  0.00    +0.010 A 
ATOM     19  C   UNL     1      19.619  -5.838   6.629  0.00  0.00    +0.039 A 
ATOM     20  C   UNL     1      20.879  -5.993   7.195  0.00  0.00    +0.046 A 
ATOM     21  C   UNL     1      20.960  -6.255   8.574  0.00  0.00    +0.039 A 
ATOM     26  C   UNL     1      19.814  -6.333   9.375  0.00  0.00    +0.046 A 
ATOM     27  C   UNL     1      18.551  -6.168   8.791  0.00  0.00    +0.039 A 
BRANCH  21  22
ATOM     22  C   UNL     1      22.302  -6.464   9.173  0.00  0.00    +0.368 C 
ATOM     23  F   UNL     1      23.252  -6.687   8.258  0.00  0.00    -0.227 F 
ATOM     24  F   UNL     1      22.264  -7.573   9.928  0.00  0.00    -0.227 F 
ATOM     25  F   UNL     1      22.809  -5.480   9.949  0.00  0.00    -0.227 F 
ENDBRANCH  21  22
ENDBRANCH  17  18
ENDBRANCH  15  17
TORSDOF 5
