REMARK  Name = 4NEU
REMARK  7 active torsions:
REMARK  status: ('A' for Active; 'I' for Inactive)
REMARK    1  A    between atoms: C_4  and  C_22
REMARK    2  A    between atoms: C_6  and  N_27
REMARK    3  A    between atoms: C_9  and  C_10
REMARK    4  A    between atoms: C_10  and  C_11
REMARK    5  A    between atoms: C_10  and  C_12
REMARK    6  A    between atoms: C_10  and  C_13
REMARK    7  A    between atoms: N_19  and  C_20
REMARK                            x       y       z     vdW  Elec       q    Type
REMARK                         _______ _______ _______ _____ _____    ______ ____
ROOT
ATOM     15  C   UNL     1      27.120  61.499  52.559  0.00  0.00    +0.035 A 
ATOM     16  C   UNL     1      28.409  61.658  52.080  0.00  0.00    +0.024 A 
ATOM     17  C   UNL     1      29.488  61.365  52.884  0.00  0.00    +0.010 A 
ATOM     18  C   UNL     1      29.319  60.804  54.150  0.00  0.00    -0.017 A 
ATOM     19  C   UNL     1      28.022  60.675  54.632  0.00  0.00    +0.010 A 
ATOM     33  C   UNL     1      26.932  60.987  53.838  0.00  0.00    +0.024 A 
ENDROOT
BRANCH  15  13
ATOM      1  N   UNL     1      23.501  64.012  48.479  0.00  0.00    -0.063 NA
ATOM      2  O   UNL     1      23.678  64.785  47.303  0.00  0.00    -0.357 OA
ATOM      3  C   UNL     1      24.998  64.938  47.085  0.00  0.00    +0.144 A 
ATOM      4  C   UNL     1      25.685  64.301  48.041  0.00  0.00    +0.092 A 
ATOM      9  C   UNL     1      24.709  63.779  48.908  0.00  0.00    +0.169 A 
ATOM     10  N   UNL     1      24.869  62.956  50.017  0.00  0.00    -0.251 N 
ATOM     11  H   UNL     1      24.012  62.414  50.358  0.00  0.00    +0.158 HD
ATOM     12  C   UNL     1      26.056  62.784  50.715  0.00  0.00    +0.309 C 
ATOM     13  N   UNL     1      26.040  61.835  51.704  0.00  0.00    -0.269 N 
ATOM     14  H   UNL     1      25.126  61.297  51.844  0.00  0.00    +0.156 HD
ATOM     34  O   UNL     1      27.031  63.466  50.451  0.00  0.00    -0.252 OA
BRANCH   3   5
ATOM      5  C   UNL     1      25.586  65.699  45.901  0.00  0.00    +0.023 C 
ATOM      6  C   UNL     1      24.751  66.947  45.626  0.00  0.00    +0.019 C 
ATOM      7  C   UNL     1      27.037  66.102  46.166  0.00  0.00    +0.019 C 
ATOM      8  C   UNL     1      25.543  64.799  44.669  0.00  0.00    +0.019 C 
ENDBRANCH   3   5
ENDBRANCH  15  13
BRANCH  18  20
ATOM     20  C   UNL     1      30.511  60.589  55.005  0.00  0.00    -0.010 A 
ATOM     21  C   UNL     1      31.722  60.034  54.496  0.00  0.00    -0.005 A 
ATOM     22  C   UNL     1      32.876  59.991  55.332  0.00  0.00    +0.022 A 
ATOM     23  C   UNL     1      32.790  60.564  56.630  0.00  0.00    +0.012 A 
ATOM     24  C   UNL     1      31.628  61.117  57.075  0.00  0.00    +0.001 A 
ATOM     25  C   UNL     1      34.077  59.386  54.805  0.00  0.00    +0.124 A 
ATOM     26  N   UNL     1      34.074  58.868  53.579  0.00  0.00    -0.240 NA
ATOM     27  C   UNL     1      32.986  58.902  52.816  0.00  0.00    +0.113 A 
ATOM     31  C   UNL     1      31.817  59.458  53.206  0.00  0.00    +0.029 A 
ATOM     32  C   UNL     1      30.510  61.165  56.261  0.00  0.00    +0.009 A 
BRANCH  25  28
ATOM     28  N   UNL     1      35.209  59.327  55.532  0.00  0.00    -0.343 N 
ATOM     29  H   UNL     1      36.086  58.874  55.120  0.00  0.00    +0.144 HD
ATOM     30  H   UNL     1      35.231  59.733  56.522  0.00  0.00    +0.144 HD
ENDBRANCH  25  28
ENDBRANCH  18  20
TORSDOF 4
