REMARK  Name = 5IIS
REMARK  6 active torsions:
REMARK  status: ('A' for Active; 'I' for Inactive)
REMARK    1  A    between atoms: C_1  and  C_31
REMARK    2  A    between atoms: C_3  and  C_26
REMARK    3  A    between atoms: C_4  and  C_5
REMARK    4  A    between atoms: C_6  and  C_10
REMARK    5  A    between atoms: C_9  and  N_18
REMARK    6  A    between atoms: N_20  and  C_21
REMARK                            x       y       z     vdW  Elec       q    Type
REMARK                         _______ _______ _______ _____ _____    ______ ____
ROOT
ATOM     16  N   UNL     1     -18.254  35.985  -0.698  0.00  0.00    -0.278 N 
ATOM     17  H   UNL     1     -18.708  36.304  -1.547  0.00  0.00    +0.155 HD
ATOM     18  C   UNL     1     -18.676  36.600   0.431  0.00  0.00    +0.269 C 
ATOM     19  O   UNL     1     -18.268  36.347   1.562  0.00  0.00    -0.268 OA
ENDROOT
BRANCH  16  15
ATOM     10  C   UNL     1     -16.591  34.850  -2.091  0.00  0.00    +0.006 A 
ATOM     11  C   UNL     1     -15.491  33.997  -2.158  0.00  0.00    +0.030 A 
ATOM     12  C   UNL     1     -15.117  33.301  -1.029  0.00  0.00    +0.111 A 
ATOM     13  N   UNL     1     -15.749  33.383   0.138  0.00  0.00    -0.261 NA
ATOM     14  C   UNL     1     -16.788  34.217   0.208  0.00  0.00    +0.134 A 
ATOM     15  C   UNL     1     -17.248  34.994  -0.855  0.00  0.00    +0.060 A 
BRANCH  10   9
ATOM      1  C   UNL     1     -18.800  36.029  -4.923  0.00  0.00    +0.041 A 
ATOM      2  C   UNL     1     -20.237  36.025  -5.342  0.00  0.00    +0.065 C 
ATOM      3  N   UNL     1     -17.952  36.745  -5.685  0.00  0.00    -0.238 NA
ATOM      4  C   UNL     1     -16.661  36.869  -5.287  0.00  0.00    +0.117 A 
ATOM      5  N   UNL     1     -15.874  37.696  -6.025  0.00  0.00    -0.343 N 
ATOM      6  H   UNL     1     -14.910  37.865  -5.756  0.00  0.00    +0.144 HD
ATOM      7  H   UNL     1     -16.233  38.195  -6.832  0.00  0.00    +0.144 HD
ATOM      8  C   UNL     1     -16.177  36.246  -4.130  0.00  0.00    +0.051 A 
ATOM      9  C   UNL     1     -17.056  35.499  -3.350  0.00  0.00    -0.011 A 
ATOM     36  C   UNL     1     -18.380  35.389  -3.770  0.00  0.00    +0.031 A 
ENDBRANCH  10   9
ENDBRANCH  16  15
BRANCH  18  20
ATOM     20  C   UNL     1     -19.687  37.683   0.185  0.00  0.00    +0.147 A 
ATOM     21  N   UNL     1     -19.924  37.960  -1.114  0.00  0.00    -0.240 NA
ATOM     22  C   UNL     1     -20.746  38.978  -1.431  0.00  0.00    +0.075 A 
ATOM     30  C   UNL     1     -21.379  39.736  -0.451  0.00  0.00    +0.030 A 
ATOM     31  C   UNL     1     -21.156  39.434   0.879  0.00  0.00    +0.027 A 
ATOM     32  C   UNL     1     -20.298  38.397   1.255  0.00  0.00    +0.056 A 
BRANCH  22  23
ATOM     23  C   UNL     1     -20.830  39.321  -2.879  0.00  0.00    +0.035 A 
ATOM     24  C   UNL     1     -21.956  39.898  -3.466  0.00  0.00    +0.133 A 
ATOM     25  F   UNL     1     -23.071  40.069  -2.724  0.00  0.00    -0.205 F 
ATOM     26  C   UNL     1     -21.999  40.290  -4.786  0.00  0.00    +0.039 A 
ATOM     27  C   UNL     1     -20.885  40.072  -5.578  0.00  0.00    +0.003 A 
ATOM     28  C   UNL     1     -19.753  39.491  -5.045  0.00  0.00    +0.001 A 
ATOM     29  C   UNL     1     -19.722  39.116  -3.711  0.00  0.00    +0.013 A 
ENDBRANCH  22  23
BRANCH  32  33
ATOM     33  N   UNL     1     -20.051  38.148   2.596  0.00  0.00    -0.356 N 
ATOM     34  H   UNL     1     -20.466  38.726   3.320  0.00  0.00    +0.142 HD
ATOM     35  H   UNL     1     -19.440  37.401   2.911  0.00  0.00    +0.142 HD
ENDBRANCH  32  33
ENDBRANCH  18  20
TORSDOF 5
