REMARK  Name = 5M4C
REMARK  6 active torsions:
REMARK  status: ('A' for Active; 'I' for Inactive)
REMARK    1  A    between atoms: C_3  and  S_11
REMARK    2  A    between atoms: C_7  and  C_9
REMARK    3  A    between atoms: C_9  and  C_10
REMARK    4  A    between atoms: C_10  and  S_11
REMARK    5  A    between atoms: C_15  and  C_16
REMARK    6  A    between atoms: C_19  and  C_20
REMARK                            x       y       z     vdW  Elec       q    Type
REMARK                         _______ _______ _______ _____ _____    ______ ____
ROOT
ATOM      1  C   UNL     1     -12.741  -8.442 -11.034  0.00  0.00    +0.113 A 
ATOM      2  S   UNL     1     -12.927  -9.399  -9.662  0.00  0.00    -0.076 S 
ATOM      3  C   UNL     1     -13.404  -8.091  -8.712  0.00  0.00    +0.056 A 
ATOM      4  C   UNL     1     -13.436  -6.968  -9.449  0.00  0.00    +0.001 A 
ATOM     12  N   UNL     1     -12.380  -8.862 -12.256  0.00  0.00    -0.228 NA
ATOM     13  C   UNL     1     -12.292  -7.987 -13.317  0.00  0.00    +0.223 A 
ATOM     14  N   UNL     1     -12.609  -6.660 -13.057  0.00  0.00    -0.229 NA
ATOM     15  C   UNL     1     -13.003  -6.265 -11.831  0.00  0.00    +0.109 A 
ATOM     22  C   UNL     1     -13.064  -7.135 -10.766  0.00  0.00    +0.047 A 
ENDROOT
BRANCH   4   5
ATOM      5  C   UNL     1     -13.807  -5.815  -8.801  0.00  0.00    -0.017 A 
ATOM      6  C   UNL     1     -15.007  -5.741  -8.116  0.00  0.00    +0.009 A 
ATOM      7  C   UNL     1     -15.377  -4.565  -7.437  0.00  0.00    +0.004 A 
ATOM      8  C   UNL     1     -14.524  -3.453  -7.389  0.00  0.00    -0.050 A 
ATOM      9  C   UNL     1     -14.923  -2.303  -6.696  0.00  0.00    +0.044 C 
ATOM     10  C   UNL     1     -13.289  -3.513  -8.037  0.00  0.00    +0.004 A 
ATOM     11  C   UNL     1     -12.950  -4.698  -8.707  0.00  0.00    +0.009 A 
ENDBRANCH   4   5
BRANCH  15  16
ATOM     16  S   UNL     1     -13.400  -4.553 -11.751  0.00  0.00    -0.105 S 
BRANCH  16  17
ATOM     17  C   UNL     1     -13.599  -4.001 -13.481  0.00  0.00    +0.082 C 
BRANCH  17  18
ATOM     18  C   UNL     1     -12.275  -3.578 -14.176  0.00  0.00    +0.063 C 
BRANCH  18  19
ATOM     19  C   UNL     1     -11.977  -2.057 -14.033  0.00  0.00    +0.043 C 
ATOM     20  O   UNL     1     -12.733  -1.379 -13.311  0.00  0.00    -0.550 OA
ATOM     21  O   UNL     1     -10.971  -1.604 -14.638  0.00  0.00    -0.550 OA
ENDBRANCH  18  19
ENDBRANCH  17  18
ENDBRANCH  16  17
ENDBRANCH  15  16
TORSDOF 5
