REMARK  Name = 4i6f_ligand
REMARK  5 active torsions:
REMARK  status: ('A' for Active; 'I' for Inactive)
REMARK    1  A    between atoms: N7_3  and  C19_4
REMARK    2  A    between atoms: C9_6  and  C16_7
REMARK    3  A    between atoms: C16_7  and  C17_8
REMARK    4  A    between atoms: N10_9  and  C11_10
REMARK    5  A    between atoms: C21_24  and  C25_25
REMARK                            x       y       z     vdW  Elec       q    Type
REMARK                         _______ _______ _______ _____ _____    ______ ____
ROOT
ATOM      1  O   UNL     1      13.442   4.086  10.070  0.00  0.00    -0.383 OA
ATOM      2  C   UNL     1      12.403   4.696  10.167  0.00  0.00    +0.230 C 
ATOM      3  C   UNL     1      12.509   6.103  10.460  0.00  0.00    +0.217 C 
ATOM      4  N   UNL     1      11.247   6.793  10.556  0.00  0.00    -0.264 N 
ATOM      5  C   UNL     1      10.036   6.121  10.355  0.00  0.00    +0.153 A 
ATOM      6  N   UNL     1       8.868   6.716  10.428  0.00  0.00    -0.237 NA
ATOM      7  C   UNL     1       7.774   6.044  10.196  0.00  0.00    +0.222 A 
ATOM      8  N   UNL     1       6.673   6.705  10.287  0.00  0.00    -0.181 N 
ATOM      9  C   UNL     1       6.571   7.705  11.060  0.00  0.00    +0.157 A 
ATOM     16  N   UNL     1       5.319   8.071  10.889  0.00  0.00    -0.321 NA
ATOM     17  C   UNL     1       4.732   7.350   9.978  0.00  0.00    +0.033 A 
ATOM     18  C   UNL     1       5.637   6.439   9.603  0.00  0.00    +0.148 A 
ATOM     19  N   UNL     1       7.753   4.781   9.905  0.00  0.00    -0.273 NA
ATOM     20  C   UNL     1       8.850   4.109   9.815  0.00  0.00    +0.100 A 
ATOM     21  C   UNL     1      10.019   4.721  10.030  0.00  0.00    +0.134 A 
ATOM     29  N   UNL     1      11.211   4.042   9.960  0.00  0.00    -0.217 N 
ATOM     30  C   UNL     1      11.215   2.650   9.648  0.00  0.00    +0.208 C 
ENDROOT
BRANCH   9  10
ATOM     10  C   UNL     1       7.509   8.266  12.049  0.00  0.00    +0.029 A 
ATOM     11  C   UNL     1       8.214   7.411  12.824  0.00  0.00    +0.015 A 
ATOM     12  C   UNL     1       9.071   7.835  13.795  0.00  0.00    +0.002 A 
ATOM     13  C   UNL     1       9.180   9.150  14.009  0.00  0.00    +0.001 A 
ATOM     14  C   UNL     1       8.440  10.004  13.266  0.00  0.00    +0.002 A 
ATOM     15  C   UNL     1       7.601   9.586  12.294  0.00  0.00    +0.015 A 
ENDBRANCH   9  10
BRANCH   4  22
ATOM     22  C   UNL     1      11.277   8.188  10.918  0.00  0.00    +0.117 C 
ATOM     23  C   UNL     1      11.260   9.305   9.930  0.00  0.00    +0.071 C 
ATOM     24  C   UNL     1      11.730  10.484  10.741  0.00  0.00    -0.051 C 
ATOM     25  C   UNL     1      12.528   9.954  11.878  0.00  0.00    -0.051 C 
ATOM     26  C   UNL     1      12.466   8.467  11.758  0.00  0.00    +0.071 C 
ENDBRANCH   4  22
BRANCH   3  27
ATOM     27  C   UNL     1      13.224   6.594   9.231  0.00  0.00    +0.047 C 
ATOM     28  C   UNL     1      12.395   6.435   7.995  0.00  0.00    +0.009 C 
ENDBRANCH   3  27
TORSDOF 3
