REMARK  Name = 2xj2_ligand
REMARK  5 active torsions:
REMARK  status: ('A' for Active; 'I' for Inactive)
REMARK    1  A    between atoms: C1_1  and  C13_18
REMARK    2  A    between atoms: C3_3  and  N1_7
REMARK    3  A    between atoms: N3_10  and  C8_14
REMARK    4  A    between atoms: C15_20  and  C18_21
REMARK    5  A    between atoms: C19_22  and  C9_23
REMARK                            x       y       z     vdW  Elec       q    Type
REMARK                         _______ _______ _______ _____ _____    ______ ____
ROOT
ATOM      1  C   UNL     1     -22.547 -36.670  -2.528  0.00  0.00    +0.066 A 
ATOM     13  C   UNL     1     -23.209 -37.618  -3.307  0.00  0.00    +0.114 A 
ATOM     14  N   UNL     1     -23.205 -37.501  -4.637  0.00  0.00    -0.286 NA
ATOM     15  C   UNL     1     -22.613 -36.485  -5.264  0.00  0.00    +0.140 A 
ATOM     16  C   UNL     1     -21.953 -35.517  -4.508  0.00  0.00    +0.142 A 
ATOM     26  N   UNL     1     -21.962 -35.640  -3.169  0.00  0.00    -0.258 NA
ENDROOT
BRANCH  16  17
ATOM     17  N   UNL     1     -21.328 -34.468  -5.071  0.00  0.00    -0.283 N 
ATOM     18  C   UNL     1     -21.523 -34.174  -6.519  0.00  0.00    +0.141 C 
ATOM     19  C   UNL     1     -22.392 -32.910  -6.752  0.00  0.00    +0.075 C 
ATOM     20  C   UNL     1     -21.932 -31.714  -5.885  0.00  0.00    +0.133 C 
ATOM     21  N   UNL     1     -22.368 -31.897  -4.481  0.00  0.00    +0.235 N 
ATOM     22  H   UNL     1     -23.169 -32.510  -4.470  0.00  0.00    +0.203 HD
ATOM     23  C   UNL     1     -22.747 -30.568  -3.956  0.00  0.00    +0.190 C 
ATOM     24  C   UNL     1     -21.322 -32.471  -3.589  0.00  0.00    +0.156 C 
ATOM     25  C   UNL     1     -20.486 -33.619  -4.206  0.00  0.00    +0.186 C 
ENDBRANCH  16  17
BRANCH   1   2
ATOM      2  C   UNL     1     -22.577 -36.707  -1.118  0.00  0.00    +0.005 A 
ATOM      3  C   UNL     1     -22.437 -35.509  -0.409  0.00  0.00    +0.028 A 
ATOM      4  C   UNL     1     -22.502 -35.463   0.981  0.00  0.00    -0.016 A 
ATOM     10  C   UNL     1     -22.775 -36.637   1.680  0.00  0.00    +0.017 A 
ATOM     11  C   UNL     1     -22.937 -37.838   0.992  0.00  0.00    +0.007 A 
ATOM     12  C   UNL     1     -22.851 -37.867  -0.400  0.00  0.00    +0.019 A 
BRANCH   4   5
ATOM      5  C   UNL     1     -22.378 -34.250   1.670  0.00  0.00    +0.025 C 
ATOM      6  C   UNL     1     -21.715 -33.119   1.195  0.00  0.00    +0.036 C 
BRANCH   6   7
ATOM      7  C   UNL     1     -21.683 -31.934   1.942  0.00  0.00    +0.052 C 
ATOM      8  O   UNL     1     -22.279 -31.874   3.046  0.00  0.00    -0.563 OA
ATOM      9  O   UNL     1     -21.061 -30.972   1.456  0.00  0.00    -0.563 OA
ENDBRANCH   6   7
ENDBRANCH   4   5
ENDBRANCH   1   2
TORSDOF 4
