REMARK  Name = 4YTI
REMARK  9 active torsions:
REMARK  status: ('A' for Active; 'I' for Inactive)
REMARK    1  A    between atoms: C_1  and  C_2
REMARK    2  A    between atoms: C_1  and  C_19
REMARK    3  A    between atoms: C_2  and  C_3
REMARK    4  A    between atoms: C_2  and  C_4
REMARK    5  A    between atoms: C_2  and  N_20
REMARK    6  A    between atoms: C_5  and  C_6
REMARK    7  A    between atoms: C_5  and  N_17
REMARK    8  A    between atoms: C_7  and  N_20
REMARK    9  A    between atoms: C_10  and  C_11
REMARK                            x       y       z     vdW  Elec       q    Type
REMARK                         _______ _______ _______ _____ _____    ______ ____
ROOT
ATOM      4  N   UNL     1      16.359  13.791   5.475  0.00  0.00    -0.316 N 
ATOM      5  H   UNL     1      17.162  14.039   6.138  0.00  0.00    +0.148 HD
ENDROOT
BRANCH   4   6
ATOM      6  C   UNL     1      16.574  12.518   4.919  0.00  0.00    +0.123 A 
ATOM      7  N   UNL     1      15.551  11.889   4.317  0.00  0.00    -0.213 NA
ATOM      8  C   UNL     1      15.768  10.611   3.977  0.00  0.00    +0.164 A 
ATOM      9  N   UNL     1      17.050   9.860   4.168  0.00  0.00    -0.235 NA
ATOM     10  C   UNL     1      18.002  10.595   4.741  0.00  0.00    +0.116 A 
ATOM     20  C   UNL     1      17.831  11.908   5.151  0.00  0.00    +0.063 A 
BRANCH   8  11
ATOM     11  C   UNL     1      14.658   9.923   3.307  0.00  0.00    +0.048 A 
ATOM     12  C   UNL     1      13.335  10.399   2.828  0.00  0.00    +0.031 A 
ATOM     13  C   UNL     1      12.667  11.620   2.745  0.00  0.00    +0.014 A 
ATOM     14  C   UNL     1      11.519  11.730   1.960  0.00  0.00    +0.020 A 
ATOM     15  C   UNL     1      11.060  10.624   1.285  0.00  0.00    +0.113 A 
ATOM     16  N   UNL     1      11.647   9.406   1.350  0.00  0.00    -0.236 NA
ATOM     17  C   UNL     1      12.768   9.329   2.120  0.00  0.00    +0.160 A 
ATOM     18  N   UNL     1      13.600   8.244   2.217  0.00  0.00    -0.235 NA
ATOM     19  C   UNL     1      14.738   8.607   2.925  0.00  0.00    +0.125 A 
ENDBRANCH   8  11
ENDBRANCH   4   6
BRANCH   4   3
ATOM      3  C   UNL     1      15.383  14.891   5.437  0.00  0.00    +0.107 C 
ATOM     30  C   UNL     1      15.412  15.639   6.757  0.00  0.00    +0.041 C 
BRANCH   3  21
ATOM     21  C   UNL     1      15.781  15.888   4.329  0.00  0.00    +0.236 C 
ATOM     22  O   UNL     1      15.125  16.911   4.101  0.00  0.00    -0.274 OA
ATOM     23  N   UNL     1      16.835  15.488   3.621  0.00  0.00    -0.305 N 
ATOM     24  H   UNL     1      17.794  15.594   4.083  0.00  0.00    +0.149 HD
BRANCH  23  25
ATOM     25  C   UNL     1      16.813  14.917   2.273  0.00  0.00    +0.217 C 
BRANCH  25  26
ATOM     26  C   UNL     1      15.796  14.909   1.174  0.00  0.00    +0.405 C 
ATOM     27  F   UNL     1      14.779  14.239   1.452  0.00  0.00    -0.169 F 
ATOM     28  F   UNL     1      15.360  16.057   0.878  0.00  0.00    -0.169 F 
ATOM     29  F   UNL     1      16.271  14.430   0.112  0.00  0.00    -0.169 F 
ENDBRANCH  25  26
ENDBRANCH  23  25
ENDBRANCH   3  21
BRANCH   3   1
ATOM      1  C   UNL     1      13.989  14.299   5.170  0.00  0.00    +0.031 C 
ATOM      2  C   UNL     1      13.096  15.056   4.189  0.00  0.00    +0.006 C 
ENDBRANCH   3   1
ENDBRANCH   4   3
TORSDOF 7
