REMARK  Name = 3tiz_ligand
REMARK  5 active torsions:
REMARK  status: ('A' for Active; 'I' for Inactive)
REMARK    1  A    between atoms: N01_1  and  C02_2
REMARK    2  A    between atoms: N01_1  and  C08_8
REMARK    3  A    between atoms: C05_5  and  O19_19
REMARK    4  A    between atoms: C08_8  and  C09_9
REMARK    5  A    between atoms: C10_10  and  O20_20
REMARK                            x       y       z     vdW  Elec       q    Type
REMARK                         _______ _______ _______ _____ _____    ______ ____
ROOT
ATOM      4  C   UNL     1     -92.119  -8.920 -85.399  0.00  0.00    +0.014 A 
ATOM      5  C   UNL     1     -93.124  -7.870 -85.275  0.00  0.00    -0.020 A 
ATOM      6  C   UNL     1     -93.235  -7.097 -84.080  0.00  0.00    -0.001 A 
ATOM      7  C   UNL     1     -94.214  -6.071 -83.971  0.00  0.00    -0.007 A 
ATOM      8  C   UNL     1     -95.083  -5.823 -85.055  0.00  0.00    -0.008 A 
ATOM      9  C   UNL     1     -94.975  -6.571 -86.223  0.00  0.00    -0.001 A 
ATOM     10  C   UNL     1     -93.974  -7.618 -86.339  0.00  0.00    -0.031 A 
ATOM     11  C   UNL     1     -93.868  -8.393 -87.552  0.00  0.00    -0.011 A 
ATOM     12  C   UNL     1     -92.884  -9.413 -87.664  0.00  0.00    +0.020 A 
ATOM     13  C   UNL     1     -92.030  -9.669 -86.590  0.00  0.00    +0.091 A 
ENDROOT
BRANCH  13  14
ATOM     14  O   UNL     1     -91.075 -10.661 -86.705  0.00  0.00    -0.338 OA
ATOM     15  H   UNL     1     -90.576 -10.714 -85.898  0.00  0.00    +0.245 HD
ENDBRANCH  13  14
BRANCH   4   3
ATOM      3  C   UNL     1     -91.151  -9.222 -84.211  0.00  0.00    +0.183 C 
BRANCH   3   1
ATOM      1  N   UNL     1     -90.119 -10.235 -84.397  0.00  0.00    -0.319 N 
ATOM      2  H   UNL     1     -90.092 -10.759 -85.283  0.00  0.00    +0.175 HD
BRANCH   1  16
ATOM     16  C   UNL     1     -89.121 -10.534 -83.371  0.00  0.00    +0.029 A 
ATOM     17  C   UNL     1     -88.655  -9.536 -82.544  0.00  0.00    -0.003 A 
ATOM     18  C   UNL     1     -87.685  -9.834 -81.547  0.00  0.00    +0.006 A 
ATOM     19  C   UNL     1     -87.199 -11.140 -81.400  0.00  0.00    +0.074 A 
ATOM     22  C   UNL     1     -87.673 -12.139 -82.223  0.00  0.00    +0.006 A 
ATOM     23  C   UNL     1     -88.636 -11.845 -83.218  0.00  0.00    -0.003 A 
BRANCH  19  20
ATOM     20  O   UNL     1     -86.269 -11.433 -80.437  0.00  0.00    -0.342 OA
ATOM     21  H   UNL     1     -86.053 -12.357 -80.478  0.00  0.00    +0.244 HD
ENDBRANCH  19  20
ENDBRANCH   1  16
ENDBRANCH   3   1
ENDBRANCH   4   3
TORSDOF 5
