REMARK  Name = 08H
REMARK  1 active torsions:
REMARK  status: ('A' for Active; 'I' for Inactive)
REMARK    1  A    between atoms: CAO_16  and  CAQ_17
REMARK                            x       y       z     vdW  Elec       q    Type
REMARK                         _______ _______ _______ _____ _____    ______ ____
ROOT
ATOM      1  C   UNL     1      29.121  15.727  -1.182  0.00  0.00    +0.014 A 
ATOM      2  C   UNL     1      29.763  16.230  -0.040  0.00  0.00    +0.064 A 
ATOM      3  C   UNL     1      29.192  16.150   1.224  0.00  0.00    +0.017 A 
ATOM      4  C   UNL     1      27.915  15.578   1.366  0.00  0.00    +0.001 A 
ATOM      5  C   UNL     1      27.286  15.083   0.217  0.00  0.00    -0.000 A 
ATOM      6  N   UNL     1      31.023  16.810  -0.046  0.00  0.00    -0.280 N 
ATOM      7  C   UNL     1      31.533  17.872   0.633  0.00  0.00    +0.147 A 
ATOM      8  C   UNL     1      30.806  18.822   1.603  0.00  0.00    +0.074 C 
ATOM      9  N   UNL     1      32.815  18.037   0.299  0.00  0.00    -0.133 NA
ATOM     10  N   UNL     1      33.151  17.112  -0.526  0.00  0.00    -0.132 NA
ATOM     11  C   UNL     1      32.058  16.349  -0.758  0.00  0.00    +0.165 A 
ATOM     12  C   UNL     1      31.956  15.215  -1.730  0.00  0.00    +0.155 C 
ATOM     13  N   UNL     1      30.979  15.691  -2.746  0.00  0.00    -0.202 NA
ATOM     14  C   UNL     1      27.843  15.159  -1.053  0.00  0.00    -0.001 A 
ATOM     15  C   UNL     1      29.651  15.777  -2.509  0.00  0.00    +0.119 C 
ENDROOT
BRANCH  15  16
ATOM     16  C   UNL     1      28.859  16.264  -3.614  0.00  0.00    -0.002 A 
ATOM     17  C   UNL     1      27.692  16.991  -3.398  0.00  0.00    -0.003 A 
ATOM     18  C   UNL     1      26.958  17.533  -4.455  0.00  0.00    -0.000 A 
ATOM     19  C   UNL     1      27.343  17.328  -5.777  0.00  0.00    -0.000 A 
ATOM     20  C   UNL     1      28.491  16.593  -5.996  0.00  0.00    -0.000 A 
ATOM     21  C   UNL     1      29.227  16.066  -4.939  0.00  0.00    -0.003 A 
ENDBRANCH  15  16
TORSDOF 1
