REMARK  Name = 4FTQ
REMARK  6 active torsions:
REMARK  status: ('A' for Active; 'I' for Inactive)
REMARK    1  A    between atoms: C_2  and  C_3
REMARK    2  A    between atoms: C_6  and  C_9
REMARK    3  A    between atoms: C_18  and  C_19
REMARK    4  A    between atoms: C_19  and  C_20
REMARK    5  A    between atoms: C_21  and  O_23
REMARK    6  A    between atoms: O_23  and  C_24
REMARK                            x       y       z     vdW  Elec       q    Type
REMARK                         _______ _______ _______ _____ _____    ______ ____
ROOT
ATOM      7  C   UNL     1      15.619  -3.510   9.860  0.00  0.00    +0.071 A 
ATOM      8  N   UNL     1      15.658  -2.418   9.067  0.00  0.00    -0.276 N 
ATOM      9  H   UNL     1      14.934  -1.736   8.860  0.00  0.00    +0.189 HD
ATOM     10  N   UNL     1      16.875  -2.243   8.465  0.00  0.00    -0.173 NA
ATOM     11  C   UNL     1      17.627  -3.259   8.905  0.00  0.00    +0.097 A 
ATOM     12  C   UNL     1      18.987  -3.799   8.883  0.00  0.00    +0.006 A 
ATOM     13  C   UNL     1      20.118  -3.407   8.168  0.00  0.00    +0.017 A 
ATOM     14  C   UNL     1      21.337  -4.067   8.319  0.00  0.00    -0.005 A 
ATOM     15  C   UNL     1      21.393  -5.150   9.206  0.00  0.00    +0.125 A 
ATOM     22  C   UNL     1      20.274  -5.544   9.923  0.00  0.00    +0.050 A 
ATOM     25  C   UNL     1      19.064  -4.883   9.747  0.00  0.00    -0.030 A 
ATOM     26  C   UNL     1      17.709  -5.184  10.315  0.00  0.00    +0.075 C 
ATOM     27  C   UNL     1      16.868  -4.102   9.792  0.00  0.00    +0.010 A 
ENDROOT
BRANCH   7   6
ATOM      3  C   UNL     1      12.241  -4.663  12.099  0.00  0.00    +0.140 A 
ATOM      4  C   UNL     1      13.338  -5.517  12.074  0.00  0.00    +0.039 A 
ATOM      5  C   UNL     1      14.429  -5.138  11.318  0.00  0.00    +0.014 A 
ATOM      6  C   UNL     1      14.425  -3.940  10.609  0.00  0.00    +0.018 A 
ATOM     28  C   UNL     1      13.267  -3.171  10.678  0.00  0.00    +0.122 A 
ATOM     29  N   UNL     1      12.202  -3.499  11.421  0.00  0.00    -0.244 NA
BRANCH   3   2
ATOM      1  N   UNL     1      10.189  -5.437  13.416  0.00  0.00    -0.189 NA
ATOM      2  C   UNL     1      11.096  -5.078  12.828  0.00  0.00    +0.119 C 
ENDBRANCH   3   2
ENDBRANCH   7   6
BRANCH  14  23
ATOM     23  C   UNL     1      22.516  -3.564   7.513  0.00  0.00    +0.035 C 
ATOM     24  C   UNL     1      22.563  -4.082   6.096  0.00  0.00    +0.009 C 
ENDBRANCH  14  23
BRANCH  15  16
ATOM     16  O   UNL     1      22.592  -5.818   9.275  0.00  0.00    -0.486 OA
BRANCH  16  17
ATOM     17  C   UNL     1      22.749  -6.954   8.427  0.00  0.00    +0.201 C 
ATOM     18  C   UNL     1      24.207  -7.173   8.050  0.00  0.00    +0.075 C 
ATOM     19  C   UNL     1      24.546  -8.528   8.621  0.00  0.00    +0.163 C 
ATOM     20  O   UNL     1      23.582  -8.819   9.620  0.00  0.00    -0.376 OA
ATOM     21  C   UNL     1      22.371  -8.155   9.274  0.00  0.00    +0.204 C 
ENDBRANCH  16  17
ENDBRANCH  15  16
TORSDOF 5
