REMARK  Name = 6HMC
REMARK  4 active torsions:
REMARK  status: ('A' for Active; 'I' for Inactive)
REMARK    1  A    between atoms: C16_4  and  N15_22
REMARK    2  A    between atoms: C02_7  and  C03_8
REMARK    3  A    between atoms: C03_8  and  O04_23
REMARK    4  A    between atoms: C05_9  and  O04_23
REMARK                            x       y       z     vdW  Elec       q    Type
REMARK                         _______ _______ _______ _____ _____    ______ ____
ROOT
ATOM      1  C   UNL     1      -0.677 -13.078   6.509  0.00  0.00    +0.150 A 
ATOM      2  N   UNL     1      -1.621 -13.436   5.523  0.00  0.00    -0.350 N 
ATOM      6  C   UNL     1      -0.961 -13.468   4.250  0.00  0.00    +0.200 A 
ATOM      7  C   UNL     1      -1.559 -13.749   2.864  0.00  0.00    -0.100 C 
ATOM      8  C   UNL     1      -0.699 -13.227   1.678  0.00  0.00    -0.100 C 
ATOM      9  C   UNL     1       0.773 -13.527   1.859  0.00  0.00    -0.100 C 
ATOM     10  C   UNL     1       1.288 -13.086   3.243  0.00  0.00    +0.550 C 
ATOM     11  O   UNL     1       2.433 -12.729   3.279  0.00  0.00    -0.550 OA
ATOM     12  C   UNL     1       0.396 -13.148   4.448  0.00  0.00    +0.050 A 
ATOM     13  C   UNL     1       0.567 -12.923   5.863  0.00  0.00    -0.100 A 
ATOM     14  C   UNL     1       1.548 -12.519   6.935  0.00  0.00    +0.550 C 
ATOM     15  O   UNL     1       2.706 -12.351   6.825  0.00  0.00    -0.550 OA
ATOM     16  C   UNL     1       0.759 -12.490   8.273  0.00  0.00    +0.000 A 
ATOM     17  C   UNL     1       1.199 -12.158   9.566  0.00  0.00    -0.130 A 
ATOM     18  C   UNL     1       0.276 -12.223  10.640  0.00  0.00    -0.130 A 
ATOM     19  C   UNL     1      -1.067 -12.481  10.383  0.00  0.00    -0.130 A 
ATOM     20  C   UNL     1      -1.515 -12.824   9.081  0.00  0.00    +0.185 A 
ATOM     25  C   UNL     1      -0.601 -12.828   8.000  0.00  0.00    +0.000 A 
ENDROOT
BRANCH   2   3
ATOM      3  C   UNL     1      -3.090 -13.679   5.783  0.00  0.00    +0.000 C 
ATOM      4  C   UNL     1      -3.598 -14.963   5.092  0.00  0.00    -0.150 C 
ATOM      5  C   UNL     1      -3.956 -12.459   5.390  0.00  0.00    -0.150 C 
ENDBRANCH   2   3
BRANCH  20  21
ATOM     21  O   UNL     1      -2.837 -13.183   8.879  0.00  0.00    -0.365 OA
BRANCH  21  22
ATOM     22  C   UNL     1      -3.839 -13.011   9.894  0.00  0.00    +0.080 C 
BRANCH  22  23
ATOM     23  C   UNL     1      -5.259 -13.229   9.427  0.00  0.00    -0.100 C 
ATOM     24  C   UNL     1      -6.066 -14.180   9.881  0.00  0.00    -0.200 C 
ENDBRANCH  22  23
ENDBRANCH  21  22
ENDBRANCH  20  21
TORSDOF 4
