REMARK  Name = 4WAE
REMARK  1 active torsions:
REMARK  status: ('A' for Active; 'I' for Inactive)
REMARK    1  A    between atoms: C_5  and  N_6
REMARK                            x       y       z     vdW  Elec       q    Type
REMARK                         _______ _______ _______ _____ _____    ______ ____
ROOT
ATOM      1  N   UNL     1      24.484  33.439  -0.701  0.00  0.00    -0.214 NA
ATOM      2  C   UNL     1      23.860  33.636  -1.890  0.00  0.00    +0.185 A 
ATOM      3  N   UNL     1      23.537  32.869  -2.929  0.00  0.00    -0.214 NA
ATOM      4  C   UNL     1      22.916  33.390  -3.967  0.00  0.00    +0.225 A 
ATOM      5  N   UNL     1      22.584  34.667  -4.062  0.00  0.00    -0.219 NA
ATOM      6  C   UNL     1      22.861  35.506  -3.065  0.00  0.00    +0.147 A 
ATOM     10  C   UNL     1      23.515  35.003  -1.941  0.00  0.00    +0.149 A 
ATOM     11  N   UNL     1      23.928  35.547  -0.817  0.00  0.00    -0.229 NA
ATOM     12  C   UNL     1      24.509  34.621  -0.075  0.00  0.00    +0.224 A 
ENDROOT
BRANCH   6   7
ATOM      7  N   UNL     1      22.529  36.879  -3.147  0.00  0.00    -0.341 N 
ATOM      8  H   UNL     1      22.196  37.220  -3.919  0.00  0.00    +0.144 HD
ATOM      9  H   UNL     1      22.649  37.418  -2.428  0.00  0.00    +0.144 HD
ENDBRANCH   6   7
TORSDOF 1
