REMARK  Name = 4WKQ
REMARK  8 active torsions:
REMARK  status: ('A' for Active; 'I' for Inactive)
REMARK    1  A    between atoms: N_6  and  C_7
REMARK    2  A    between atoms: C_7  and  C_8
REMARK    3  A    between atoms: C_8  and  C_9
REMARK    4  A    between atoms: C_9  and  O_10
REMARK    5  A    between atoms: O_10  and  C_11
REMARK    6  A    between atoms: C_12  and  O_14
REMARK    7  A    between atoms: O_14  and  C_15
REMARK    8  A    between atoms: N_23  and  C_24
REMARK                            x       y       z     vdW  Elec       q    Type
REMARK                         _______ _______ _______ _____ _____    ______ ____
ROOT
ATOM      7  C   UNL     1       0.836 194.350  18.640  0.00  0.00    +0.163 A 
ATOM      8  C   UNL     1       0.901 194.682  20.008  0.00  0.00    +0.063 A 
ATOM      9  C   UNL     1       0.141 195.764  20.476  0.00  0.00    +0.044 A 
ATOM     10  C   UNL     1       0.151 196.138  21.847  0.00  0.00    +0.134 A 
ATOM     11  N   UNL     1       0.925 195.441  22.741  0.00  0.00    -0.299 N 
ATOM     12  H   UNL     1       1.667 194.756  22.387  0.00  0.00    +0.154 HD
ATOM     21  N   UNL     1      -0.571 197.193  22.221  0.00  0.00    -0.220 NA
ATOM     22  C   UNL     1      -1.362 197.899  21.320  0.00  0.00    +0.224 A 
ATOM     23  N   UNL     1      -1.421 197.518  19.972  0.00  0.00    -0.235 NA
ATOM     24  C   UNL     1      -0.666 196.485  19.563  0.00  0.00    +0.080 A 
ATOM     25  C   UNL     1      -0.722 196.148  18.205  0.00  0.00    +0.077 A 
ATOM     26  C   UNL     1       0.024 195.060  17.743  0.00  0.00    +0.164 A 
ENDROOT
BRANCH  11  13
ATOM     13  C   UNL     1       0.748 195.622  24.072  0.00  0.00    +0.034 A 
ATOM     14  C   UNL     1       1.887 195.846  24.849  0.00  0.00    +0.026 A 
ATOM     15  C   UNL     1       1.759 196.052  26.229  0.00  0.00    +0.041 A 
ATOM     16  C   UNL     1       0.474 196.030  26.817  0.00  0.00    +0.142 A 
ATOM     17  F   UNL     1       0.351 196.204  28.140  0.00  0.00    -0.204 F 
ATOM     18  C   UNL     1      -0.665 195.780  26.049  0.00  0.00    +0.078 A 
ATOM     19 CL   UNL     1      -2.264 195.751  26.802  0.00  0.00    -0.081 Cl
ATOM     20  C   UNL     1      -0.529 195.575  24.674  0.00  0.00    +0.046 A 
ENDBRANCH  11  13
BRANCH  26  27
ATOM     27  O   UNL     1       0.043 194.619  16.438  0.00  0.00    -0.491 OA
ATOM     28  C   UNL     1      -0.975 195.157  15.577  0.00  0.00    +0.277 C 
ENDBRANCH  26  27
BRANCH   7   6
ATOM      6  O   UNL     1       1.511 193.312  18.093  0.00  0.00    -0.488 OA
BRANCH   6   5
ATOM      5  C   UNL     1       2.693 192.768  18.712  0.00  0.00    +0.230 C 
BRANCH   5   4
ATOM      4  C   UNL     1       3.362 192.174  17.476  0.00  0.00    +0.056 C 
BRANCH   4   3
ATOM      3  C   UNL     1       4.516 191.313  17.973  0.00  0.00    +0.088 C 
BRANCH   3   2
ATOM      1  C   UNL     1       6.423 190.308  17.402  0.00  0.00    +0.112 C 
ATOM      2  N   UNL     1       5.186 190.789  16.758  0.00  0.00    -0.298 NA
ATOM     29  C   UNL     1       4.200 189.790  16.265  0.00  0.00    +0.112 C 
ATOM     30  C   UNL     1       4.872 188.499  15.860  0.00  0.00    +0.175 C 
ATOM     31  O   UNL     1       6.218 188.873  15.401  0.00  0.00    -0.377 OA
ATOM     32  C   UNL     1       7.136 189.306  16.473  0.00  0.00    +0.175 C 
ENDBRANCH   3   2
ENDBRANCH   4   3
ENDBRANCH   5   4
ENDBRANCH   6   5
ENDBRANCH   7   6
TORSDOF 7
