REMARK  Name = 2w1c_ligand
REMARK  5 active torsions:
REMARK  status: ('A' for Active; 'I' for Inactive)
REMARK    1  A    between atoms: C5_5  and  C8_8
REMARK    2  A    between atoms: N10_10  and  C11_11
REMARK    3  A    between atoms: C16_15  and  C17_16
REMARK    4  A    between atoms: C22_21  and  C23_22
REMARK    5  A    between atoms: C23_22  and  N24_23
REMARK                            x       y       z     vdW  Elec       q    Type
REMARK                         _______ _______ _______ _____ _____    ______ ____
ROOT
ATOM     11  C   UNL     1       3.447  32.456   6.489  0.00  0.00    +0.141 A 
ATOM     12  N   UNL     1       2.395  33.281   6.700  0.00  0.00    -0.253 N 
ATOM     13  H   UNL     1       1.948  33.457   7.611  0.00  0.00    +0.229 HD
ATOM     14  C   UNL     1       2.023  33.839   5.522  0.00  0.00    +0.074 A 
ATOM     15  C   UNL     1       1.036  34.735   5.158  0.00  0.00    +0.013 A 
ATOM     16  C   UNL     1       0.888  35.142   3.838  0.00  0.00    -0.011 A 
ATOM     25  C   UNL     1       1.759  34.616   2.880  0.00  0.00    -0.021 A 
ATOM     26  C   UNL     1       2.746  33.718   3.245  0.00  0.00    -0.013 A 
ATOM     27  C   UNL     1       2.878  33.329   4.567  0.00  0.00    +0.024 A 
ATOM     28  N   UNL     1       3.756  32.469   5.189  0.00  0.00    -0.314 NA
ENDROOT
BRANCH  11  10
ATOM      9  C   UNL     1       4.994  30.622   7.396  0.00  0.00    +0.094 A 
ATOM     10  C   UNL     1       4.104  31.683   7.518  0.00  0.00    +0.118 A 
ATOM     29  N   UNL     1       3.860  31.952   8.792  0.00  0.00    -0.204 NA
ATOM     30  N   UNL     1       4.607  31.062   9.476  0.00  0.00    -0.230 N 
ATOM     31  H   UNL     1       4.645  31.008  10.504  0.00  0.00    +0.254 HD
ATOM     32  C   UNL     1       5.297  30.253   8.651  0.00  0.00    +0.142 A 
BRANCH   9   7
ATOM      6  C   UNL     1       5.935  28.877   6.006  0.00  0.00    +0.221 C 
ATOM      7  N   UNL     1       5.440  30.111   6.218  0.00  0.00    -0.249 N 
ATOM      8  H   UNL     1       5.396  30.717   5.423  0.00  0.00    +0.215 HD
ATOM     33  O   UNL     1       5.901  27.996   6.844  0.00  0.00    -0.379 OA
BRANCH   6   5
ATOM      1  F   UNL     1       8.232  28.041   0.967  0.00  0.00    -0.179 F 
ATOM      2  C   UNL     1       7.679  28.239   2.179  0.00  0.00    +0.137 A 
ATOM      3  C   UNL     1       7.521  27.164   3.036  0.00  0.00    +0.039 A 
ATOM      4  C   UNL     1       6.955  27.365   4.279  0.00  0.00    +0.022 A 
ATOM      5  C   UNL     1       6.546  28.645   4.661  0.00  0.00    +0.050 A 
ATOM     34  C   UNL     1       6.718  29.717   3.775  0.00  0.00    +0.022 A 
ATOM     35  C   UNL     1       7.285  29.510   2.535  0.00  0.00    +0.039 A 
ENDBRANCH   6   5
ENDBRANCH   9   7
ENDBRANCH  11  10
BRANCH  16  17
ATOM     17  C   UNL     1      -0.207  36.113   3.461  0.00  0.00    +0.191 C 
BRANCH  17  18
ATOM     18  N   UNL     1       0.264  37.358   2.769  0.00  0.00    +0.250 N 
ATOM     19  H   UNL     1       0.759  37.915   3.447  0.00  0.00    +0.205 HD
ATOM     20  C   UNL     1       1.200  37.061   1.646  0.00  0.00    +0.161 C 
ATOM     21  C   UNL     1       1.648  38.363   1.003  0.00  0.00    +0.210 C 
ATOM     22  O   UNL     1       0.523  39.119   0.514  0.00  0.00    -0.369 OA
ATOM     23  C   UNL     1      -0.383  39.427   1.588  0.00  0.00    +0.210 C 
ATOM     24  C   UNL     1      -0.889  38.161   2.258  0.00  0.00    +0.161 C 
ENDBRANCH  17  18
ENDBRANCH  16  17
TORSDOF 5
