REMARK  Name = B4Y
REMARK  5 active torsions:
REMARK  status: ('A' for Active; 'I' for Inactive)
REMARK    1  A    between atoms: C8_8  and  N10_10
REMARK    2  A    between atoms: C11_11  and  C12_12
REMARK    3  A    between atoms: C16_16  and  C18_18
REMARK    4  A    between atoms: N25_25  and  C27_27
REMARK    5  A    between atoms: C29_29  and  C33_33
REMARK                            x       y       z     vdW  Elec       q    Type
REMARK                         _______ _______ _______ _____ _____    ______ ____
ROOT
ATOM     15  C   UNL     1     -13.505  -6.995  40.668  0.00  0.00    +0.055 A 
ATOM     16  C   UNL     1     -13.745  -5.934  41.557  0.00  0.00    +0.002 A 
ATOM     17  C   UNL     1     -12.786  -4.951  41.755  0.00  0.00    -0.004 A 
ATOM     34  C   UNL     1     -11.571  -5.036  41.062  0.00  0.00    -0.003 A 
ATOM     35  C   UNL     1     -11.319  -6.075  40.168  0.00  0.00    -0.000 A 
ATOM     36  C   UNL     1     -12.281  -7.057  39.970  0.00  0.00    +0.005 A 
ENDROOT
BRANCH  15  14
ATOM      1  N   UNL     1     -18.142  -8.085  41.040  0.00  0.00    -0.227 NA
ATOM      2  C   UNL     1     -19.093  -8.986  41.236  0.00  0.00    +0.063 A 
ATOM      3  C   UNL     1     -20.565  -8.643  41.453  0.00  0.00    +0.048 C 
ATOM      4  C   UNL     1     -21.273  -9.842  42.100  0.00  0.00    +0.023 C 
ATOM      5  C   UNL     1     -20.987 -11.142  41.313  0.00  0.00    +0.063 C 
ATOM      9  C   UNL     1     -19.483 -11.507  41.368  0.00  0.00    +0.050 C 
ATOM     10  C   UNL     1     -18.638 -10.258  41.186  0.00  0.00    +0.025 A 
ATOM     11  S   UNL     1     -16.902 -10.211  40.916  0.00  0.00    -0.054 S 
ATOM     12  C   UNL     1     -16.930  -8.508  40.866  0.00  0.00    +0.185 A 
ATOM     13  N   UNL     1     -15.847  -7.662  40.642  0.00  0.00    -0.150 NA
ATOM     14  C   UNL     1     -14.552  -8.025  40.478  0.00  0.00    +0.271 C 
ATOM     37  O   UNL     1     -14.223  -9.163  40.197  0.00  0.00    -0.268 OA
BRANCH   5   6
ATOM      6  N   UNL     1     -21.848 -12.280  41.742  0.00  0.00    -0.271 NA
ATOM      7  C   UNL     1     -21.565 -12.889  43.059  0.00  0.00    +0.090 C 
ATOM      8  C   UNL     1     -23.292 -12.030  41.563  0.00  0.00    +0.090 C 
ENDBRANCH   5   6
ENDBRANCH  15  14
BRANCH  17  18
ATOM     18  C   UNL     1     -13.093  -3.844  42.748  0.00  0.00    +0.099 C 
ATOM     19  C   UNL     1     -12.862  -4.313  44.199  0.00  0.00    +0.026 C 
ATOM     20  C   UNL     1     -11.395  -3.881  44.461  0.00  0.00    +0.024 C 
ATOM     21  C   UNL     1     -11.287  -2.559  43.655  0.00  0.00    +0.095 C 
ATOM     22  N   UNL     1     -12.302  -2.608  42.577  0.00  0.00    -0.261 N 
ATOM     23  C   UNL     1     -12.507  -1.635  41.647  0.00  0.00    +0.328 C 
ATOM     24  N   UNL     1     -11.685  -0.548  41.641  0.00  0.00    -0.162 NA
ATOM     33  O   UNL     1     -13.391  -1.769  40.811  0.00  0.00    -0.250 OA
BRANCH  24  25
ATOM     25  C   UNL     1     -11.714   0.569  40.786  0.00  0.00    +0.076 A 
ATOM     26  C   UNL     1     -10.618   1.433  40.824  0.00  0.00    +0.027 A 
ATOM     27  C   UNL     1     -10.603   2.588  40.026  0.00  0.00    +0.070 A 
ATOM     30  C   UNL     1     -11.707   2.901  39.217  0.00  0.00    +0.010 A 
ATOM     31  C   UNL     1     -12.816   2.063  39.212  0.00  0.00    +0.002 A 
ATOM     32  C   UNL     1     -12.819   0.905  39.982  0.00  0.00    +0.017 A 
BRANCH  27  28
ATOM     28  C   UNL     1      -9.467   3.446  40.054  0.00  0.00    +0.101 C 
ATOM     29  N   UNL     1      -8.567   4.133  40.074  0.00  0.00    -0.191 NA
ENDBRANCH  27  28
ENDBRANCH  24  25
ENDBRANCH  17  18
TORSDOF 5
