REMARK  Name = 4K11
REMARK  6 active torsions:
REMARK  status: ('A' for Active; 'I' for Inactive)
REMARK    1  A    between atoms: C_6  and  N_10
REMARK    2  A    between atoms: C_7  and  C_23
REMARK    3  A    between atoms: C_8  and  C_23
REMARK    4  A    between atoms: C_9  and  C_23
REMARK    5  A    between atoms: C_18  and  C_19
REMARK    6  A    between atoms: N_22  and  C_23
REMARK                            x       y       z     vdW  Elec       q    Type
REMARK                         _______ _______ _______ _____ _____    ______ ____
ROOT
ATOM      1  N   UNL     1      22.889  24.616  57.721  0.00  0.00    -0.220 NA
ATOM      2  C   UNL     1      21.569  24.863  57.612  0.00  0.00    +0.131 A 
ATOM      6  C   UNL     1      20.675  23.797  57.855  0.00  0.00    +0.086 A 
ATOM      7  C   UNL     1      19.271  23.564  57.867  0.00  0.00    +0.106 A 
ATOM     18  N   UNL     1      19.093  22.293  58.188  0.00  0.00    -0.168 NA
ATOM     19  N   UNL     1      20.175  21.717  58.373  0.00  0.00    -0.240 N 
ATOM     24  C   UNL     1      21.221  22.546  58.196  0.00  0.00    +0.164 A 
ATOM     25  N   UNL     1      22.541  22.382  58.283  0.00  0.00    -0.216 NA
ATOM     26  C   UNL     1      23.358  23.402  58.049  0.00  0.00    +0.225 A 
ENDROOT
BRANCH   7   8
ATOM      8  C   UNL     1      18.173  24.411  57.611  0.00  0.00    +0.011 A 
ATOM      9  C   UNL     1      18.033  25.209  56.446  0.00  0.00    -0.009 A 
ATOM     10  C   UNL     1      16.885  26.024  56.293  0.00  0.00    -0.017 A 
ATOM     11  C   UNL     1      15.880  26.064  57.267  0.00  0.00    +0.008 A 
ATOM     12  C   UNL     1      16.009  25.282  58.419  0.00  0.00    +0.001 A 
ATOM     13  C   UNL     1      16.734  26.823  55.137  0.00  0.00    +0.008 A 
ATOM     14  C   UNL     1      17.710  26.825  54.124  0.00  0.00    +0.001 A 
ATOM     15  C   UNL     1      18.848  26.010  54.286  0.00  0.00    +0.001 A 
ATOM     16  C   UNL     1      19.010  25.210  55.433  0.00  0.00    +0.009 A 
ATOM     17  C   UNL     1      17.148  24.457  58.595  0.00  0.00    +0.010 A 
ENDBRANCH   7   8
BRANCH  19  20
ATOM     20  C   UNL     1      20.138  20.222  58.756  0.00  0.00    +0.058 C 
ATOM     21  C   UNL     1      20.966  20.002  60.010  0.00  0.00    +0.036 C 
ATOM     22  C   UNL     1      20.714  19.403  57.634  0.00  0.00    +0.036 C 
ATOM     23  C   UNL     1      18.675  19.794  59.015  0.00  0.00    +0.036 C 
ENDBRANCH  19  20
BRANCH   2   3
ATOM      3  N   UNL     1      21.179  26.109  57.278  0.00  0.00    -0.343 N 
ATOM      4  H   UNL     1      20.138  26.336  57.184  0.00  0.00    +0.144 HD
ATOM      5  H   UNL     1      21.911  26.871  57.107  0.00  0.00    +0.144 HD
ENDBRANCH   2   3
TORSDOF 3
