REMARK  Name = 9C8
REMARK  4 active torsions:
REMARK  status: ('A' for Active; 'I' for Inactive)
REMARK    1  A    between atoms: CAB_2  and  NAC_3
REMARK    2  A    between atoms: NAC_3  and  CAD_4
REMARK    3  A    between atoms: NAC_3  and  CAF_6
REMARK    4  A    between atoms: CAI_11  and  CAL_12
REMARK                            x       y       z     vdW  Elec       q    Type
REMARK                         _______ _______ _______ _____ _____    ______ ____
ROOT
ATOM      4  C   UNL     1       6.782  38.214   7.801  0.00  0.00    +0.048 A 
ATOM      5  C   UNL     1       7.211  39.144   8.748  0.00  0.00    +0.015 A 
ATOM      6  C   UNL     1       7.194  38.847  10.114  0.00  0.00    +0.004 A 
ATOM      7  C   UNL     1       6.740  37.605  10.584  0.00  0.00    +0.036 A 
ATOM     19  C   UNL     1       6.286  36.679   9.647  0.00  0.00    +0.004 A 
ATOM     20  C   UNL     1       6.322  36.987   8.283  0.00  0.00    +0.015 A 
ENDROOT
BRANCH   7   8
ATOM      8  C   UNL     1       6.694  37.319  11.967  0.00  0.00    +0.165 A 
ATOM      9  N   UNL     1       7.491  38.042  12.872  0.00  0.00    -0.189 NA
ATOM     10  C   UNL     1       7.461  37.798  14.232  0.00  0.00    +0.282 A 
ATOM     11  O   UNL     1       8.205  38.475  14.949  0.00  0.00    -0.265 OA
ATOM     12  C   UNL     1       6.593  36.801  14.712  0.00  0.00    +0.076 A 
ATOM     13  C   UNL     1       6.478  36.478  16.074  0.00  0.00    +0.006 A 
ATOM     14  C   UNL     1       5.605  35.469  16.491  0.00  0.00    +0.000 A 
ATOM     15  C   UNL     1       4.884  34.756  15.527  0.00  0.00    +0.002 A 
ATOM     16  C   UNL     1       5.000  35.057  14.188  0.00  0.00    +0.019 A 
ATOM     17  C   UNL     1       5.851  36.076  13.769  0.00  0.00    +0.088 A 
ATOM     18  N   UNL     1       5.911  36.338  12.448  0.00  0.00    -0.226 NA
ENDBRANCH   7   8
BRANCH   4   3
ATOM      3  N   UNL     1       6.834  38.486   6.463  0.00  0.00    -0.308 N 
BRANCH   3   2
ATOM      1  C   UNL     1       5.750  40.654   6.023  0.00  0.00    +0.023 C 
ATOM      2  C   UNL     1       7.013  39.839   5.898  0.00  0.00    +0.091 C 
ENDBRANCH   3   2
BRANCH   3  21
ATOM     21  C   UNL     1       6.996  37.414   5.463  0.00  0.00    +0.091 C 
ATOM     22  C   UNL     1       8.515  37.204   5.382  0.00  0.00    +0.023 C 
ENDBRANCH   3  21
ENDBRANCH   4   3
TORSDOF 4
