REMARK  Name = MFZ
REMARK  4 active torsions:
REMARK  status: ('A' for Active; 'I' for Inactive)
REMARK    1  A    between atoms: C2_2  and  C3_3
REMARK    2  A    between atoms: C4_4  and  C5_5
REMARK    3  A    between atoms: C2_17  and  C3_18
REMARK    4  A    between atoms: C4_19  and  C5_20
REMARK                            x       y       z     vdW  Elec       q    Type
REMARK                         _______ _______ _______ _____ _____    ______ ____
ROOT
ATOM      5  C   UNL     1      26.087   7.233  61.823  0.00  0.00    +0.063 A 
ATOM      6  C   UNL     1      27.158   7.790  62.478  0.00  0.00    +0.107 A 
ATOM      7  N   UNL     1      27.764   6.823  63.199  0.00  0.00    -0.242 NA
ATOM      8  C   UNL     1      27.104   5.631  63.029  0.00  0.00    +0.093 A 
ATOM      9  C   UNL     1      27.325   4.366  63.576  0.00  0.00    +0.075 A 
ATOM     10 CL   UNL     1      28.633   4.129  64.693  0.00  0.00    -0.081 Cl
ATOM     11  C   UNL     1      26.492   3.304  63.281  0.00  0.00    +0.014 A 
ATOM     12  C   UNL     1      25.419   3.490  62.425  0.00  0.00    +0.012 A 
ATOM     13  C   UNL     1      25.170   4.737  61.866  0.00  0.00    +0.060 A 
ATOM     14 CL   UNL     1      23.801   4.887  60.809  0.00  0.00    -0.082 Cl
ATOM     15  C   UNL     1      25.998   5.861  62.149  0.00  0.00    +0.038 A 
ENDROOT
BRANCH   5   4
ATOM      3  C   UNL     1      24.617   8.784  60.298  0.00  0.00    -0.051 C 
ATOM      4  C   UNL     1      25.287   8.077  60.995  0.00  0.00    -0.060 C 
BRANCH   3   2
ATOM      1  O   UNL     1      22.432   9.271  59.459  0.00  0.00    -0.205 OA
ATOM      2  C   UNL     1      23.801   9.650  59.447  0.00  0.00    +0.258 C 
ENDBRANCH   3   2
ENDBRANCH   5   4
TORSDOF 2
