REMARK  Name = 5D9K
REMARK  9 active torsions:
REMARK  status: ('A' for Active; 'I' for Inactive)
REMARK    1  A    between atoms: O_5  and  C_12
REMARK    2  A    between atoms: C_6  and  C_22
REMARK    3  A    between atoms: C_7  and  C_22
REMARK    4  A    between atoms: C_8  and  N_25
REMARK    5  A    between atoms: C_9  and  N_18
REMARK    6  A    between atoms: N_19  and  C_20
REMARK    7  A    between atoms: C_20  and  C_21
REMARK    8  A    between atoms: C_21  and  C_22
REMARK    9  A    between atoms: C_23  and  C_26
REMARK                            x       y       z     vdW  Elec       q    Type
REMARK                         _______ _______ _______ _____ _____    ______ ____
ROOT
ATOM      1  C   UNL     1      -3.384  14.305  29.923  0.00  0.00    +0.230 A 
ATOM      2  N   UNL     1      -2.596  13.237  30.249  0.00  0.00    -0.213 NA
ATOM     13  N   UNL     1      -4.274  14.174  28.921  0.00  0.00    -0.311 N 
ATOM     14  H   UNL     1      -4.407  13.243  28.410  0.00  0.00    +0.170 HD
ATOM     15  C   UNL     1      -4.988  15.266  28.591  0.00  0.00    +0.126 A 
ATOM     16  N   UNL     1      -5.769  15.234  27.444  0.00  0.00    -0.304 N 
ATOM     17  C   UNL     1      -6.337  16.453  26.835  0.00  0.00    +0.158 C 
ATOM     18  C   UNL     1      -5.466  16.992  25.703  0.00  0.00    +0.038 C 
ATOM     19  C   UNL     1      -6.552  17.542  27.865  0.00  0.00    +0.240 C 
ATOM     20  N   UNL     1      -5.787  17.527  29.016  0.00  0.00    -0.269 N 
ATOM     21  C   UNL     1      -5.984  18.606  29.988  0.00  0.00    +0.138 C 
ATOM     22  O   UNL     1      -7.402  18.395  27.656  0.00  0.00    -0.273 OA
ATOM     28  C   UNL     1      -4.870  16.491  29.310  0.00  0.00    +0.093 A 
ATOM     29  C   UNL     1      -3.900  16.483  30.305  0.00  0.00    +0.141 A 
ATOM     30  N   UNL     1      -3.152  15.420  30.628  0.00  0.00    -0.219 NA
ENDROOT
BRANCH   2   3
ATOM      3  C   UNL     1      -2.604  11.933  29.714  0.00  0.00    +0.073 A 
ATOM      4  C   UNL     1      -1.467  11.325  29.182  0.00  0.00    +0.070 A 
ATOM      5  C   UNL     1      -1.590  10.090  28.583  0.00  0.00    +0.170 A 
ATOM      6  F   UNL     1      -0.504   9.509  28.015  0.00  0.00    -0.202 F 
ATOM      7  C   UNL     1      -2.798   9.426  28.507  0.00  0.00    +0.188 A 
ATOM      8  C   UNL     1      -3.883  10.023  29.107  0.00  0.00    +0.170 A 
ATOM      9  F   UNL     1      -5.024   9.312  29.182  0.00  0.00    -0.202 F 
ATOM     12  C   UNL     1      -3.824  11.263  29.685  0.00  0.00    +0.070 A 
BRANCH   7  10
ATOM     10  O   UNL     1      -2.897   8.310  27.756  0.00  0.00    -0.502 OA
ATOM     11  H   UNL     1      -3.289   7.529  28.338  0.00  0.00    +0.292 HD
ENDBRANCH   7  10
ENDBRANCH   2   3
BRANCH  16  23
ATOM     23  C   UNL     1      -6.046  13.962  26.777  0.00  0.00    +0.107 C 
BRANCH  23  24
ATOM     24  C   UNL     1      -7.464  13.467  27.028  0.00  0.00    +0.022 C 
BRANCH  24  25
ATOM     25  C   UNL     1      -7.585  12.002  26.729  0.00  0.00    -0.016 C 
ATOM     26  C   UNL     1      -7.045  11.600  25.366  0.00  0.00    +0.007 C 
ATOM     27  C   UNL     1      -9.034  11.608  26.868  0.00  0.00    +0.007 C 
ENDBRANCH  24  25
ENDBRANCH  23  24
ENDBRANCH  16  23
TORSDOF 5
