REMARK  Name = 5I0B
REMARK  5 active torsions:
REMARK  status: ('A' for Active; 'I' for Inactive)
REMARK    1  A    between atoms: C_1  and  C_2
REMARK    2  A    between atoms: C_2  and  C_3
REMARK    3  A    between atoms: C_2  and  C_4
REMARK    4  A    between atoms: N_6  and  C_7
REMARK    5  A    between atoms: C_9  and  C_10
REMARK                            x       y       z     vdW  Elec       q    Type
REMARK                         _______ _______ _______ _____ _____    ______ ____
ROOT
ATOM      5  C   UNL     1      20.651   3.153  15.029  0.00  0.00    +0.139 A 
ATOM      6  N   UNL     1      21.790   2.714  15.580  0.00  0.00    -0.323 N 
ATOM      7  H   UNL     1      22.696   3.275  15.680  0.00  0.00    +0.169 HD
ATOM      8  C   UNL     1      21.600   1.458  15.983  0.00  0.00    +0.158 A 
ATOM      9  N   UNL     1      22.443   0.599  16.571  0.00  0.00    -0.235 NA
ATOM     10  C   UNL     1      22.005  -0.676  16.913  0.00  0.00    +0.128 A 
ATOM     11  C   UNL     1      20.694  -1.052  16.637  0.00  0.00    +0.038 A 
ATOM     12 BR   UNL     1      20.092  -2.862  17.118  0.00  0.00    -0.049 Br
ATOM     13  C   UNL     1      19.864  -0.114  16.019  0.00  0.00    +0.048 A 
ATOM     14  C   UNL     1      20.329   1.110  15.709  0.00  0.00    +0.109 A 
ATOM     15  N   UNL     1      19.740   2.170  15.127  0.00  0.00    -0.226 NA
ENDROOT
BRANCH   5   4
ATOM      3  C   UNL     1      19.555   4.919  13.672  0.00  0.00    +0.029 C 
ATOM      4  C   UNL     1      20.478   4.414  14.524  0.00  0.00    +0.029 C 
ATOM     16  C   UNL     1      21.256   5.449  14.865  0.00  0.00    +0.145 C 
ATOM     17  N   UNL     1      20.804   6.523  14.216  0.00  0.00    -0.228 NA
ATOM     18  C   UNL     1      21.379   7.862  14.310  0.00  0.00    +0.128 C 
ATOM     19  N   UNL     1      19.796   6.225  13.521  0.00  0.00    -0.281 N 
ATOM     20  H   UNL     1      19.230   6.901  12.914  0.00  0.00    +0.166 HD
BRANCH   3   2
ATOM      1  C   UNL     1      18.795   3.941  11.520  0.00  0.00    +0.013 C 
ATOM      2  C   UNL     1      18.397   4.194  12.964  0.00  0.00    +0.029 C 
ATOM     21  C   UNL     1      17.113   5.018  13.007  0.00  0.00    +0.013 C 
ENDBRANCH   3   2
ENDBRANCH   5   4
TORSDOF 2
