REMARK  Name = 5TEX
REMARK  6 active torsions:
REMARK  status: ('A' for Active; 'I' for Inactive)
REMARK    1  A    between atoms: N_6  and  C_7
REMARK    2  A    between atoms: C_12  and  C_13
REMARK    3  A    between atoms: N_14  and  C_15
REMARK    4  A    between atoms: C_23  and  C_24
REMARK    5  A    between atoms: C_29  and  C_30
REMARK    6  A    between atoms: C_30  and  O_31
REMARK                            x       y       z     vdW  Elec       q    Type
REMARK                         _______ _______ _______ _____ _____    ______ ____
ROOT
ATOM      7  C   UNL     1      75.047  35.264   1.881  0.00  0.00    +0.059 A 
ATOM      8  C   UNL     1      74.539  36.410   1.497  0.00  0.00    +0.018 A 
ATOM     18  C   UNL     1      74.524  36.412   0.165  0.00  0.00    +0.045 A 
ATOM     19  C   UNL     1      74.147  37.264  -0.799  0.00  0.00    +0.054 A 
ATOM     20 CL   UNL     1      73.547  38.700  -0.596  0.00  0.00    -0.083 Cl
ATOM     21  C   UNL     1      74.261  36.921  -2.125  0.00  0.00    +0.040 A 
ATOM     22  C   UNL     1      74.779  35.701  -2.436  0.00  0.00    +0.114 A 
ATOM     23  N   UNL     1      75.144  34.859  -1.443  0.00  0.00    -0.237 NA
ATOM     24  C   UNL     1      75.019  35.230  -0.187  0.00  0.00    +0.143 A 
ATOM     25  N   UNL     1      75.328  34.543   0.849  0.00  0.00    -0.327 N 
ATOM     26  C   UNL     1      75.866  33.240   0.747  0.00  0.00    +0.151 C 
ENDROOT
BRANCH   7   6
ATOM      3  C   UNL     1      75.513  33.923   5.699  0.00  0.00    +0.030 A 
ATOM      4  C   UNL     1      74.863  33.157   4.769  0.00  0.00    +0.024 A 
ATOM      5  C   UNL     1      74.712  33.624   3.482  0.00  0.00    +0.012 A 
ATOM      6  C   UNL     1      75.220  34.840   3.110  0.00  0.00    -0.001 A 
ATOM     27  C   UNL     1      75.852  35.604   4.037  0.00  0.00    +0.012 A 
ATOM     28  C   UNL     1      76.004  35.145   5.323  0.00  0.00    +0.024 A 
BRANCH   3   2
ATOM      1  C   UNL     1      75.606  32.093   7.300  0.00  0.00    +0.120 C 
ATOM      2  N   UNL     1      75.670  33.499   6.950  0.00  0.00    -0.328 N 
ATOM     29  C   UNL     1      75.840  34.425   8.069  0.00  0.00    +0.120 C 
ATOM     30  C   UNL     1      74.764  34.223   9.141  0.00  0.00    +0.100 C 
ATOM     31  N   UNL     1      74.034  32.954   9.008  0.00  0.00    -0.313 NA
ATOM     32  H   UNL     1      73.541  32.715   9.927  0.00  0.00    +0.122 HD
ATOM     33  C   UNL     1      75.023  31.927   8.686  0.00  0.00    +0.100 C 
ENDBRANCH   3   2
ENDBRANCH   7   6
BRANCH   8   9
ATOM      9  C   UNL     1      74.187  37.354   2.375  0.00  0.00    -0.015 A 
ATOM     10  C   UNL     1      73.444  37.029   3.469  0.00  0.00    +0.009 A 
ATOM     11  C   UNL     1      73.089  37.951   4.415  0.00  0.00    +0.006 A 
ATOM     12  C   UNL     1      73.479  39.242   4.310  0.00  0.00    -0.022 A 
ATOM     16  C   UNL     1      74.230  39.619   3.222  0.00  0.00    +0.006 A 
ATOM     17  C   UNL     1      74.585  38.670   2.275  0.00  0.00    +0.009 A 
BRANCH  12  13
ATOM     13  C   UNL     1      73.060  40.081   5.291  0.00  0.00    +0.191 C 
BRANCH  13  14
ATOM     14  O   UNL     1      73.913  41.166   5.412  0.00  0.00    -0.390 OA
ATOM     15  H   UNL     1      74.879  40.828   5.647  0.00  0.00    +0.210 HD
ENDBRANCH  13  14
ENDBRANCH  12  13
ENDBRANCH   8   9
TORSDOF 5
