REMARK  Name = 5NKD
REMARK  14 active torsions:
REMARK  status: ('A' for Active; 'I' for Inactive)
REMARK    1  A    between atoms: C_2  and  C_4
REMARK    2  A    between atoms: C_4  and  C_5
REMARK    3  A    between atoms: C_10  and  C_12
REMARK    4  A    between atoms: C_17  and  N_18
REMARK    5  A    between atoms: C_23  and  C_24
REMARK    6  A    between atoms: N_26  and  C_27
REMARK    7  A    between atoms: C_33  and  C_34
REMARK    8  A    between atoms: C_36  and  C_38
REMARK    9  A    between atoms: C_38  and  C_39
REMARK   10  A    between atoms: C_44  and  C_46
REMARK   11  A    between atoms: C_51  and  N_52
REMARK   12  A    between atoms: C_57  and  C_58
REMARK   13  A    between atoms: N_60  and  C_61
REMARK   14  A    between atoms: C_67  and  C_68
REMARK                            x       y       z     vdW  Elec       q    Type
REMARK                         _______ _______ _______ _____ _____    ______ ____
ROOT
ATOM     14  N   UNL     1     -86.772 -15.464   5.111  0.00  0.00    -0.294 N 
ATOM     15  H   UNL     1     -86.986 -15.081   4.135  0.00  0.00    +0.154 HD
ATOM     16  C   UNL     1     -87.814 -15.958   5.823  0.00  0.00    +0.163 A 
ATOM     17  N   UNL     1     -89.076 -15.894   5.351  0.00  0.00    -0.232 NA
ATOM     18  C   UNL     1     -90.021 -16.448   6.158  0.00  0.00    +0.133 A 
ATOM     19  C   UNL     1     -89.539 -16.967   7.311  0.00  0.00    +0.095 A 
ATOM     32  S   UNL     1     -87.836 -16.734   7.321  0.00  0.00    -0.048 S 
ENDROOT
BRANCH  14  13
ATOM      9  C   UNL     1     -83.144 -15.031   4.838  0.00  0.00    +0.039 A 
ATOM     10  C   UNL     1     -82.721 -15.211   6.150  0.00  0.00    +0.013 A 
ATOM     11  C   UNL     1     -83.665 -15.496   7.127  0.00  0.00    +0.003 A 
ATOM     12  C   UNL     1     -85.032 -15.581   6.838  0.00  0.00    +0.023 A 
ATOM     13  C   UNL     1     -85.480 -15.412   5.526  0.00  0.00    +0.034 A 
ATOM     33  C   UNL     1     -84.521 -15.119   4.555  0.00  0.00    +0.036 A 
BRANCH   9   8
ATOM      4  C   UNL     1     -80.172 -16.359   1.383  0.00  0.00    +0.013 C 
ATOM      5  C   UNL     1     -80.726 -17.540   2.167  0.00  0.00    +0.024 C 
ATOM      6  C   UNL     1     -81.139 -16.984   3.519  0.00  0.00    +0.108 C 
ATOM      7  N   UNL     1     -81.362 -15.550   3.283  0.00  0.00    -0.297 N 
ATOM      8  C   UNL     1     -82.219 -14.675   3.834  0.00  0.00    +0.247 C 
ATOM     34  O   UNL     1     -82.165 -13.488   3.490  0.00  0.00    -0.270 OA
ATOM     35  C   UNL     1     -80.364 -15.125   2.267  0.00  0.00    +0.112 C 
BRANCH   4   3
ATOM      3  C   UNL     1     -78.681 -16.582   1.086  0.00  0.00    +0.057 C 
BRANCH   3   2
ATOM      1  O   UNL     1     -79.316 -17.915  -0.804  0.00  0.00    -0.550 OA
ATOM      2  C   UNL     1     -78.497 -17.784   0.140  0.00  0.00    +0.042 C 
ATOM     36  O   UNL     1     -77.531 -18.546   0.382  0.00  0.00    -0.550 OA
ENDBRANCH   3   2
ENDBRANCH   4   3
ENDBRANCH   9   8
ENDBRANCH  14  13
BRANCH  19  20
ATOM     20  C   UNL     1     -90.197 -17.605   8.325  0.00  0.00    +0.257 C 
ATOM     21  N   UNL     1     -91.516 -17.947   8.194  0.00  0.00    -0.280 N 
ATOM     22  H   UNL     1     -92.030 -17.731   7.281  0.00  0.00    +0.155 HD
ATOM     31  O   UNL     1     -89.578 -17.867   9.352  0.00  0.00    -0.269 OA
BRANCH  21  23
ATOM     23  C   UNL     1     -92.193 -18.569   9.230  0.00  0.00    +0.055 A 
ATOM     24  C   UNL     1     -92.769 -17.789  10.239  0.00  0.00    -0.028 A 
ATOM     25  C   UNL     1     -92.638 -16.390  10.225  0.00  0.00    +0.045 C 
ATOM     26  C   UNL     1     -93.483 -18.388  11.281  0.00  0.00    +0.005 A 
ATOM     27  C   UNL     1     -93.629 -19.773  11.313  0.00  0.00    +0.002 A 
ATOM     28  C   UNL     1     -93.073 -20.548  10.300  0.00  0.00    +0.022 A 
ATOM     29  C   UNL     1     -92.358 -19.962   9.258  0.00  0.00    +0.062 A 
ATOM     30 CL   UNL     1     -91.700 -21.020   8.024  0.00  0.00    -0.082 Cl
ENDBRANCH  21  23
ENDBRANCH  19  20
TORSDOF 6
