REMARK  Name = 3hmm_ligand
REMARK  4 active torsions:
REMARK  status: ('A' for Active; 'I' for Inactive)
REMARK    1  A    between atoms: C1_1  and  C2_2
REMARK    2  A    between atoms: C6_6  and  C8_8
REMARK    3  A    between atoms: C10_10  and  N5_24
REMARK    4  A    between atoms: C12_11  and  N5_24
REMARK                            x       y       z     vdW  Elec       q    Type
REMARK                         _______ _______ _______ _____ _____    ______ ____
ROOT
ATOM      5  C   UNL     1      14.743  65.859   5.924  0.00  0.00    +0.116 A 
ATOM      6  N   UNL     1      14.580  65.915   7.272  0.00  0.00    -0.286 NA
ATOM      7  C   UNL     1      15.392  66.751   7.965  0.00  0.00    +0.046 A 
ATOM      8  C   UNL     1      15.237  66.821   9.367  0.00  0.00    +0.023 A 
ATOM      9  C   UNL     1      16.050  67.678  10.165  0.00  0.00    +0.012 A 
ATOM     10  C   UNL     1      17.037  68.486   9.557  0.00  0.00    +0.009 A 
ATOM     11  C   UNL     1      17.216  68.435   8.152  0.00  0.00    +0.029 A 
ATOM     12  C   UNL     1      16.401  67.566   7.336  0.00  0.00    +0.059 A 
ATOM     13  C   UNL     1      16.474  67.416   5.931  0.00  0.00    +0.165 A 
ATOM     22  N   UNL     1      15.662  66.579   5.254  0.00  0.00    -0.244 NA
ENDROOT
BRANCH   5   4
ATOM      1  C   UNL     1      10.302  63.945   5.427  0.00  0.00    +0.112 C 
ATOM      2  C   UNL     1      11.688  64.067   4.880  0.00  0.00    +0.028 A 
ATOM      3  N   UNL     1      12.574  64.838   5.586  0.00  0.00    -0.285 NA
ATOM      4  C   UNL     1      13.872  64.995   5.122  0.00  0.00    +0.078 A 
ATOM     23  C   UNL     1      14.305  64.371   3.922  0.00  0.00    +0.043 A 
ATOM     24  C   UNL     1      13.377  63.574   3.204  0.00  0.00    +0.028 A 
ATOM     25  C   UNL     1      12.050  63.421   3.683  0.00  0.00    +0.038 A 
ENDBRANCH   5   4
BRANCH  13  14
ATOM     14  N   UNL     1      17.395  68.128   5.153  0.00  0.00    -0.237 N 
ATOM     15  H   UNL     1      18.249  68.397   5.662  0.00  0.00    +0.226 HD
BRANCH  14  16
ATOM     16  C   UNL     1      17.378  68.546   3.810  0.00  0.00    +0.089 A 
ATOM     17  C   UNL     1      18.540  69.123   3.250  0.00  0.00    +0.054 A 
ATOM     18  C   UNL     1      18.514  69.538   1.910  0.00  0.00    +0.078 A 
ATOM     19  N   UNL     1      17.404  69.414   1.099  0.00  0.00    -0.313 NA
ATOM     20  C   UNL     1      16.275  68.850   1.647  0.00  0.00    +0.078 A 
ATOM     21  C   UNL     1      16.213  68.407   2.978  0.00  0.00    +0.054 A 
ENDBRANCH  14  16
ENDBRANCH  13  14
TORSDOF 3
