REMARK  Name = 5UT5
REMARK  6 active torsions:
REMARK  status: ('A' for Active; 'I' for Inactive)
REMARK    1  A    between atoms: C_1  and  C_6
REMARK    2  A    between atoms: C_6  and  N_25
REMARK    3  A    between atoms: C_9  and  C_12
REMARK    4  A    between atoms: C_18  and  C_19
REMARK    5  A    between atoms: O_22  and  S_23
REMARK    6  A    between atoms: S_23  and  O_24
REMARK                            x       y       z     vdW  Elec       q    Type
REMARK                         _______ _______ _______ _____ _____    ______ ____
ROOT
ATOM      1  C   UNL     1      -6.839  10.619  21.992  0.00  0.00    -0.030 A 
ATOM      2  C   UNL     1      -7.454  11.795  22.416  0.00  0.00    +0.006 A 
ATOM      3  C   UNL     1      -7.377  12.956  21.637  0.00  0.00    +0.010 A 
ATOM      4  C   UNL     1      -6.684  12.945  20.432  0.00  0.00    +0.001 A 
ATOM     21  C   UNL     1      -6.061  11.775  19.995  0.00  0.00    +0.010 A 
ATOM     22  C   UNL     1      -6.143  10.615  20.778  0.00  0.00    +0.006 A 
ENDROOT
BRANCH   4   5
ATOM      5  C   UNL     1      -6.588  14.243  19.603  0.00  0.00    +0.075 A 
ATOM      6  N   UNL     1      -7.693  15.022  19.345  0.00  0.00    -0.211 N 
ATOM      7  N   UNL     1      -9.025  14.843  19.688  0.00  0.00    -0.128 NA
ATOM      8  C   UNL     1      -9.676  15.896  19.187  0.00  0.00    +0.242 A 
ATOM      9  N   UNL     1      -8.818  16.700  18.530  0.00  0.00    -0.194 NA
ATOM     10  N   UNL     1     -11.090  16.148  19.236  0.00  0.00    -0.253 N 
ATOM     11  H   UNL     1     -11.451  15.983  18.242  0.00  0.00    +0.158 HD
ATOM     12  C   UNL     1     -11.996  15.440  20.106  0.00  0.00    +0.223 C 
ATOM     13  O   UNL     1     -11.604  14.628  20.882  0.00  0.00    -0.275 OA
ATOM     17  C   UNL     1      -7.582  16.147  18.641  0.00  0.00    +0.158 A 
ATOM     18  C   UNL     1      -6.318  16.587  18.140  0.00  0.00    +0.048 A 
ATOM     19  C   UNL     1      -5.206  15.818  18.403  0.00  0.00    +0.006 A 
ATOM     20  C   UNL     1      -5.342  14.650  19.134  0.00  0.00    +0.028 A 
BRANCH  12  14
ATOM     14  C   UNL     1     -13.475  15.831  19.954  0.00  0.00    +0.075 C 
ATOM     15  C   UNL     1     -14.434  14.659  20.127  0.00  0.00    +0.013 C 
ATOM     16  C   UNL     1     -14.336  15.748  21.213  0.00  0.00    +0.013 C 
ENDBRANCH  12  14
ENDBRANCH   4   5
BRANCH   1  23
ATOM     23  C   UNL     1      -6.932   9.328  22.869  0.00  0.00    +0.139 C 
BRANCH  23  24
ATOM     24  N   UNL     1      -8.019   9.039  23.080  0.00  0.00    -0.329 N 
ATOM     25  C   UNL     1      -8.599   8.339  21.854  0.00  0.00    +0.087 C 
ATOM     26  C   UNL     1      -9.958   7.633  22.020  0.00  0.00    +0.117 C 
ATOM     27  S   UNL     1     -10.169   6.767  23.400  0.00  0.00    -0.172 S 
ATOM     32  C   UNL     1      -9.497   7.586  24.664  0.00  0.00    +0.157 C 
ATOM     33  C   UNL     1      -8.133   8.256  24.396  0.00  0.00    +0.126 C 
BRANCH  27  28
ATOM     28  O   UNL     1      -9.441   5.494  23.241  0.00  0.00    -0.294 OA
ATOM     29  H   UNL     1      -9.827   4.970  22.417  0.00  0.00    +0.240 HD
ENDBRANCH  27  28
BRANCH  27  30
ATOM     30  O   UNL     1     -11.619   6.684  23.635  0.00  0.00    -0.294 OA
ATOM     31  H   UNL     1     -12.013   7.652  23.740  0.00  0.00    +0.240 HD
ENDBRANCH  27  30
ENDBRANCH  23  24
ENDBRANCH   1  23
TORSDOF 6
