REMARK  Name = 4RVL
REMARK  3 active torsions:
REMARK  status: ('A' for Active; 'I' for Inactive)
REMARK    1  A    between atoms: C_2  and  C_3
REMARK    2  A    between atoms: C_15  and  C_16
REMARK    3  A    between atoms: C_21  and  O_22
REMARK                            x       y       z     vdW  Elec       q    Type
REMARK                         _______ _______ _______ _____ _____    ______ ____
ROOT
ATOM      3  C   UNL     1       8.048   7.468  16.695  0.00  0.00    +0.189 C 
ATOM      4  C   UNL     1       6.695   7.351  17.075  0.00  0.00    +0.087 C 
ATOM      5  C   UNL     1       6.171   8.324  17.936  0.00  0.00    -0.006 A 
ATOM      6  C   UNL     1       4.906   8.487  18.484  0.00  0.00    +0.025 A 
ATOM      7  C   UNL     1       3.703   7.769  18.395  0.00  0.00    +0.022 A 
ATOM      8  C   UNL     1       2.590   8.264  19.125  0.00  0.00    +0.004 A 
ATOM     17  C   UNL     1       2.744   9.442  19.865  0.00  0.00    +0.121 A 
ATOM     18  N   UNL     1       3.908  10.103  19.931  0.00  0.00    -0.235 NA
ATOM     19  C   UNL     1       4.963   9.628  19.250  0.00  0.00    +0.161 A 
ATOM     20  N   UNL     1       6.219  10.152  19.192  0.00  0.00    -0.226 NA
ATOM     21  C   UNL     1       6.981   9.362  18.388  0.00  0.00    +0.088 A 
ATOM     22  C   UNL     1       8.300   9.433  17.970  0.00  0.00    +0.135 C 
ATOM     23  N   UNL     1       8.792   8.507  17.136  0.00  0.00    -0.264 NA
ENDROOT
BRANCH   8   9
ATOM      9  C   UNL     1       1.217   7.662  19.112  0.00  0.00    +0.025 A 
ATOM     10  C   UNL     1       0.757   6.953  17.996  0.00  0.00    +0.125 A 
ATOM     13  C   UNL     1      -0.533   6.417  17.970  0.00  0.00    +0.046 A 
ATOM     14  C   UNL     1      -1.395   6.613  19.048  0.00  0.00    +0.004 A 
ATOM     15  C   UNL     1      -0.963   7.340  20.151  0.00  0.00    +0.001 A 
ATOM     16  C   UNL     1       0.325   7.869  20.182  0.00  0.00    +0.012 A 
BRANCH  10  11
ATOM     11  O   UNL     1       1.560   6.721  16.919  0.00  0.00    -0.506 OA
ATOM     12  H   UNL     1       1.870   7.637  16.509  0.00  0.00    +0.292 HD
ENDBRANCH  10  11
ENDBRANCH   8   9
BRANCH   3   2
ATOM      1  N   UNL     1       9.250   5.960  15.167  0.00  0.00    -0.194 NA
ATOM      2  C   UNL     1       8.628   6.634  15.891  0.00  0.00    +0.097 C 
ENDBRANCH   3   2
TORSDOF 3
