REMARK  Name = EB5
REMARK  4 active torsions:
REMARK  status: ('A' for Active; 'I' for Inactive)
REMARK    1  A    between atoms: CAT_2  and  NAS_3
REMARK    2  A    between atoms: NAS_3  and  SAP_4
REMARK    3  A    between atoms: SAP_4  and  CAC_7
REMARK    4  A    between atoms: NAK_19  and  CAM_20
REMARK                            x       y       z     vdW  Elec       q    Type
REMARK                         _______ _______ _______ _____ _____    ______ ____
ROOT
ATOM      5  C   UNL     1      -9.814   7.842  -1.574  0.00  0.00    +0.124 A 
ATOM      6  C   UNL     1      -9.253   7.194  -0.462  0.00  0.00    +0.021 A 
ATOM      7  C   UNL     1     -10.085   6.476   0.417  0.00  0.00    +0.019 A 
ATOM      8  C   UNL     1     -11.411   6.415   0.190  0.00  0.00    +0.063 A 
ATOM      9  N   UNL     1     -12.412   5.791   0.826  0.00  0.00    -0.295 N 
ATOM     12  C   UNL     1     -13.535   6.049   0.144  0.00  0.00    +0.261 A 
ATOM     13  O   UNL     1     -14.619   5.518   0.391  0.00  0.00    -0.267 OA
ATOM     14  C   UNL     1     -13.259   6.835  -0.924  0.00  0.00    +0.058 A 
ATOM     15  C   UNL     1     -13.954   7.365  -1.937  0.00  0.00    +0.005 A 
ATOM     16  C   UNL     1     -13.298   8.122  -2.939  0.00  0.00    +0.000 A 
ATOM     17  C   UNL     1     -11.906   8.317  -2.864  0.00  0.00    +0.001 A 
ATOM     18  C   UNL     1     -11.932   7.024  -0.889  0.00  0.00    +0.022 A 
ATOM     19  C   UNL     1     -11.215   7.732  -1.794  0.00  0.00    +0.020 A 
ENDROOT
BRANCH   5   4
ATOM      4  S   UNL     1      -8.672   8.696  -2.722  0.00  0.00    +0.077 S 
ATOM     20  O   UNL     1      -7.248   8.657  -2.110  0.00  0.00    -0.152 OA
ATOM     21  O   UNL     1      -9.130  10.125  -3.052  0.00  0.00    -0.152 OA
BRANCH   4   3
ATOM      3  N   UNL     1      -8.853   7.743  -4.191  0.00  0.00    -0.078 NA
BRANCH   3   2
ATOM      1  C   UNL     1      -8.879   5.681  -5.354  0.00  0.00    +0.022 C 
ATOM      2  C   UNL     1      -8.219   6.408  -4.215  0.00  0.00    +0.116 C 
ENDBRANCH   3   2
ENDBRANCH   4   3
ENDBRANCH   5   4
BRANCH   9  10
ATOM     10  C   UNL     1     -12.260   4.922   1.964  0.00  0.00    +0.109 C 
ATOM     11  C   UNL     1     -12.004   3.486   1.489  0.00  0.00    +0.027 C 
ENDBRANCH   9  10
TORSDOF 4
