REMARK  Name = 9X4
REMARK  5 active torsions:
REMARK  status: ('A' for Active; 'I' for Inactive)
REMARK    1  A    between atoms: C5_2  and  C7_4
REMARK    2  A    between atoms: C11_3  and  C12_8
REMARK    3  A    between atoms: C7_4  and  C10_7
REMARK    4  A    between atoms: C20_20  and  C31_31
REMARK    5  A    between atoms: C21_21  and  C27_27
REMARK                            x       y       z     vdW  Elec       q    Type
REMARK                         _______ _______ _______ _____ _____    ______ ____
ROOT
ATOM      1  C   UNL     1     -18.282  -7.265  25.084  0.00  0.00    -0.004 A 
ATOM      2  C   UNL     1     -18.754  -8.227  25.960  0.00  0.00    +0.008 A 
ATOM      3  C   UNL     1     -18.272  -8.276  27.269  0.00  0.00    +0.042 A 
ATOM     15  C   UNL     1     -17.327  -7.341  27.692  0.00  0.00    +0.011 A 
ATOM     16  C   UNL     1     -16.855  -6.367  26.800  0.00  0.00    +0.031 A 
ATOM     17  C   UNL     1     -15.874  -5.430  27.418  0.00  0.00    +0.144 A 
ATOM     18  N   UNL     1     -15.502  -5.646  28.663  0.00  0.00    -0.222 NA
ATOM     19  C   UNL     1     -14.611  -4.630  28.990  0.00  0.00    +0.160 A 
ATOM     23  C   UNL     1     -14.447  -3.765  27.916  0.00  0.00    +0.139 A 
ATOM     28  N   UNL     1     -15.266  -4.315  26.869  0.00  0.00    -0.310 N 
ATOM     29  C   UNL     1     -15.425  -3.886  25.457  0.00  0.00    +0.088 C 
ATOM     30  C   UNL     1     -16.907  -3.802  25.025  0.00  0.00    +0.027 C 
ATOM     31  C   UNL     1     -16.875  -5.269  24.491  0.00  0.00    +0.026 C 
ATOM     32  C   UNL     1     -15.324  -5.080  24.469  0.00  0.00    +0.027 C 
ATOM     33  C   UNL     1     -17.334  -6.323  25.481  0.00  0.00    -0.019 A 
ENDROOT
BRANCH  23  24
ATOM     24  C   UNL     1     -13.694  -2.510  27.617  0.00  0.00    +0.282 C 
ATOM     25  N   UNL     1     -12.887  -2.040  28.562  0.00  0.00    -0.199 NA
ATOM     26  C   UNL     1     -12.196  -0.771  28.422  0.00  0.00    +0.139 C 
ATOM     27  O   UNL     1     -13.824  -1.928  26.539  0.00  0.00    -0.267 OA
ENDBRANCH  23  24
BRANCH  19  20
ATOM     20  C   UNL     1     -13.893  -4.681  30.269  0.00  0.00    +0.303 C 
ATOM     21  N   UNL     1     -14.091  -5.770  30.999  0.00  0.00    -0.082 NA
ATOM     22  O   UNL     1     -13.171  -3.741  30.643  0.00  0.00    -0.265 OA
ENDBRANCH  19  20
BRANCH   3   4
ATOM      4  C   UNL     1     -18.717  -9.303  28.171  0.00  0.00    -0.064 C 
ATOM      5  C   UNL     1     -19.053 -10.125  28.967  0.00  0.00    -0.079 C 
BRANCH   5   6
ATOM      6  C   UNL     1     -19.444 -11.060  30.026  0.00  0.00    +0.123 C 
ATOM      7  C   UNL     1     -20.240 -10.334  31.142  0.00  0.00    +0.022 C 
ATOM     14  C   UNL     1     -20.339 -12.136  29.443  0.00  0.00    +0.022 C 
BRANCH   6   8
ATOM      8  C   UNL     1     -18.197 -11.689  30.596  0.00  0.00    +0.216 A 
ATOM      9  O   UNL     1     -18.243 -12.190  31.875  0.00  0.00    -0.442 OA
ATOM     10  C   UNL     1     -16.966 -12.661  32.077  0.00  0.00    +0.144 A 
ATOM     11  C   UNL     1     -16.689 -13.225  33.423  0.00  0.00    +0.074 C 
ATOM     12  C   UNL     1     -16.268 -12.435  30.949  0.00  0.00    +0.135 A 
ATOM     13  N   UNL     1     -17.058 -11.811  30.016  0.00  0.00    -0.210 NA
ENDBRANCH   6   8
ENDBRANCH   5   6
ENDBRANCH   3   4
TORSDOF 5
