REMARK  Name = 4L7S
REMARK  7 active torsions:
REMARK  status: ('A' for Active; 'I' for Inactive)
REMARK    1  A    between atoms: C_1  and  O_2
REMARK    2  A    between atoms: O_2  and  C_3
REMARK    3  A    between atoms: N_9  and  C_10
REMARK    4  A    between atoms: C_12  and  C_24
REMARK    5  A    between atoms: N_15  and  C_16
REMARK    6  A    between atoms: C_19  and  O_20
REMARK    7  A    between atoms: C_24  and  C_27
REMARK                            x       y       z     vdW  Elec       q    Type
REMARK                         _______ _______ _______ _____ _____    ______ ____
ROOT
ATOM      9  C   UNL     1      28.962   8.125  26.681  0.00  0.00    +0.161 A 
ATOM     10  N   UNL     1      29.547   9.069  25.935  0.00  0.00    -0.193 NA
ATOM     11  C   UNL     1      30.325   9.945  26.613  0.00  0.00    +0.226 A 
ATOM     12  N   UNL     1      30.918  10.922  25.902  0.00  0.00    -0.247 NA
ATOM     21  N   UNL     1      30.574   9.939  27.928  0.00  0.00    -0.323 N 
ATOM     22  H   UNL     1      31.206  10.667  28.392  0.00  0.00    +0.169 HD
ATOM     23  C   UNL     1      29.981   8.964  28.624  0.00  0.00    +0.096 A 
ATOM     34  C   UNL     1      29.132   8.015  28.062  0.00  0.00    +0.075 A 
ENDROOT
BRANCH   9   8
ATOM      3  C   UNL     1      27.119   7.357  20.161  0.00  0.00    +0.216 A 
ATOM      4  N   UNL     1      27.760   8.092  21.058  0.00  0.00    -0.204 NA
ATOM      5  C   UNL     1      27.694   7.636  22.303  0.00  0.00    +0.131 A 
ATOM      6  S   UNL     1      28.513   8.444  23.596  0.00  0.00    -0.030 S 
ATOM      7  C   UNL     1      27.903   7.179  24.655  0.00  0.00    +0.175 A 
ATOM      8  N   UNL     1      28.180   7.218  25.969  0.00  0.00    -0.204 NA
ATOM     35  N   UNL     1      27.196   6.225  24.112  0.00  0.00    -0.332 N 
ATOM     36  H   UNL     1      26.790   5.381  24.630  0.00  0.00    +0.168 HD
ATOM     37  C   UNL     1      27.054   6.481  22.749  0.00  0.00    +0.074 A 
ATOM     38  C   UNL     1      26.403   5.738  21.765  0.00  0.00    +0.033 A 
ATOM     39  C   UNL     1      26.411   6.186  20.453  0.00  0.00    +0.069 A 
BRANCH   3   2
ATOM      1  C   UNL     1      27.261   6.850  17.843  0.00  0.00    +0.278 C 
ATOM      2  O   UNL     1      27.104   7.799  18.886  0.00  0.00    -0.480 OA
ENDBRANCH   3   2
ENDBRANCH   9   8
BRANCH  12  13
ATOM     13  C   UNL     1      30.825  11.045  24.451  0.00  0.00    +0.109 C 
ATOM     14  C   UNL     1      31.144  12.454  24.018  0.00  0.00    +0.029 C 
ATOM     15  C   UNL     1      31.103  12.595  22.501  0.00  0.00    +0.033 C 
ATOM     16  C   UNL     1      32.056  11.637  21.840  0.00  0.00    +0.115 C 
ATOM     19  C   UNL     1      31.732  10.214  22.249  0.00  0.00    +0.033 C 
ATOM     20  C   UNL     1      31.753  10.055  23.772  0.00  0.00    +0.029 C 
BRANCH  16  17
ATOM     17  O   UNL     1      31.969  11.789  20.426  0.00  0.00    -0.392 OA
ATOM     18  H   UNL     1      32.651  11.140  19.961  0.00  0.00    +0.210 HD
ENDBRANCH  16  17
ENDBRANCH  12  13
BRANCH  23  24
ATOM     24  C   UNL     1      30.246   8.969  30.113  0.00  0.00    +0.314 C 
ATOM     32  F   UNL     1      29.924  10.181  30.624  0.00  0.00    -0.193 F 
ATOM     33  F   UNL     1      29.320   8.051  30.835  0.00  0.00    -0.193 F 
BRANCH  24  25
ATOM     25  C   UNL     1      31.710   8.812  30.471  0.00  0.00    +0.027 A 
ATOM     26  C   UNL     1      32.620   9.831  30.203  0.00  0.00    +0.013 A 
ATOM     27  C   UNL     1      33.963   9.705  30.529  0.00  0.00    +0.039 A 
ATOM     28  C   UNL     1      34.379   8.544  31.130  0.00  0.00    +0.123 A 
ATOM     29  F   UNL     1      35.700   8.404  31.441  0.00  0.00    -0.205 F 
ATOM     30  C   UNL     1      33.524   7.517  31.423  0.00  0.00    +0.039 A 
ATOM     31  C   UNL     1      32.186   7.661  31.091  0.00  0.00    +0.013 A 
ENDBRANCH  24  25
ENDBRANCH  23  24
TORSDOF 6
