REMARK  Name = 2X7F
REMARK  2 active torsions:
REMARK  status: ('A' for Active; 'I' for Inactive)
REMARK    1  A    between atoms: O_1  and  C_2
REMARK    2  A    between atoms: C_18  and  C_20
REMARK                            x       y       z     vdW  Elec       q    Type
REMARK                         _______ _______ _______ _____ _____    ______ ____
ROOT
ATOM      3  C   UNL     1      25.572  -9.896  55.484  0.00  0.00    +0.118 C 
ATOM      4  C   UNL     1      25.637  -8.761  56.518  0.00  0.00    +0.056 C 
ATOM      5  C   UNL     1      26.574  -7.651  56.101  0.00  0.00    +0.014 C 
ATOM      6  C   UNL     1      26.949  -6.419  56.696  0.00  0.00    +0.023 C 
ATOM      7  C   UNL     1      26.542  -5.814  57.873  0.00  0.00    +0.062 C 
ATOM      8  C   UNL     1      27.085  -4.507  58.188  0.00  0.00    +0.060 C 
ATOM      9  C   UNL     1      28.051  -3.938  57.254  0.00  0.00    -0.003 C 
ATOM     16  C   UNL     1      28.418  -4.634  56.027  0.00  0.00    +0.037 C 
ATOM     17  C   UNL     1      26.471  -4.202  59.357  0.00  0.00    +0.260 C 
ATOM     18  N   UNL     1      25.594  -5.135  59.795  0.00  0.00    -0.289 N 
ATOM     19  H   UNL     1      24.977  -5.111  60.669  0.00  0.00    +0.172 HD
ATOM     20  O   UNL     1      26.566  -3.243  59.959  0.00  0.00    -0.267 OA
ATOM     21  C   UNL     1      25.689  -6.100  58.863  0.00  0.00    +0.260 C 
ATOM     22  O   UNL     1      25.096  -7.015  58.989  0.00  0.00    -0.267 OA
ATOM     23  C   UNL     1      27.879  -5.848  55.750  0.00  0.00    +0.074 C 
ATOM     24  N   UNL     1      28.115  -6.607  54.694  0.00  0.00    -0.247 NA
ATOM     25  C   UNL     1      27.370  -7.712  54.782  0.00  0.00    +0.072 C 
ATOM     26  C   UNL     1      27.162  -8.897  53.924  0.00  0.00    +0.032 C 
ATOM     27  C   UNL     1      26.273  -9.928  54.309  0.00  0.00    +0.047 C 
ENDROOT
BRANCH   9  10
ATOM     10  C   UNL     1      28.753  -2.731  57.405  0.00  0.00    -0.017 A 
ATOM     11  C   UNL     1      29.314  -2.630  58.794  0.00  0.00    +0.008 A 
ATOM     12  C   UNL     1      30.049  -1.449  59.234  0.00  0.00    +0.001 A 
ATOM     13  C   UNL     1      30.236  -0.436  58.266  0.00  0.00    +0.000 A 
ATOM     14  C   UNL     1      29.731  -0.586  57.002  0.00  0.00    +0.001 A 
ATOM     15  C   UNL     1      29.009  -1.700  56.561  0.00  0.00    +0.008 A 
ENDBRANCH   9  10
BRANCH   3   1
ATOM      1  O   UNL     1      24.730 -10.986  55.740  0.00  0.00    -0.507 OA
ATOM      2  H   UNL     1      24.010 -11.059  54.979  0.00  0.00    +0.292 HD
ENDBRANCH   3   1
TORSDOF 2
