REMARK  Name = 3r9o_ligand
REMARK  6 active torsions:
REMARK  status: ('A' for Active; 'I' for Inactive)
REMARK    1  A    between atoms: C1_1  and  C6_6
REMARK    2  A    between atoms: C2_2  and  N7_7
REMARK    3  A    between atoms: N8_8  and  C13_13
REMARK    4  A    between atoms: C10_10  and  S16_16
REMARK    5  A    between atoms: S16_16  and  N18_18
REMARK    6  A    between atoms: N20_20  and  C24_24
REMARK                            x       y       z     vdW  Elec       q    Type
REMARK                         _______ _______ _______ _____ _____    ______ ____
ROOT
ATOM      1  C   UNL     1     -67.038 -80.791 -13.938  0.00  0.00    +0.113 A 
ATOM     14  S   UNL     1     -66.063 -80.945 -12.474  0.00  0.00    +0.011 S 
ATOM     15  C   UNL     1     -64.981 -82.013 -13.398  0.00  0.00    +0.203 A 
ATOM     16  N   UNL     1     -63.817 -82.564 -12.912  0.00  0.00    -0.233 N 
ATOM     17  H   UNL     1     -63.374 -83.195 -13.595  0.00  0.00    +0.224 HD
ATOM     30  N   UNL     1     -65.360 -82.221 -14.646  0.00  0.00    -0.273 NA
ATOM     31  C   UNL     1     -66.518 -81.533 -14.969  0.00  0.00    +0.085 A 
ENDROOT
BRANCH  16  18
ATOM     18  C   UNL     1     -63.124 -82.486 -11.787  0.00  0.00    +0.070 A 
ATOM     19  C   UNL     1     -63.277 -81.336 -10.925  0.00  0.00    +0.019 A 
ATOM     20  C   UNL     1     -62.485 -81.195  -9.772  0.00  0.00    +0.016 A 
ATOM     21  C   UNL     1     -61.527 -82.201  -9.474  0.00  0.00    +0.097 A 
ATOM     28  C   UNL     1     -61.365 -83.359 -10.310  0.00  0.00    +0.016 A 
ATOM     29  C   UNL     1     -62.163 -83.502 -11.470  0.00  0.00    +0.019 A 
BRANCH  21  22
ATOM     22  S   UNL     1     -60.494 -81.997  -8.068  0.00  0.00    +0.061 S 
ATOM     23  O   UNL     1     -60.126 -83.366  -7.615  0.00  0.00    -0.152 OA
ATOM     27  O   UNL     1     -59.426 -81.074  -8.464  0.00  0.00    -0.152 OA
BRANCH  22  24
ATOM     24  N   UNL     1     -61.436 -81.267  -6.851  0.00  0.00    -0.262 NA
ATOM     25  H   UNL     1     -62.394 -81.043  -7.027  0.00  0.00    +0.163 HD
ATOM     26  H   UNL     1     -61.031 -81.063  -5.960  0.00  0.00    +0.163 HD
ENDBRANCH  22  24
ENDBRANCH  21  22
ENDBRANCH  16  18
BRANCH   1   2
ATOM      2  C   UNL     1     -68.242 -79.924 -13.924  0.00  0.00    +0.203 C 
ATOM      3  N   UNL     1     -68.589 -79.342 -12.750  0.00  0.00    -0.244 N 
ATOM      4  H   UNL     1     -67.996 -79.541 -11.970  0.00  0.00    +0.223 HD
ATOM     13  O   UNL     1     -68.863 -79.770 -14.979  0.00  0.00    -0.403 OA
BRANCH   3   5
ATOM      5  C   UNL     1     -69.693 -78.483 -12.490  0.00  0.00    +0.060 A 
ATOM      6  C   UNL     1     -70.893 -78.486 -13.289  0.00  0.00    +0.033 A 
ATOM      7  C   UNL     1     -71.971 -77.614 -12.991  0.00  0.00    +0.117 A 
ATOM      8  F   UNL     1     -73.086 -77.638 -13.766  0.00  0.00    -0.189 F 
ATOM      9  C   UNL     1     -71.874 -76.722 -11.886  0.00  0.00    +0.036 A 
ATOM     10  C   UNL     1     -70.686 -76.706 -11.081  0.00  0.00    +0.117 A 
ATOM     11  F   UNL     1     -70.597 -75.854 -10.045  0.00  0.00    -0.189 F 
ATOM     12  C   UNL     1     -69.593 -77.585 -11.382  0.00  0.00    +0.033 A 
ENDBRANCH   3   5
ENDBRANCH   1   2
BRANCH  31  32
ATOM     32  N   UNL     1     -67.045 -81.618 -16.246  0.00  0.00    -0.333 N 
ATOM     33  H   UNL     1     -67.900 -81.096 -16.486  0.00  0.00    +0.174 HD
ATOM     34  H   UNL     1     -66.582 -82.203 -16.956  0.00  0.00    +0.174 HD
ENDBRANCH  31  32
TORSDOF 6
