REMARK  Name = 2itt_ligand
REMARK  8 active torsions:
REMARK  status: ('A' for Active; 'I' for Inactive)
REMARK    1  A    between atoms: NBF_3  and  CAN_4
REMARK    2  A    between atoms: CAN_4  and  CAA_5
REMARK    3  A    between atoms: NBG_8  and  CAS_9
REMARK    4  A    between atoms: CAS_9  and  CAX_10
REMARK    5  A    between atoms: CAY_15  and  CBA_16
REMARK    6  A    between atoms: NAV_25  and  CBE_26
REMARK    7  A    between atoms: CBE_26  and  CAB_27
REMARK    8  A    between atoms: CBE_26  and  CAZ_28
REMARK                            x       y       z     vdW  Elec       q    Type
REMARK                         _______ _______ _______ _____ _____    ______ ____
ROOT
ATOM      9  C   UNL     1     -52.266   0.458 -19.799  0.00  0.00    +0.063 A 
ATOM     10  C   UNL     1     -51.934  -0.042 -21.006  0.00  0.00    -0.011 A 
ATOM     11  C   UNL     1     -52.852   0.359 -21.917  0.00  0.00    +0.047 A 
ATOM     12  C   UNL     1     -53.056   0.151 -23.316  0.00  0.00    +0.122 A 
ATOM     13  N   UNL     1     -52.184  -0.597 -24.067  0.00  0.00    -0.288 N 
ATOM     14  H   UNL     1     -51.272  -0.847 -23.660  0.00  0.00    +0.189 HD
ATOM     23  N   UNL     1     -54.162   0.745 -23.895  0.00  0.00    -0.273 NA
ATOM     24  C   UNL     1     -55.014   1.468 -23.165  0.00  0.00    +0.148 A 
ATOM     25  N   UNL     1     -54.834   1.660 -21.851  0.00  0.00    -0.277 NA
ATOM     26  C   UNL     1     -53.783   1.140 -21.224  0.00  0.00    +0.136 A 
ATOM     27  N   UNL     1     -53.405   1.172 -19.956  0.00  0.00    -0.262 N 
ATOM     28  H   UNL     1     -53.903   1.666 -19.202  0.00  0.00    +0.228 HD
ENDROOT
BRANCH   9   8
ATOM      5  C   UNL     1     -50.428  -0.068 -15.983  0.00  0.00    +0.002 A 
ATOM      6  C   UNL     1     -49.962  -0.793 -17.102  0.00  0.00    +0.001 A 
ATOM      7  C   UNL     1     -50.553  -0.636 -18.370  0.00  0.00    +0.002 A 
ATOM      8  C   UNL     1     -51.617   0.277 -18.550  0.00  0.00    -0.002 A 
ATOM     29  C   UNL     1     -52.086   0.979 -17.407  0.00  0.00    +0.002 A 
ATOM     30  C   UNL     1     -51.502   0.820 -16.141  0.00  0.00    +0.001 A 
BRANCH   5   4
ATOM      4  C   UNL     1     -49.786  -0.256 -14.578  0.00  0.00    +0.199 C 
BRANCH   4   2
ATOM      1  C   UNL     1     -50.721  -0.781 -12.297  0.00  0.00    +0.185 C 
ATOM      2  N   UNL     1     -50.703  -1.107 -13.763  0.00  0.00    +0.255 N 
ATOM      3  H   UNL     1     -51.631  -0.890 -14.090  0.00  0.00    +0.205 HD
ATOM     31  C   UNL     1     -50.503  -2.564 -14.051  0.00  0.00    +0.185 C 
ATOM     32  C   UNL     1     -49.303  -3.160 -13.278  0.00  0.00    +0.183 C 
ATOM     33  N   UNL     1     -49.439  -2.918 -11.818  0.00  0.00    +0.242 N 
ATOM     34  H   UNL     1     -48.582  -3.231 -11.389  0.00  0.00    +0.204 HD
ATOM     37  C   UNL     1     -49.581  -1.472 -11.486  0.00  0.00    +0.183 C 
BRANCH  33  35
ATOM     35  C   UNL     1     -50.542  -3.735 -11.233  0.00  0.00    +0.128 C 
ATOM     36  C   UNL     1     -50.045  -4.456  -9.962  0.00  0.00    +0.060 C 
ENDBRANCH  33  35
ENDBRANCH   4   2
ENDBRANCH   5   4
ENDBRANCH   9   8
BRANCH  13  15
ATOM     15  C   UNL     1     -52.500  -1.062 -25.443  0.00  0.00    +0.145 C 
ATOM     22  C   UNL     1     -51.583  -2.200 -25.918  0.00  0.00    +0.051 C 
BRANCH  15  16
ATOM     16  C   UNL     1     -52.443   0.108 -26.451  0.00  0.00    -0.018 A 
ATOM     17  C   UNL     1     -52.882  -0.084 -27.773  0.00  0.00    -0.002 A 
ATOM     18  C   UNL     1     -52.835   0.993 -28.675  0.00  0.00    -0.009 A 
ATOM     19  C   UNL     1     -52.362   2.261 -28.271  0.00  0.00    -0.013 A 
ATOM     20  C   UNL     1     -51.923   2.462 -26.948  0.00  0.00    -0.009 A 
ATOM     21  C   UNL     1     -51.965   1.376 -26.054  0.00  0.00    -0.002 A 
ENDBRANCH  15  16
ENDBRANCH  13  15
TORSDOF 6
