REMARK  Name = 4D2S
REMARK  7 active torsions:
REMARK  status: ('A' for Active; 'I' for Inactive)
REMARK    1  A    between atoms: C_1  and  N_2
REMARK    2  A    between atoms: O_3  and  C_9
REMARK    3  A    between atoms: O_3  and  C_15
REMARK    4  A    between atoms: N_5  and  C_18
REMARK    5  A    between atoms: O_6  and  C_19
REMARK    6  A    between atoms: O_6  and  C_21
REMARK    7  A    between atoms: C_25  and  C_26
REMARK                            x       y       z     vdW  Elec       q    Type
REMARK                         _______ _______ _______ _____ _____    ______ ____
ROOT
ATOM     13  N   UNL     1      -6.142  24.157   0.358  0.00  0.00    -0.209 NA
ATOM     14  C   UNL     1      -7.274  24.436  -0.355  0.00  0.00    +0.229 A 
ATOM     15  N   UNL     1      -7.852  23.363  -0.929  0.00  0.00    -0.212 NA
ATOM     16  C   UNL     1      -8.961  23.588  -1.649  0.00  0.00    +0.078 A 
ATOM     26  C   UNL     1      -9.495  24.862  -1.799  0.00  0.00    +0.046 A 
ATOM     27  C   UNL     1      -8.821  25.893  -1.171  0.00  0.00    +0.088 A 
ATOM     28  N   UNL     1      -7.708  25.710  -0.436  0.00  0.00    -0.331 N 
ATOM     29  H   UNL     1      -7.203  26.519   0.050  0.00  0.00    +0.168 HD
ENDROOT
BRANCH  16  17
ATOM     17  C   UNL     1      -9.584  22.407  -2.265  0.00  0.00    +0.028 A 
ATOM     18  C   UNL     1     -10.860  22.334  -2.976  0.00  0.00    +0.014 A 
ATOM     19  C   UNL     1     -11.852  23.252  -3.310  0.00  0.00    +0.030 A 
ATOM     20  C   UNL     1     -12.950  22.782  -4.019  0.00  0.00    +0.111 A 
ATOM     21  N   UNL     1     -13.120  21.504  -4.395  0.00  0.00    -0.261 NA
ATOM     22  C   UNL     1     -12.164  20.618  -4.076  0.00  0.00    +0.139 A 
ATOM     23  C   UNL     1     -11.025  20.991  -3.368  0.00  0.00    +0.090 A 
ATOM     24  N   UNL     1      -9.923  20.286  -2.934  0.00  0.00    -0.253 NA
ATOM     25  C   UNL     1      -9.071  21.133  -2.278  0.00  0.00    +0.122 A 
ENDBRANCH  16  17
BRANCH  13  11
ATOM      8  C   UNL     1      -4.328  20.408   0.907  0.00  0.00    +0.125 A 
ATOM      9  C   UNL     1      -3.537  21.542   0.777  0.00  0.00    +0.093 A 
ATOM     10  C   UNL     1      -4.146  22.774   0.575  0.00  0.00    +0.149 A 
ATOM     11  C   UNL     1      -5.558  22.879   0.539  0.00  0.00    +0.109 A 
ATOM     12  C   UNL     1      -6.327  21.727   0.720  0.00  0.00    +0.035 A 
ATOM     32  C   UNL     1      -5.716  20.498   0.889  0.00  0.00    +0.048 A 
BRANCH  10  30
ATOM     30  O   UNL     1      -3.478  23.960   0.426  0.00  0.00    -0.493 OA
ATOM     31  C   UNL     1      -2.061  23.964   0.614  0.00  0.00    +0.277 C 
ENDBRANCH  10  30
BRANCH   8   7
ATOM      7  O   UNL     1      -3.727  19.178   1.078  0.00  0.00    -0.489 OA
BRANCH   7   5
ATOM      1  C   UNL     1      -3.625  14.381   1.230  0.00  0.00    +0.105 C 
ATOM      2  N   UNL     1      -3.583  15.574   0.390  0.00  0.00    -0.305 NA
ATOM      3  C   UNL     1      -2.411  16.391   0.708  0.00  0.00    +0.087 C 
ATOM      4  C   UNL     1      -2.304  17.595  -0.234  0.00  0.00    +0.060 C 
ATOM      5  C   UNL     1      -3.574  18.420  -0.181  0.00  0.00    +0.176 C 
ATOM      6  C   UNL     1      -4.810  17.566  -0.387  0.00  0.00    +0.060 C 
ATOM     33  C   UNL     1      -4.797  16.369   0.563  0.00  0.00    +0.087 C 
ENDBRANCH   7   5
ENDBRANCH   8   7
ENDBRANCH  13  11
TORSDOF 5
