REMARK  Name = 4ANS
REMARK  6 active torsions:
REMARK  status: ('A' for Active; 'I' for Inactive)
REMARK    1  A    between atoms: C_7  and  C_10
REMARK    2  A    between atoms: C_10  and  C_11
REMARK    3  A    between atoms: C_10  and  O_12
REMARK    4  A    between atoms: O_12  and  C_13
REMARK    5  A    between atoms: C_19  and  C_20
REMARK    6  A    between atoms: N_23  and  C_25
REMARK                            x       y       z     vdW  Elec       q    Type
REMARK                         _______ _______ _______ _____ _____    ______ ____
ROOT
ATOM      6  C   UNL     1      29.771  44.768   8.893  0.00  0.00    +0.161 A 
ATOM      7  C   UNL     1      28.727  44.481   9.838  0.00  0.00    +0.158 A 
ATOM      8  N   UNL     1      27.663  45.298  10.078  0.00  0.00    -0.236 NA
ATOM      9  C   UNL     1      27.571  46.473   9.377  0.00  0.00    +0.121 A 
ATOM     10  C   UNL     1      28.537  46.890   8.404  0.00  0.00    +0.007 A 
ATOM     23  N   UNL     1      28.786  43.279  10.574  0.00  0.00    -0.340 N 
ATOM     24  H   UNL     1      28.018  43.047  11.282  0.00  0.00    +0.144 HD
ATOM     25  H   UNL     1      29.599  42.599  10.424  0.00  0.00    +0.144 HD
ATOM     26  C   UNL     1      29.642  46.006   8.175  0.00  0.00    +0.059 A 
ENDROOT
BRANCH  10  11
ATOM     11  C   UNL     1      28.428  48.197   7.627  0.00  0.00    +0.021 A 
ATOM     12  C   UNL     1      27.331  49.053   7.515  0.00  0.00    +0.117 A 
ATOM     13  N   UNL     1      27.799  50.094   6.677  0.00  0.00    -0.268 N 
ATOM     21  N   UNL     1      29.019  49.918   6.313  0.00  0.00    -0.179 NA
ATOM     22  C   UNL     1      29.474  48.832   6.820  0.00  0.00    +0.143 A 
BRANCH  13  14
ATOM     14  C   UNL     1      27.027  51.281   6.227  0.00  0.00    +0.110 C 
ATOM     15  C   UNL     1      25.689  50.860   5.576  0.00  0.00    +0.042 C 
ATOM     16  C   UNL     1      24.921  52.123   5.122  0.00  0.00    +0.083 C 
ATOM     17  N   UNL     1      24.713  53.095   6.235  0.00  0.00    -0.316 NA
ATOM     18  H   UNL     1      24.260  53.978   5.836  0.00  0.00    +0.122 HD
ATOM     19  C   UNL     1      25.983  53.478   6.916  0.00  0.00    +0.083 C 
ATOM     20  C   UNL     1      26.784  52.247   7.408  0.00  0.00    +0.042 C 
ENDBRANCH  13  14
ENDBRANCH  10  11
BRANCH   6   5
ATOM      5  O   UNL     1      30.805  43.832   8.720  0.00  0.00    -0.481 OA
BRANCH   5   4
ATOM      4  C   UNL     1      32.085  44.064   8.026  0.00  0.00    +0.204 C 
ATOM     27  C   UNL     1      32.802  42.702   8.021  0.00  0.00    +0.057 C 
BRANCH   4   3
ATOM      1 CL   UNL     1      32.794  46.636   6.262  0.00  0.00    -0.083 Cl
ATOM      2  C   UNL     1      33.344  46.365   7.887  0.00  0.00    +0.049 A 
ATOM      3  C   UNL     1      33.000  45.180   8.666  0.00  0.00    +0.032 A 
ATOM     28  C   UNL     1      33.537  45.079  10.034  0.00  0.00    +0.084 A 
ATOM     29 CL   UNL     1      33.217  43.723  11.098  0.00  0.00    -0.080 Cl
ATOM     30  C   UNL     1      34.372  46.131  10.559  0.00  0.00    +0.142 A 
ATOM     31  F   UNL     1      34.874  46.062  11.797  0.00  0.00    -0.204 F 
ATOM     32  C   UNL     1      34.681  47.267   9.765  0.00  0.00    +0.041 A 
ATOM     33  C   UNL     1      34.173  47.381   8.448  0.00  0.00    +0.023 A 
ENDBRANCH   4   3
ENDBRANCH   5   4
ENDBRANCH   6   5
TORSDOF 5
