REMARK  Name = 4QMV
REMARK  7 active torsions:
REMARK  status: ('A' for Active; 'I' for Inactive)
REMARK    1  A    between atoms: C_1  and  C_2
REMARK    2  A    between atoms: N_4  and  C_5
REMARK    3  A    between atoms: C_5  and  C_6
REMARK    4  A    between atoms: C_17  and  N_19
REMARK    5  A    between atoms: C_23  and  C_31
REMARK    6  A    between atoms: C_24  and  N_26
REMARK    7  A    between atoms: N_26  and  C_27
REMARK                            x       y       z     vdW  Elec       q    Type
REMARK                         _______ _______ _______ _____ _____    ______ ____
ROOT
ATOM      6  C   UNL     1      33.038   2.115  71.144  0.00  0.00    +0.234 C 
ATOM      7  N   UNL     1      31.781   1.973  70.590  0.00  0.00    -0.286 N 
ATOM      8  C   UNL     1      31.311   1.021  69.634  0.00  0.00    +0.107 C 
ATOM      9  C   UNL     1      30.361   0.448  70.613  0.00  0.00    -0.020 A 
ATOM     10  C   UNL     1      29.914  -0.860  70.827  0.00  0.00    +0.033 A 
ATOM     11  C   UNL     1      28.987  -1.099  71.866  0.00  0.00    +0.068 A 
ATOM     30  C   UNL     1      28.510  -0.013  72.643  0.00  0.00    +0.028 A 
ATOM     31  C   UNL     1      28.961   1.309  72.425  0.00  0.00    +0.008 A 
ATOM     32  C   UNL     1      29.898   1.507  71.400  0.00  0.00    -0.022 A 
ATOM     33  C   UNL     1      30.595   1.912  68.571  0.00  0.00    +0.029 C 
ATOM     34  C   UNL     1      30.044   3.069  69.452  0.00  0.00    +0.029 C 
ATOM     35  C   UNL     1      30.578   2.702  70.878  0.00  0.00    +0.107 C 
ATOM     36  O   UNL     1      33.224   3.010  72.012  0.00  0.00    -0.274 OA
ENDROOT
BRANCH  11  12
ATOM     12  N   UNL     1      28.525  -2.357  72.088  0.00  0.00    -0.213 NA
ATOM     13  C   UNL     1      27.875  -2.953  73.123  0.00  0.00    +0.230 A 
ATOM     14  N   UNL     1      27.483  -2.252  74.211  0.00  0.00    -0.197 NA
ATOM     15  C   UNL     1      26.816  -2.822  75.252  0.00  0.00    +0.136 A 
ATOM     22  C   UNL     1      26.508  -4.206  75.208  0.00  0.00    +0.110 A 
ATOM     27  C   UNL     1      26.924  -4.901  74.063  0.00  0.00    +0.101 A 
ATOM     28  N   UNL     1      27.582  -4.271  73.075  0.00  0.00    -0.330 N 
ATOM     29  H   UNL     1      27.885  -4.835  72.218  0.00  0.00    +0.168 HD
BRANCH  22  23
ATOM     23  C   UNL     1      25.781  -4.943  76.272  0.00  0.00    +0.422 C 
ATOM     24  F   UNL     1      25.628  -6.259  75.939  0.00  0.00    -0.166 F 
ATOM     25  F   UNL     1      26.462  -4.891  77.449  0.00  0.00    -0.166 F 
ATOM     26  F   UNL     1      24.507  -4.455  76.474  0.00  0.00    -0.166 F 
ENDBRANCH  22  23
BRANCH  15  16
ATOM     16  N   UNL     1      26.467  -2.060  76.324  0.00  0.00    -0.326 N 
ATOM     17  H   UNL     1      25.793  -2.480  77.041  0.00  0.00    +0.148 HD
BRANCH  16  18
ATOM     18  C   UNL     1      26.946  -0.732  76.551  0.00  0.00    +0.072 C 
ATOM     19  C   UNL     1      26.026   0.355  75.954  0.00  0.00    +0.022 C 
ATOM     20  C   UNL     1      26.218   1.145  77.260  0.00  0.00    +0.003 C 
ATOM     21  C   UNL     1      26.545  -0.189  77.940  0.00  0.00    +0.022 C 
ENDBRANCH  16  18
ENDBRANCH  15  16
ENDBRANCH  11  12
BRANCH   6   5
ATOM      5  C   UNL     1      34.196   1.260  70.762  0.00  0.00    +0.200 C 
BRANCH   5   3
ATOM      1  C   UNL     1      37.542   2.822  71.672  0.00  0.00    +0.109 C 
ATOM      2  C   UNL     1      36.319   2.508  70.909  0.00  0.00    +0.210 C 
ATOM      3  N   UNL     1      35.411   1.627  71.420  0.00  0.00    -0.307 N 
ATOM      4  H   UNL     1      35.621   1.184  72.371  0.00  0.00    +0.149 HD
ATOM     37  O   UNL     1      36.131   3.076  69.798  0.00  0.00    -0.276 OA
ENDBRANCH   5   3
ENDBRANCH   6   5
TORSDOF 6
