REMARK  Name = 4CVA
REMARK  4 active torsions:
REMARK  status: ('A' for Active; 'I' for Inactive)
REMARK    1  A    between atoms: N_2  and  C_9
REMARK    2  A    between atoms: N_5  and  C_15
REMARK    3  A    between atoms: C_13  and  C_14
REMARK    4  A    between atoms: C_17  and  C_20
REMARK                            x       y       z     vdW  Elec       q    Type
REMARK                         _______ _______ _______ _____ _____    ______ ____
ROOT
ATOM      9  C   UNL     1      -0.560 -17.729 -46.690  0.00  0.00    +0.248 C 
ATOM     10  O   UNL     1      -0.204 -17.108 -45.647  0.00  0.00    -0.270 OA
ATOM     11  N   UNL     1      -0.341 -19.106 -46.887  0.00  0.00    -0.277 N 
ATOM     12  H   UNL     1      -0.703 -19.520 -47.805  0.00  0.00    +0.155 HD
ENDROOT
BRANCH  11  13
ATOM     13  C   UNL     1       0.308 -20.006 -45.999  0.00  0.00    +0.099 C 
ATOM     14  C   UNL     1       0.083 -21.436 -46.387  0.00  0.00    +0.270 C 
ATOM     15  N   UNL     1       0.543 -22.451 -45.488  0.00  0.00    -0.327 N 
ATOM     16  H   UNL     1       0.376 -23.478 -45.737  0.00  0.00    +0.168 HD
ATOM     17  C   UNL     1       1.204 -22.142 -44.295  0.00  0.00    +0.094 C 
ATOM     18  C   UNL     1       1.444 -20.799 -43.941  0.00  0.00    +0.000 C 
ATOM     25  O   UNL     1      -0.504 -21.787 -47.430  0.00  0.00    -0.266 OA
ATOM     26  C   UNL     1       0.970 -19.718 -44.813  0.00  0.00    +0.038 C 
BRANCH  18  19
ATOM     19  C   UNL     1       2.221 -20.446 -42.706  0.00  0.00    -0.014 A 
ATOM     20  C   UNL     1       2.380 -21.399 -41.660  0.00  0.00    +0.028 A 
ATOM     21  C   UNL     1       3.111 -21.043 -40.488  0.00  0.00    +0.111 A 
ATOM     22  N   UNL     1       3.677 -19.798 -40.317  0.00  0.00    -0.263 NA
ATOM     23  C   UNL     1       3.518 -18.877 -41.339  0.00  0.00    +0.111 A 
ATOM     24  C   UNL     1       2.805 -19.152 -42.541  0.00  0.00    +0.028 A 
ENDBRANCH  18  19
ENDBRANCH  11  13
BRANCH   9   8
ATOM      5  C   UNL     1      -2.425 -15.409 -49.848  0.00  0.00    +0.030 A 
ATOM      6  C   UNL     1      -2.145 -14.877 -48.550  0.00  0.00    +0.024 A 
ATOM      7  C   UNL     1      -1.590 -15.670 -47.557  0.00  0.00    +0.015 A 
ATOM      8  C   UNL     1      -1.281 -17.029 -47.799  0.00  0.00    +0.037 A 
ATOM     27  C   UNL     1      -1.566 -17.612 -49.064  0.00  0.00    +0.015 A 
ATOM     28  C   UNL     1      -2.129 -16.807 -50.093  0.00  0.00    +0.024 A 
BRANCH   5   4
ATOM      1  C   UNL     1      -4.322 -12.575 -52.507  0.00  0.00    +0.003 C 
ATOM      2  C   UNL     1      -3.872 -12.190 -51.099  0.00  0.00    +0.019 C 
ATOM      3  C   UNL     1      -2.699 -13.044 -50.646  0.00  0.00    +0.105 C 
ATOM      4  N   UNL     1      -2.987 -14.488 -50.804  0.00  0.00    -0.330 N 
ATOM     29  C   UNL     1      -3.477 -14.921 -52.130  0.00  0.00    +0.105 C 
ATOM     30  C   UNL     1      -4.648 -14.068 -52.602  0.00  0.00    +0.019 C 
ENDBRANCH   5   4
ENDBRANCH   9   8
TORSDOF 4
