REMARK  Name = 3qcs_ligand
REMARK  2 active torsions:
REMARK  status: ('A' for Active; 'I' for Inactive)
REMARK    1  A    between atoms: C7_6  and  C11_8
REMARK    2  A    between atoms: C2_10  and  N1_21
REMARK                            x       y       z     vdW  Elec       q    Type
REMARK                         _______ _______ _______ _____ _____    ______ ____
ROOT
ATOM     13  C   UNL     1     -44.333  17.260  11.723  0.00  0.00    +0.038 A 
ATOM     14  N   UNL     1     -45.198  16.580  10.968  0.00  0.00    -0.271 NA
ATOM     15  C   UNL     1     -46.350  17.183  10.666  0.00  0.00    +0.167 A 
ATOM     16  N   UNL     1     -47.248  16.462   9.877  0.00  0.00    -0.307 N 
ATOM     17  H   UNL     1     -48.155  16.876   9.620  0.00  0.00    +0.182 HD
ATOM     18  H   UNL     1     -47.003  15.516   9.552  0.00  0.00    +0.182 HD
ATOM     19  N   UNL     1     -46.697  18.410  11.072  0.00  0.00    -0.245 NA
ATOM     20  C   UNL     1     -45.821  19.077  11.831  0.00  0.00    +0.114 A 
ATOM     21  N   UNL     1     -46.143  20.361  12.302  0.00  0.00    -0.286 N 
ATOM     22  C   UNL     1     -47.090  21.021  11.415  0.00  0.00    +0.165 C 
ATOM     23  C   UNL     1     -46.703  22.445  11.110  0.00  0.00    +0.184 C 
ATOM     24  O   UNL     1     -46.125  23.014  12.278  0.00  0.00    -0.376 OA
ATOM     25  C   UNL     1     -44.829  22.451  12.354  0.00  0.00    +0.184 C 
ATOM     26  C   UNL     1     -44.959  21.023  12.825  0.00  0.00    +0.165 C 
ATOM     27  C   UNL     1     -44.608  18.526  12.185  0.00  0.00    +0.054 A 
ENDROOT
BRANCH  13  12
ATOM      1  C   UNL     1     -40.852  16.442  12.855  0.00  0.00    +0.030 A 
ATOM      2  C   UNL     1     -40.849  15.081  12.604  0.00  0.00    +0.079 A 
ATOM      3  C   UNL     1     -39.913  14.019  12.748  0.00  0.00    +0.241 A 
ATOM      7  N   UNL     1     -40.428  12.853  12.347  0.00  0.00    -0.255 N 
ATOM      8  H   UNL     1     -39.975  11.928  12.341  0.00  0.00    +0.254 HD
ATOM      9  N   UNL     1     -41.672  13.167  11.954  0.00  0.00    -0.440 NA
ATOM     10  C   UNL     1     -41.980  14.492  12.088  0.00  0.00    -0.048 A 
ATOM     11  C   UNL     1     -43.136  15.168  11.788  0.00  0.00    +0.012 A 
ATOM     12  C   UNL     1     -43.131  16.523  12.035  0.00  0.00    -0.001 A 
ATOM     28  C   UNL     1     -42.013  17.126  12.562  0.00  0.00    +0.018 A 
BRANCH   3   4
ATOM      4  N   UNL     1     -38.664  14.209  13.234  0.00  0.00    -0.261 N 
ATOM      5  H   UNL     1     -38.018  13.411  13.320  0.00  0.00    +0.210 HD
ATOM      6  H   UNL     1     -38.360  15.151  13.518  0.00  0.00    +0.210 HD
ENDBRANCH   3   4
ENDBRANCH  13  12
TORSDOF 2
