REMARK  Name = 5JHA
REMARK  6 active torsions:
REMARK  status: ('A' for Active; 'I' for Inactive)
REMARK    1  A    between atoms: C_1  and  N_26
REMARK    2  A    between atoms: C_3  and  C_16
REMARK    3  A    between atoms: C_7  and  C_10
REMARK    4  A    between atoms: C_21  and  C_22
REMARK    5  A    between atoms: C_21  and  C_24
REMARK    6  A    between atoms: C_24  and  O_25
REMARK                            x       y       z     vdW  Elec       q    Type
REMARK                         _______ _______ _______ _____ _____    ______ ____
ROOT
ATOM      1  C   UNL     1      22.278  -3.469  22.195  0.00  0.00    +0.127 A 
ATOM      8  N   UNL     1      21.957  -2.212  21.785  0.00  0.00    -0.199 NA
ATOM      9  C   UNL     1      22.819  -1.499  21.072  0.00  0.00    +0.220 A 
ATOM     10  N   UNL     1      22.450  -0.148  20.641  0.00  0.00    -0.298 N 
ATOM     11  C   UNL     1      21.405   0.825  20.986  0.00  0.00    +0.120 C 
ATOM     12  C   UNL     1      21.818   1.652  19.844  0.00  0.00    +0.039 C 
ATOM     18  C   UNL     1      23.049   0.863  19.754  0.00  0.00    +0.120 C 
ATOM     19  N   UNL     1      24.024  -1.961  20.722  0.00  0.00    -0.214 NA
ATOM     20  C   UNL     1      24.429  -3.202  21.082  0.00  0.00    +0.080 A 
ATOM     34  C   UNL     1      23.546  -4.007  21.845  0.00  0.00    +0.072 A 
ENDROOT
BRANCH  20  21
ATOM     21  C   UNL     1      25.827  -3.730  20.677  0.00  0.00    +0.030 A 
ATOM     22  C   UNL     1      26.655  -4.266  21.658  0.00  0.00    +0.123 A 
ATOM     23  N   UNL     1      27.867  -4.733  21.370  0.00  0.00    -0.240 NA
ATOM     24  C   UNL     1      28.348  -4.717  20.139  0.00  0.00    +0.117 A 
ATOM     25  N   UNL     1      29.660  -5.233  19.888  0.00  0.00    -0.343 N 
ATOM     26  H   UNL     1      30.380  -4.896  20.345  0.00  0.00    +0.144 HD
ATOM     27  H   UNL     1      29.780  -5.901  19.271  0.00  0.00    +0.144 HD
ATOM     28  C   UNL     1      27.601  -4.205  19.085  0.00  0.00    +0.056 A 
ATOM     29  C   UNL     1      26.302  -3.698  19.340  0.00  0.00    +0.069 A 
BRANCH  29  30
ATOM     30  C   UNL     1      25.498  -3.138  18.197  0.00  0.00    +0.418 C 
ATOM     31  F   UNL     1      25.611  -1.801  18.200  0.00  0.00    -0.166 F 
ATOM     32  F   UNL     1      26.007  -3.616  17.059  0.00  0.00    -0.166 F 
ATOM     33  F   UNL     1      24.207  -3.484  18.270  0.00  0.00    -0.166 F 
ENDBRANCH  29  30
ENDBRANCH  20  21
BRANCH   1   2
ATOM      2  N   UNL     1      21.354  -4.254  22.971  0.00  0.00    -0.311 N 
ATOM      3  C   UNL     1      19.972  -4.249  22.693  0.00  0.00    +0.134 C 
ATOM      4  C   UNL     1      19.137  -4.525  23.925  0.00  0.00    +0.178 C 
ATOM      5  O   UNL     1      19.546  -5.728  24.565  0.00  0.00    -0.377 OA
ATOM      6  C   UNL     1      20.925  -5.690  24.904  0.00  0.00    +0.178 C 
ATOM      7  C   UNL     1      21.811  -5.355  23.723  0.00  0.00    +0.134 C 
ENDBRANCH   1   2
BRANCH  12  16
ATOM     16  C   UNL     1      20.940   1.489  18.595  0.00  0.00    +0.121 C 
ATOM     17 CL   UNL     1      19.242   1.732  18.924  0.00  0.00    -0.125 Cl
ENDBRANCH  12  16
BRANCH  12  13
ATOM     13  C   UNL     1      22.098   3.084  20.208  0.00  0.00    +0.167 C 
BRANCH  13  14
ATOM     14  O   UNL     1      20.891   3.713  20.583  0.00  0.00    -0.394 OA
ATOM     15  H   UNL     1      20.290   3.615  19.931  0.00  0.00    +0.209 HD
ENDBRANCH  13  14
ENDBRANCH  12  13
TORSDOF 6
