REMARK  Name = 3LFC
REMARK  13 active torsions:
REMARK  status: ('A' for Active; 'I' for Inactive)
REMARK    1  A    between atoms: C_1  and  C_38
REMARK    2  A    between atoms: C_2  and  C_38
REMARK    3  A    between atoms: C_3  and  C_38
REMARK    4  A    between atoms: C_18  and  C_19
REMARK    5  A    between atoms: C_18  and  O_26
REMARK    6  A    between atoms: C_19  and  C_32
REMARK    7  A    between atoms: C_20  and  O_26
REMARK    8  A    between atoms: C_20  and  C_30
REMARK    9  A    between atoms: C_21  and  C_28
REMARK   10  A    between atoms: C_21  and  C_31
REMARK   11  A    between atoms: N_24  and  C_35
REMARK   12  A    between atoms: C_33  and  N_37
REMARK   13  A    between atoms: C_34  and  C_38
REMARK                            x       y       z     vdW  Elec       q    Type
REMARK                         _______ _______ _______ _____ _____    ______ ____
ROOT
ATOM      7  N   UNL     1      18.696  -6.052 -17.128  0.00  0.00    -0.254 N 
ATOM      8  H   UNL     1      19.661  -6.396 -16.818  0.00  0.00    +0.158 HD
ATOM      9  C   UNL     1      18.574  -4.825 -17.652  0.00  0.00    +0.311 C 
ATOM     10  N   UNL     1      19.653  -4.043 -17.683  0.00  0.00    -0.248 N 
ATOM     11  H   UNL     1      20.577  -4.444 -17.321  0.00  0.00    +0.158 HD
ATOM     12  C   UNL     1      19.647  -2.783 -18.142  0.00  0.00    +0.166 A 
ATOM     13  S   UNL     1      18.623  -2.008 -19.261  0.00  0.00    -0.060 S 
ATOM     14  C   UNL     1      19.353  -0.504 -19.145  0.00  0.00    +0.071 A 
ATOM     15  C   UNL     1      20.342  -0.630 -18.247  0.00  0.00    +0.053 A 
ATOM     26  N   UNL     1      20.498  -1.862 -17.708  0.00  0.00    -0.230 NA
ATOM     27  O   UNL     1      17.514  -4.439 -18.125  0.00  0.00    -0.252 OA
ENDROOT
BRANCH   7   6
ATOM      3  C   UNL     1      15.885  -7.986 -17.271  0.00  0.00    +0.071 A 
ATOM      4  N   UNL     1      16.208  -8.055 -15.980  0.00  0.00    -0.169 NA
ATOM      5  N   UNL     1      17.224  -7.366 -15.816  0.00  0.00    -0.218 N 
ATOM      6  C   UNL     1      17.635  -6.858 -16.984  0.00  0.00    +0.130 A 
ATOM     38  C   UNL     1      16.770  -7.227 -17.917  0.00  0.00    +0.069 A 
BRANCH   5  28
ATOM     28  C   UNL     1      17.865  -7.218 -14.650  0.00  0.00    +0.067 A 
ATOM     29  C   UNL     1      18.299  -8.368 -13.983  0.00  0.00    +0.028 A 
ATOM     30  C   UNL     1      18.984  -8.266 -12.774  0.00  0.00    +0.006 A 
ATOM     31  C   UNL     1      19.243  -7.012 -12.222  0.00  0.00    -0.042 A 
ATOM     36  C   UNL     1      18.818  -5.855 -12.886  0.00  0.00    +0.006 A 
ATOM     37  C   UNL     1      18.127  -5.960 -14.099  0.00  0.00    +0.028 A 
BRANCH  31  32
ATOM     32  C   UNL     1      20.014  -6.937 -10.906  0.00  0.00    +0.087 C 
BRANCH  32  33
ATOM     33  C   UNL     1      19.082  -6.949  -9.708  0.00  0.00    +0.046 C 
ATOM     34  O   UNL     1      19.031  -5.885  -9.049  0.00  0.00    -0.549 OA
ATOM     35  O   UNL     1      18.464  -8.016  -9.466  0.00  0.00    -0.549 OA
ENDBRANCH  32  33
ENDBRANCH  31  32
ENDBRANCH   5  28
BRANCH   3   2
ATOM      1  C   UNL     1      13.827  -7.554 -18.583  0.00  0.00    +0.017 C 
ATOM      2  C   UNL     1      14.675  -8.663 -17.934  0.00  0.00    +0.006 C 
ATOM     39  C   UNL     1      13.821  -9.406 -16.904  0.00  0.00    +0.017 C 
ATOM     40  C   UNL     1      15.178  -9.646 -18.994  0.00  0.00    +0.017 C 
ENDBRANCH   3   2
ENDBRANCH   7   6
BRANCH  15  16
ATOM     16  C   UNL     1      21.271   0.518 -17.882  0.00  0.00    +0.084 C 
BRANCH  16  17
ATOM     17  C   UNL     1      22.689   0.122 -18.333  0.00  0.00    +0.166 C 
BRANCH  17  18
ATOM     18  O   UNL     1      22.984   0.226 -19.758  0.00  0.00    -0.375 OA
BRANCH  18  19
ATOM     19  C   UNL     1      22.437  -0.827 -20.611  0.00  0.00    +0.195 C 
BRANCH  19  20
ATOM     20  C   UNL     1      23.102  -2.016 -20.859  0.00  0.00    -0.022 A 
ATOM     21  C   UNL     1      24.373  -2.004 -21.437  0.00  0.00    +0.006 A 
ATOM     22  C   UNL     1      25.015  -3.220 -21.690  0.00  0.00    +0.000 A 
ATOM     23  C   UNL     1      24.401  -4.438 -21.374  0.00  0.00    +0.000 A 
ATOM     24  C   UNL     1      23.130  -4.442 -20.800  0.00  0.00    +0.000 A 
ATOM     25  C   UNL     1      22.481  -3.230 -20.547  0.00  0.00    +0.006 A 
ENDBRANCH  19  20
ENDBRANCH  18  19
ENDBRANCH  17  18
ENDBRANCH  16  17
ENDBRANCH  15  16
TORSDOF 10
