REMARK  Name = 3qu0_ligand
REMARK  6 active torsions:
REMARK  status: ('A' for Active; 'I' for Inactive)
REMARK    1  A    between atoms: N02_2  and  C09_9
REMARK    2  A    between atoms: N04_4  and  C07_7
REMARK    3  A    between atoms: N05_5  and  S25_25
REMARK    4  A    between atoms: C06_6  and  C10_10
REMARK    5  A    between atoms: C10_10  and  C11_11
REMARK    6  A    between atoms: C18_18  and  S25_25
REMARK                            x       y       z     vdW  Elec       q    Type
REMARK                         _______ _______ _______ _____ _____    ______ ____
ROOT
ATOM      1  N   UNL     1     -38.661 -81.965 -50.608  0.00  0.00    -0.271 NA
ATOM      2  C   UNL     1     -38.354 -81.839 -49.348  0.00  0.00    +0.204 A 
ATOM      3  S   UNL     1     -39.345 -80.730 -48.460  0.00  0.00    +0.010 S 
ATOM      4  C   UNL     1     -40.248 -80.386 -49.887  0.00  0.00    +0.094 A 
ATOM     13  N   UNL     1     -37.358 -82.535 -48.845  0.00  0.00    -0.233 N 
ATOM     14  H   UNL     1     -37.122 -83.401 -49.350  0.00  0.00    +0.224 HD
ATOM     27  C   UNL     1     -39.727 -81.155 -50.927  0.00  0.00    +0.085 A 
ENDROOT
BRANCH  13  15
ATOM     15  C   UNL     1     -36.627 -82.280 -47.793  0.00  0.00    +0.070 A 
ATOM     16  C   UNL     1     -35.730 -83.308 -47.358  0.00  0.00    +0.019 A 
ATOM     17  C   UNL     1     -34.890 -83.111 -46.233  0.00  0.00    +0.016 A 
ATOM     18  C   UNL     1     -34.937 -81.878 -45.522  0.00  0.00    +0.097 A 
ATOM     25  C   UNL     1     -35.824 -80.842 -45.932  0.00  0.00    +0.016 A 
ATOM     26  C   UNL     1     -36.664 -81.035 -47.057  0.00  0.00    +0.019 A 
BRANCH  18  19
ATOM     19  S   UNL     1     -33.864 -81.635 -44.143  0.00  0.00    +0.061 S 
ATOM     20  O   UNL     1     -33.347 -82.920 -43.701  0.00  0.00    -0.152 OA
ATOM     21  O   UNL     1     -32.788 -80.796 -44.577  0.00  0.00    -0.152 OA
BRANCH  19  22
ATOM     22  N   UNL     1     -34.658 -80.871 -42.868  0.00  0.00    -0.262 NA
ATOM     23  H   UNL     1     -35.621 -80.618 -42.959  0.00  0.00    +0.163 HD
ATOM     24  H   UNL     1     -34.166 -80.671 -42.021  0.00  0.00    +0.163 HD
ENDBRANCH  19  22
ENDBRANCH  18  19
ENDBRANCH  13  15
BRANCH  27  28
ATOM     28  N   UNL     1     -40.191 -81.121 -52.101  0.00  0.00    -0.332 N 
ATOM     29  H   UNL     1     -39.771 -81.706 -52.838  0.00  0.00    +0.175 HD
ATOM     30  H   UNL     1     -40.989 -80.509 -52.322  0.00  0.00    +0.175 HD
ENDBRANCH  27  28
BRANCH   4   5
ATOM      5  C   UNL     1     -41.317 -79.495 -49.996  0.00  0.00    +0.138 C 
ATOM      6  O   UNL     1     -41.969 -79.470 -51.043  0.00  0.00    -0.399 OA
BRANCH   5   7
ATOM      7  C   UNL     1     -41.658 -78.614 -48.969  0.00  0.00    +0.051 A 
ATOM      8  C   UNL     1     -43.009 -78.359 -48.661  0.00  0.00    +0.116 A 
ATOM      9  N   UNL     1     -43.412 -77.501 -47.661  0.00  0.00    -0.291 NA
ATOM     10  C   UNL     1     -42.437 -76.862 -46.918  0.00  0.00    +0.101 A 
ATOM     11  C   UNL     1     -41.064 -77.043 -47.146  0.00  0.00    +0.043 A 
ATOM     12  C   UNL     1     -40.677 -77.923 -48.181  0.00  0.00    +0.053 A 
ENDBRANCH   5   7
ENDBRANCH   4   5
TORSDOF 6
