REMARK  Name = 3AC4
REMARK  11 active torsions:
REMARK  status: ('A' for Active; 'I' for Inactive)
REMARK    1  A    between atoms: C_1  and  O_7
REMARK    2  A    between atoms: C_3  and  O_9
REMARK    3  A    between atoms: C_5  and  N_11
REMARK    4  A    between atoms: O_7  and  C_8
REMARK    5  A    between atoms: O_9  and  C_10
REMARK    6  A    between atoms: C_17  and  C_18
REMARK    7  A    between atoms: N_24  and  C_25
REMARK    8  A    between atoms: C_25  and  C_26
REMARK    9  A    between atoms: C_25  and  C_27
REMARK   10  A    between atoms: C_25  and  C_28
REMARK   11  A    between atoms: C_26  and  N_29
REMARK                            x       y       z     vdW  Elec       q    Type
REMARK                         _______ _______ _______ _____ _____    ______ ____
ROOT
ATOM      6  N   UNL     1       6.917   0.178  -9.882  0.00  0.00    -0.298 N 
ATOM      7  H   UNL     1       6.422  -0.403 -10.632  0.00  0.00    +0.154 HD
ATOM      8  C   UNL     1       6.179   0.921  -9.026  0.00  0.00    +0.142 A 
ATOM      9  C   UNL     1       4.804   0.510  -8.672  0.00  0.00    +0.121 A 
ATOM     15  C   UNL     1       4.062   1.381  -7.728  0.00  0.00    +0.179 A 
ATOM     16  N   UNL     1       2.819   1.295  -7.212  0.00  0.00    -0.129 NA
ATOM     17  N   UNL     1       2.657   2.403  -6.371  0.00  0.00    -0.137 NA
ATOM     18  C   UNL     1       3.809   3.105  -6.422  0.00  0.00    +0.232 A 
ATOM     19  N   UNL     1       4.665   2.484  -7.247  0.00  0.00    -0.253 N 
ATOM     20  C   UNL     1       5.927   2.808  -7.602  0.00  0.00    +0.205 A 
ATOM     21  N   UNL     1       6.480   3.937  -7.093  0.00  0.00    -0.308 N 
ATOM     22  H   UNL     1       6.390   4.844  -7.654  0.00  0.00    +0.149 HD
ATOM     30  N   UNL     1       6.661   2.057  -8.469  0.00  0.00    -0.200 NA
ENDROOT
BRANCH   6   5
ATOM      1  C   UNL     1      10.371  -0.869 -10.405  0.00  0.00    +0.125 A 
ATOM      4  C   UNL     1       8.981  -0.841 -10.473  0.00  0.00    +0.069 A 
ATOM      5  C   UNL     1       8.268   0.154  -9.809  0.00  0.00    +0.039 A 
ATOM     31  C   UNL     1       8.952   1.123  -9.078  0.00  0.00    +0.069 A 
ATOM     32  C   UNL     1      10.342   1.098  -9.007  0.00  0.00    +0.125 A 
ATOM     35  C   UNL     1      11.050   0.102  -9.673  0.00  0.00    +0.091 A 
BRANCH   1   2
ATOM      2  O   UNL     1      11.072  -1.852 -11.058  0.00  0.00    -0.495 OA
ATOM      3  C   UNL     1      12.179  -2.494 -10.424  0.00  0.00    +0.277 C 
ENDBRANCH   1   2
BRANCH  32  33
ATOM     33  O   UNL     1      11.009   2.056  -8.285  0.00  0.00    -0.495 OA
ATOM     34  C   UNL     1      11.733   1.702  -7.107  0.00  0.00    +0.277 C 
ENDBRANCH  32  33
ENDBRANCH   6   5
BRANCH   9  10
ATOM     10  C   UNL     1       4.185  -0.725  -9.247  0.00  0.00    +0.249 C 
ATOM     11  N   UNL     1       2.907  -0.990  -8.980  0.00  0.00    -0.325 N 
ATOM     12  H   UNL     1       2.447  -1.869  -9.382  0.00  0.00    +0.145 HD
ATOM     13  H   UNL     1       2.340  -0.324  -8.363  0.00  0.00    +0.145 HD
ATOM     14  O   UNL     1       4.859  -1.447  -9.959  0.00  0.00    -0.270 OA
ENDBRANCH   9  10
BRANCH  21  23
ATOM     23  C   UNL     1       7.189   3.977  -5.824  0.00  0.00    +0.041 C 
ATOM     24  C   UNL     1       6.371   4.795  -4.830  0.00  0.00    +0.033 C 
ATOM     25  C   UNL     1       7.376   2.562  -5.289  0.00  0.00    +0.033 C 
BRANCH  23  26
ATOM     26  C   UNL     1       8.544   4.642  -6.054  0.00  0.00    +0.103 C 
BRANCH  26  27
ATOM     27  N   UNL     1       9.164   4.978  -4.786  0.00  0.00    -0.328 NA
ATOM     28  H   UNL     1       8.532   5.653  -4.247  0.00  0.00    +0.118 HD
ATOM     29  H   UNL     1       9.306   4.087  -4.211  0.00  0.00    +0.118 HD
ENDBRANCH  26  27
ENDBRANCH  23  26
ENDBRANCH  21  23
TORSDOF 7
