REMARK  Name = 3tti_ligand
REMARK  4 active torsions:
REMARK  status: ('A' for Active; 'I' for Inactive)
REMARK    1  A    between atoms: O1_4  and  C10_21
REMARK    2  A    between atoms: N3_11  and  C13_24
REMARK    3  A    between atoms: N5_15  and  C6_16
REMARK    4  A    between atoms: N6_17  and  C7_18
REMARK                            x       y       z     vdW  Elec       q    Type
REMARK                         _______ _______ _______ _____ _____    ______ ____
ROOT
ATOM      1  C   UNL     1     -21.719   6.480 -31.872  0.00  0.00    +0.170 A 
ATOM      2  N   UNL     1     -22.475   5.463 -31.447  0.00  0.00    -0.293 N 
ATOM      3  H   UNL     1     -22.066   4.519 -31.412  0.00  0.00    +0.184 HD
ATOM     12  N   UNL     1     -22.173   7.744 -31.771  0.00  0.00    -0.247 NA
ATOM     13  C   UNL     1     -21.425   8.776 -32.197  0.00  0.00    +0.151 A 
ATOM     14  N   UNL     1     -21.602  10.095 -32.234  0.00  0.00    -0.191 N 
ATOM     20  C   UNL     1     -20.519  10.670 -32.762  0.00  0.00    +0.238 A 
ATOM     21  N   UNL     1     -20.374  11.994 -32.952  0.00  0.00    -0.228 N 
ATOM     22  H   UNL     1     -21.060  12.626 -32.514  0.00  0.00    +0.218 HD
ATOM     32  N   UNL     1     -19.635   9.717 -33.085  0.00  0.00    -0.302 NA
ATOM     33  C   UNL     1     -20.172   8.536 -32.745  0.00  0.00    +0.052 A 
ATOM     34  C   UNL     1     -19.732   7.214 -32.835  0.00  0.00    +0.091 A 
ATOM     35  N   UNL     1     -20.504   6.227 -32.404  0.00  0.00    -0.274 NA
ENDROOT
BRANCH  21  23
ATOM     23  C   UNL     1     -19.384  12.540 -33.681  0.00  0.00    +0.132 A 
ATOM     24  C   UNL     1     -18.599  13.554 -33.127  0.00  0.00    +0.152 A 
ATOM     25  C   UNL     1     -17.564  14.138 -33.854  0.00  0.00    +0.045 A 
ATOM     26  C   UNL     1     -17.301  13.713 -35.152  0.00  0.00    +0.117 A 
ATOM     27  C   UNL     1     -18.080  12.705 -35.712  0.00  0.00    +0.045 A 
ATOM     28  F   UNL     1     -16.295  14.272 -35.854  0.00  0.00    -0.195 F 
ATOM     29  F   UNL     1     -18.841  13.984 -31.875  0.00  0.00    -0.193 F 
ATOM     30  C   UNL     1     -19.120  12.124 -34.986  0.00  0.00    +0.152 A 
ATOM     31  F   UNL     1     -19.861  11.156 -35.558  0.00  0.00    -0.193 F 
ENDBRANCH  21  23
BRANCH   2   4
ATOM      4  C   UNL     1     -23.878   5.649 -31.026  0.00  0.00    +0.096 C 
ATOM      5  C   UNL     1     -24.715   4.436 -31.465  0.00  0.00    +0.030 C 
ATOM      6  C   UNL     1     -26.159   4.526 -30.943  0.00  0.00    +0.033 C 
ATOM      7  C   UNL     1     -26.176   4.632 -29.410  0.00  0.00    +0.115 C 
ATOM      8  C   UNL     1     -25.385   5.873 -28.980  0.00  0.00    +0.033 C 
ATOM     11  C   UNL     1     -23.939   5.804 -29.493  0.00  0.00    +0.030 C 
BRANCH   7   9
ATOM      9  O   UNL     1     -27.519   4.739 -28.941  0.00  0.00    -0.392 OA
ATOM     10  H   UNL     1     -28.009   3.970 -29.208  0.00  0.00    +0.210 HD
ENDBRANCH   7   9
ENDBRANCH   2   4
BRANCH  14  15
ATOM     15  C   UNL     1     -22.784  10.820 -31.743  0.00  0.00    +0.164 C 
ATOM     16  C   UNL     1     -24.038   9.948 -31.759  0.00  0.00    +0.066 C 
ATOM     17  C   UNL     1     -24.591  10.088 -30.336  0.00  0.00    +0.163 C 
ATOM     18  O   UNL     1     -23.412  10.237 -29.524  0.00  0.00    -0.377 OA
ATOM     19  C   UNL     1     -22.564  11.141 -30.257  0.00  0.00    +0.195 C 
ENDBRANCH  14  15
TORSDOF 4
