REMARK  Name = 3LFF
REMARK  8 active torsions:
REMARK  status: ('A' for Active; 'I' for Inactive)
REMARK    1  A    between atoms: C_1  and  C_28
REMARK    2  A    between atoms: C_2  and  C_28
REMARK    3  A    between atoms: C_3  and  C_28
REMARK    4  A    between atoms: C_14  and  C_20
REMARK    5  A    between atoms: C_14  and  C_22
REMARK    6  A    between atoms: N_17  and  C_25
REMARK    7  A    between atoms: C_23  and  N_27
REMARK    8  A    between atoms: C_24  and  C_28
REMARK                            x       y       z     vdW  Elec       q    Type
REMARK                         _______ _______ _______ _____ _____    ______ ____
ROOT
ATOM      3  C   UNL     1      15.908  -8.004 -17.953  0.00  0.00    +0.071 A 
ATOM      4  N   UNL     1      16.187  -8.091 -16.653  0.00  0.00    -0.169 NA
ATOM      5  N   UNL     1      17.221  -7.444 -16.432  0.00  0.00    -0.218 N 
ATOM      6  C   UNL     1      17.671  -6.893 -17.567  0.00  0.00    +0.130 A 
ATOM     28  C   UNL     1      16.844  -7.259 -18.557  0.00  0.00    +0.069 A 
ENDROOT
BRANCH   6   7
ATOM      7  N   UNL     1      18.802  -6.155 -17.685  0.00  0.00    -0.254 N 
ATOM      8  H   UNL     1      19.569  -6.320 -16.957  0.00  0.00    +0.158 HD
ATOM      9  C   UNL     1      19.047  -5.238 -18.630  0.00  0.00    +0.311 C 
ATOM     10  N   UNL     1      20.256  -4.669 -18.559  0.00  0.00    -0.248 N 
ATOM     11  H   UNL     1      20.915  -4.965 -17.770  0.00  0.00    +0.158 HD
ATOM     12  C   UNL     1      20.676  -3.750 -19.427  0.00  0.00    +0.166 A 
ATOM     13  S   UNL     1      19.809  -3.061 -20.699  0.00  0.00    -0.060 S 
ATOM     14  C   UNL     1      21.093  -2.095 -21.246  0.00  0.00    +0.068 A 
ATOM     15  C   UNL     1      22.133  -2.356 -20.438  0.00  0.00    +0.120 A 
ATOM     16  N   UNL     1      21.919  -3.258 -19.456  0.00  0.00    -0.233 NA
ATOM     17  O   UNL     1      18.221  -4.893 -19.478  0.00  0.00    -0.252 OA
ENDBRANCH   6   7
BRANCH   5  18
ATOM     18  C   UNL     1      17.742  -7.366 -15.196  0.00  0.00    +0.067 A 
ATOM     19  C   UNL     1      17.926  -8.546 -14.483  0.00  0.00    +0.028 A 
ATOM     20  C   UNL     1      18.441  -8.527 -13.189  0.00  0.00    +0.006 A 
ATOM     21  C   UNL     1      18.776  -7.320 -12.595  0.00  0.00    -0.042 A 
ATOM     26  C   UNL     1      18.586  -6.132 -13.293  0.00  0.00    +0.006 A 
ATOM     27  C   UNL     1      18.064  -6.154 -14.588  0.00  0.00    +0.028 A 
BRANCH  21  22
ATOM     22  C   UNL     1      19.347  -7.315 -11.168  0.00  0.00    +0.087 C 
BRANCH  22  23
ATOM     23  C   UNL     1      18.215  -7.102 -10.160  0.00  0.00    +0.046 C 
ATOM     24  O   UNL     1      17.343  -7.996 -10.082  0.00  0.00    -0.549 OA
ATOM     25  O   UNL     1      18.251  -6.056  -9.482  0.00  0.00    -0.549 OA
ENDBRANCH  22  23
ENDBRANCH  21  22
ENDBRANCH   5  18
BRANCH   3   2
ATOM      1  C   UNL     1      15.163  -9.934 -19.363  0.00  0.00    +0.017 C 
ATOM      2  C   UNL     1      14.685  -8.691 -18.599  0.00  0.00    +0.006 C 
ATOM     29  C   UNL     1      13.978  -7.738 -19.566  0.00  0.00    +0.017 C 
ATOM     30  C   UNL     1      13.715  -9.129 -17.493  0.00  0.00    +0.017 C 
ENDBRANCH   3   2
TORSDOF 5
