REMARK  Name = 4q9z_ligand
REMARK  4 active torsions:
REMARK  status: ('A' for Active; 'I' for Inactive)
REMARK    1  A    between atoms: C1_1  and  C2_2
REMARK    2  A    between atoms: C12_12  and  C13_13
REMARK    3  A    between atoms: C17_17  and  N18_18
REMARK    4  A    between atoms: N18_18  and  C19_19
REMARK                            x       y       z     vdW  Elec       q    Type
REMARK                         _______ _______ _______ _____ _____    ______ ____
ROOT
ATOM      1  C   UNL     1      25.054  -7.439 -10.473  0.00  0.00    +0.060 C 
ATOM      2  C   UNL     1      23.989  -7.107  -9.457  0.00  0.00    -0.048 A 
ATOM      3  C   UNL     1      22.737  -7.706  -9.542  0.00  0.00    +0.019 A 
ATOM     12  C   UNL     1      21.748  -7.385  -8.597  0.00  0.00    +0.002 A 
ATOM     13  C   UNL     1      22.042  -6.489  -7.560  0.00  0.00    +0.078 A 
ATOM     14  N   UNL     1      21.047  -6.142  -6.598  0.00  0.00    -0.235 N 
ATOM     15  C   UNL     1      19.607  -6.211  -6.953  0.00  0.00    +0.229 C 
ATOM     16  C   UNL     1      19.272  -5.083  -7.929  0.00  0.00    +0.063 C 
ATOM     17  C   UNL     1      18.749  -6.069  -5.704  0.00  0.00    +0.229 C 
ATOM     18  O   UNL     1      17.575  -6.364  -5.744  0.00  0.00    -0.389 OA
ATOM     19  N   UNL     1      19.281  -5.579  -4.561  0.00  0.00    -0.209 N 
ATOM     20  H   UNL     1      18.695  -5.463  -3.759  0.00  0.00    +0.225 HD
ATOM     21  N   UNL     1      20.626  -5.233  -4.477  0.00  0.00    -0.223 NA
ATOM     22  C   UNL     1      21.468  -5.528  -5.402  0.00  0.00    +0.144 C 
ATOM     23  C   UNL     1      22.940  -5.152  -5.235  0.00  0.00    +0.297 C 
ATOM     24  O   UNL     1      23.587  -5.039  -6.500  0.00  0.00    -0.315 OA
ATOM     25  C   UNL     1      23.287  -5.890  -7.490  0.00  0.00    +0.098 A 
ATOM     26  C   UNL     1      24.266  -6.211  -8.436  0.00  0.00    -0.010 A 
ENDROOT
BRANCH   3   4
ATOM      4  N   UNL     1      22.454  -8.610 -10.595  0.00  0.00    -0.322 N 
ATOM      5  H   UNL     1      23.031  -8.602 -11.448  0.00  0.00    +0.171 HD
BRANCH   4   6
ATOM      6  C   UNL     1      21.354  -9.546 -10.475  0.00  0.00    +0.177 C 
ATOM      7  C   UNL     1      21.577 -10.682  -9.365  0.00  0.00    +0.161 C 
ATOM      8  N   UNL     1      21.317 -11.551 -10.410  0.00  0.00    +0.230 N 
ATOM      9  H   UNL     1      20.396 -11.952 -10.323  0.00  0.00    +0.202 HD
ATOM     10  H   UNL     1      22.003 -12.289 -10.443  0.00  0.00    +0.202 HD
ATOM     11  C   UNL     1      21.401 -10.749 -11.535  0.00  0.00    +0.161 C 
ENDBRANCH   4   6
ENDBRANCH   3   4
TORSDOF 2
