REMARK  Name = 4UBA
REMARK  4 active torsions:
REMARK  status: ('A' for Active; 'I' for Inactive)
REMARK    1  A    between atoms: C_3  and  C_19
REMARK    2  A    between atoms: C_4  and  C_16
REMARK    3  A    between atoms: C_9  and  O_23
REMARK    4  A    between atoms: C_12  and  O_21
REMARK                            x       y       z     vdW  Elec       q    Type
REMARK                         _______ _______ _______ _____ _____    ______ ____
ROOT
ATOM      3  C   UNL     1      -7.028 -44.286   6.513  0.00  0.00    +0.165 C 
ATOM      4  O   UNL     1      -6.848 -44.699   5.269  0.00  0.00    -0.351 OA
ATOM      5  C   UNL     1      -7.565 -44.239   4.230  0.00  0.00    +0.128 C 
ATOM      6  C   UNL     1      -8.543 -43.299   4.402  0.00  0.00    +0.054 C 
ATOM      7  C   UNL     1      -9.274 -42.843   3.292  0.00  0.00    +0.025 C 
ATOM      8  C   UNL     1      -9.004 -43.342   2.022  0.00  0.00    +0.050 C 
ATOM      9 BR   UNL     1     -10.010 -42.706   0.522  0.00  0.00    -0.082 Br
ATOM     10  C   UNL     1      -8.007 -44.300   1.851  0.00  0.00    +0.034 C 
ATOM     11  C   UNL     1      -8.779 -42.816   5.736  0.00  0.00    +0.142 C 
ATOM     14  C   UNL     1      -7.286 -44.751   2.949  0.00  0.00    +0.081 C 
ATOM     15 BR   UNL     1      -5.911 -46.066   2.748  0.00  0.00    -0.079 Br
ATOM     16  C   UNL     1      -7.999 -43.326   6.814  0.00  0.00    +0.168 C 
ENDROOT
BRANCH   3   2
ATOM      1  C   UNL     1      -5.950 -44.443   8.835  0.00  0.00    +0.007 A 
ATOM      2  C   UNL     1      -6.113 -44.927   7.542  0.00  0.00    -0.010 A 
ATOM     19  C   UNL     1      -5.399 -46.046   7.138  0.00  0.00    +0.007 A 
ATOM     20  C   UNL     1      -4.539 -46.684   8.014  0.00  0.00    +0.010 A 
ATOM     21  C   UNL     1      -4.386 -46.201   9.301  0.00  0.00    -0.003 A 
ATOM     25  C   UNL     1      -5.091 -45.083   9.717  0.00  0.00    +0.010 A 
BRANCH  21  22
ATOM     22  C   UNL     1      -3.447 -46.905  10.249  0.00  0.00    +0.072 C 
ATOM     23  O   UNL     1      -2.744 -47.864   9.834  0.00  0.00    -0.545 OA
ATOM     24  O   UNL     1      -3.369 -46.530  11.449  0.00  0.00    -0.545 OA
ENDBRANCH  21  22
ENDBRANCH   3   2
BRANCH  11  12
ATOM     12  O   UNL     1      -9.772 -41.850   5.967  0.00  0.00    -0.382 OA
ATOM     13  H   UNL     1     -10.489 -42.236   6.630  0.00  0.00    +0.210 HD
ENDBRANCH  11  12
BRANCH  16  17
ATOM     17  O   UNL     1      -8.236 -42.849   8.116  0.00  0.00    -0.379 OA
ATOM     18  H   UNL     1      -8.075 -41.812   8.144  0.00  0.00    +0.211 HD
ENDBRANCH  16  17
TORSDOF 4
