REMARK  Name = C2J
REMARK  3 active torsions:
REMARK  status: ('A' for Active; 'I' for Inactive)
REMARK    1  A    between atoms: C4_4  and  C7_7
REMARK    2  A    between atoms: C11_9  and  N1_13
REMARK    3  A    between atoms: C12_14  and  C13_16
REMARK                            x       y       z     vdW  Elec       q    Type
REMARK                         _______ _______ _______ _____ _____    ______ ____
ROOT
ATOM      5  C   UNL     1     -18.535 -36.223  -1.654  0.00  0.00    +0.002 A 
ATOM      6  C   UNL     1     -18.596 -36.056  -0.248  0.00  0.00    +0.000 A 
ATOM      7  C   UNL     1     -19.463 -36.833   0.530  0.00  0.00    +0.004 A 
ATOM      8  C   UNL     1     -20.273 -37.825  -0.065  0.00  0.00    +0.055 A 
ATOM      9  C   UNL     1     -21.252 -38.803   0.413  0.00  0.00    +0.177 A 
ATOM     16  N   UNL     1     -21.681 -39.467  -0.660  0.00  0.00    -0.131 NA
ATOM     17  N   UNL     1     -21.088 -39.025  -1.747  0.00  0.00    -0.147 NA
ATOM     18  C   UNL     1     -20.217 -38.018  -1.454  0.00  0.00    +0.106 A 
ATOM     19  C   UNL     1     -19.348 -37.215  -2.245  0.00  0.00    +0.021 A 
ENDROOT
BRANCH   5   4
ATOM      1  C   UNL     1     -15.692 -33.957  -3.967  0.00  0.00    +0.196 A 
ATOM      2  C   UNL     1     -16.330 -33.364  -2.869  0.00  0.00    +0.042 A 
ATOM      3  C   UNL     1     -17.264 -34.074  -2.112  0.00  0.00    +0.003 A 
ATOM      4  C   UNL     1     -17.569 -35.393  -2.452  0.00  0.00    +0.000 A 
ATOM     20  C   UNL     1     -16.897 -35.994  -3.533  0.00  0.00    +0.003 A 
ATOM     21  C   UNL     1     -15.981 -35.274  -4.296  0.00  0.00    +0.042 A 
ATOM     22  O   UNL     1     -14.766 -33.272  -4.719  0.00  0.00    -0.287 OA
ENDBRANCH   5   4
BRANCH   9  10
ATOM     10  N   UNL     1     -21.663 -39.022   1.779  0.00  0.00    -0.159 NA
ATOM     11  C   UNL     1     -20.680 -39.065   2.831  0.00  0.00    +0.246 C 
ATOM     15  O   UNL     1     -19.495 -38.926   2.612  0.00  0.00    -0.273 OA
BRANCH  11  12
ATOM     12  C   UNL     1     -20.985 -39.304   4.257  0.00  0.00    +0.079 C 
ATOM     13  C   UNL     1     -20.926 -38.895   5.580  0.00  0.00    +0.010 C 
ATOM     14  C   UNL     1     -21.314 -40.202   5.234  0.00  0.00    +0.010 C 
ENDBRANCH  11  12
ENDBRANCH   9  10
TORSDOF 3
