REMARK  Name = 1q3d_ligand
REMARK  5 active torsions:
REMARK  status: ('A' for Active; 'I' for Inactive)
REMARK    1  A    between atoms: C24_24  and  C35_35
REMARK    2  A    between atoms: C25_25  and  O33_33
REMARK    3  A    between atoms: C26_26  and  N31_31
REMARK    4  A    between atoms: N31_31  and  C32_32
REMARK    5  A    between atoms: O33_33  and  C34_34
REMARK                            x       y       z     vdW  Elec       q    Type
REMARK                         _______ _______ _______ _____ _____    ______ ____
ROOT
ATOM      1  C   UNL     1      37.411  11.374  33.276  0.00  0.00    -0.013 A 
ATOM      2  C   UNL     1      38.189  10.233  32.820  0.00  0.00    -0.007 A 
ATOM      3  C   UNL     1      39.158   9.425  33.473  0.00  0.00    +0.001 A 
ATOM      4  C   UNL     1      39.669   9.381  34.788  0.00  0.00    -0.017 A 
ATOM      5  C   UNL     1      39.386  10.277  35.972  0.00  0.00    +0.196 C 
ATOM      6  N   UNL     1      40.149   9.671  37.011  0.00  0.00    -0.279 N 
ATOM      7  H   UNL     1      40.097   9.965  37.965  0.00  0.00    +0.186 HD
ATOM      8  C   UNL     1      40.955   8.658  36.592  0.00  0.00    +0.187 C 
ATOM      9  O   UNL     1      41.868   8.092  37.251  0.00  0.00    -0.396 OA
ATOM     10  C   UNL     1      40.575   8.386  35.190  0.00  0.00    +0.032 A 
ATOM     11  C   UNL     1      41.008   7.375  34.262  0.00  0.00    -0.002 A 
ATOM     12  C   UNL     1      41.870   6.241  34.330  0.00  0.00    -0.007 A 
ATOM     13  C   UNL     1      42.694   5.688  35.384  0.00  0.00    -0.011 A 
ATOM     14  C   UNL     1      43.470   4.560  35.016  0.00  0.00    -0.023 A 
ATOM     15  C   UNL     1      43.449   3.995  33.714  0.00  0.00    -0.016 A 
ATOM     16  C   UNL     1      42.652   4.493  32.649  0.00  0.00    +0.014 A 
ATOM     17  C   UNL     1      41.863   5.653  33.038  0.00  0.00    +0.068 A 
ATOM     18  N   UNL     1      41.017   6.389  32.205  0.00  0.00    -0.238 N 
ATOM     19  C   UNL     1      40.783   6.030  30.800  0.00  0.00    +0.260 C 
ATOM     20  O   UNL     1      40.426   7.211  30.121  0.00  0.00    -0.315 OA
ATOM     21  C   UNL     1      39.010   7.613  30.195  0.00  0.00    +0.202 C 
ATOM     22  C   UNL     1      38.830   8.206  28.775  0.00  0.00    +0.079 C 
ATOM     23  C   UNL     1      38.021   6.351  30.368  0.00  0.00    +0.227 C 
ATOM     26  C   UNL     1      38.577   4.994  29.784  0.00  0.00    +0.102 C 
ATOM     31  N   UNL     1      38.881   8.589  31.347  0.00  0.00    -0.229 N 
ATOM     32  C   UNL     1      39.957   4.765  30.436  0.00  0.00    +0.120 C 
ATOM     33  C   UNL     1      40.500   7.429  32.949  0.00  0.00    +0.095 A 
ATOM     34  C   UNL     1      39.563   8.454  32.541  0.00  0.00    +0.098 A 
ATOM     35  C   UNL     1      38.011   9.698  31.495  0.00  0.00    +0.070 A 
ATOM     36  C   UNL     1      37.032  10.300  30.610  0.00  0.00    +0.013 A 
ATOM     37  C   UNL     1      36.281  11.404  31.073  0.00  0.00    -0.018 A 
ATOM     38  C   UNL     1      36.469  11.942  32.400  0.00  0.00    -0.024 A 
ENDROOT
BRANCH  26  27
ATOM     27  N   UNL     1      37.572   3.909  29.963  0.00  0.00    +0.229 N 
ATOM     28  H   UNL     1      38.055   3.026  29.911  0.00  0.00    +0.201 HD
ATOM     29  H   UNL     1      37.161   4.014  30.877  0.00  0.00    +0.201 HD
ATOM     30  C   UNL     1      36.464   3.888  28.958  0.00  0.00    +0.189 C 
ENDBRANCH  26  27
BRANCH  23  24
ATOM     24  O   UNL     1      37.940   6.106  31.804  0.00  0.00    -0.369 OA
ATOM     25  C   UNL     1      36.665   6.372  32.441  0.00  0.00    +0.195 C 
ENDBRANCH  23  24
TORSDOF 2
