REMARK  Name = 2esm_ligand
REMARK  2 active torsions:
REMARK  status: ('A' for Active; 'I' for Inactive)
REMARK    1  A    between atoms: S1_2  and  N4_4
REMARK    2  A    between atoms: S1_2  and  C5_11
REMARK                            x       y       z     vdW  Elec       q    Type
REMARK                         _______ _______ _______ _____ _____    ______ ____
ROOT
ATOM      1  O   UNL     1      -0.892 138.779  19.716  0.00  0.00    -0.150 OA
ATOM      2  S   UNL     1      -1.353 137.492  20.162  0.00  0.00    +0.073 S 
ATOM     22  O   UNL     1      -0.984 137.357  21.546  0.00  0.00    -0.150 OA
ENDROOT
BRANCH   2   3
ATOM      3  C   UNL     1      -0.659 136.325  19.300  0.00  0.00    +0.124 A 
ATOM      4  C   UNL     1      -0.344 136.464  17.840  0.00  0.00    +0.024 A 
ATOM      5  C   UNL     1      -0.613 137.605  17.085  0.00  0.00    +0.042 A 
ATOM      6  C   UNL     1      -0.277 137.619  15.729  0.00  0.00    +0.085 A 
ATOM      7  N   UNL     1       0.299 136.558  15.130  0.00  0.00    -0.297 NA
ATOM      8  C   UNL     1       0.589 135.421  15.790  0.00  0.00    +0.107 A 
ATOM      9  C   UNL     1       0.295 135.310  17.146  0.00  0.00    +0.011 A 
ATOM     10  C   UNL     1       0.577 134.148  17.860  0.00  0.00    +0.021 A 
ATOM     11  C   UNL     1       0.271 134.062  19.220  0.00  0.00    +0.011 A 
ATOM     12  C   UNL     1      -0.329 135.114  19.919  0.00  0.00    +0.039 A 
ENDBRANCH   2   3
BRANCH   2  13
ATOM     13  N   UNL     1      -2.878 137.387  20.041  0.00  0.00    -0.229 NA
ATOM     14  C   UNL     1      -3.664 138.442  19.395  0.00  0.00    +0.131 C 
ATOM     15  C   UNL     1      -4.045 139.529  20.413  0.00  0.00    +0.071 C 
ATOM     16  C   UNL     1      -4.373 139.044  21.831  0.00  0.00    +0.131 C 
ATOM     17  N   UNL     1      -4.984 137.726  21.884  0.00  0.00    +0.228 N 
ATOM     18  H   UNL     1      -5.567 137.640  21.066  0.00  0.00    +0.201 HD
ATOM     19  H   UNL     1      -5.560 137.702  22.711  0.00  0.00    +0.201 HD
ATOM     20  C   UNL     1      -4.136 136.548  21.925  0.00  0.00    +0.150 C 
ATOM     21  C   UNL     1      -3.568 136.200  20.549  0.00  0.00    +0.176 C 
ENDBRANCH   2  13
TORSDOF 2
