REMARK  Name = 1PKD
REMARK  6 active torsions:
REMARK  status: ('A' for Active; 'I' for Inactive)
REMARK    1  A    between atoms: O_1  and  C_2
REMARK    2  A    between atoms: C_26  and  C_36
REMARK    3  A    between atoms: C_30  and  N_31
REMARK    4  A    between atoms: N_31  and  C_32
REMARK    5  A    between atoms: C_33  and  O_34
REMARK    6  A    between atoms: O_34  and  C_35
REMARK                            x       y       z     vdW  Elec       q    Type
REMARK                         _______ _______ _______ _____ _____    ______ ____
ROOT
ATOM      3  C   UNL     1       9.907 113.714  51.527  0.00  0.00    +0.235 C 
ATOM      4  C   UNL     1       8.423 113.434  51.408  0.00  0.00    +0.021 A 
ATOM      5  C   UNL     1       7.295 113.984  52.031  0.00  0.00    +0.018 A 
ATOM      6  C   UNL     1       7.123 115.030  53.064  0.00  0.00    +0.008 A 
ATOM      7  C   UNL     1       8.083 115.820  53.776  0.00  0.00    +0.010 A 
ATOM      8  C   UNL     1       7.609 116.734  54.715  0.00  0.00    +0.001 A 
ATOM      9  C   UNL     1       6.242 116.871  54.979  0.00  0.00    +0.002 A 
ATOM     10  C   UNL     1       5.277 116.096  54.323  0.00  0.00    +0.026 A 
ATOM     11  C   UNL     1       5.666 115.134  53.319  0.00  0.00    +0.053 A 
ATOM     12  N   UNL     1       5.066 114.237  52.502  0.00  0.00    -0.307 N 
ATOM     13  C   UNL     1       3.607 113.915  52.487  0.00  0.00    +0.174 C 
ATOM     14  C   UNL     1       2.719 115.094  52.889  0.00  0.00    +0.069 C 
ATOM     15  C   UNL     1       3.393 112.748  53.454  0.00  0.00    +0.187 C 
ATOM     18  C   UNL     1       2.194 111.957  52.930  0.00  0.00    +0.091 C 
ATOM     22  C   UNL     1       2.580 111.273  51.610  0.00  0.00    +0.076 C 
ATOM     23  C   UNL     1       3.210 112.282  50.630  0.00  0.00    +0.224 C 
ATOM     24  N   UNL     1       4.585 111.891  50.291  0.00  0.00    -0.312 N 
ATOM     25  C   UNL     1       5.762 112.496  50.775  0.00  0.00    +0.077 A 
ATOM     26  C   UNL     1       6.913 111.897  50.091  0.00  0.00    +0.022 A 
ATOM     27  C   UNL     1       6.399 110.874  49.175  0.00  0.00    +0.009 A 
ATOM     28  C   UNL     1       7.024 109.988  48.315  0.00  0.00    +0.010 A 
ATOM     29  C   UNL     1       6.187 109.126  47.586  0.00  0.00    +0.001 A 
ATOM     30  C   UNL     1       4.785 109.142  47.727  0.00  0.00    +0.002 A 
ATOM     31  C   UNL     1       4.135 110.022  48.604  0.00  0.00    +0.026 A 
ATOM     32  C   UNL     1       4.938 110.897  49.347  0.00  0.00    +0.052 A 
ATOM     33  O   UNL     1       3.214 113.629  51.132  0.00  0.00    -0.328 OA
ATOM     34  C   UNL     1       5.910 113.529  51.713  0.00  0.00    +0.077 A 
ATOM     35  C   UNL     1       8.260 112.379  50.415  0.00  0.00    +0.054 A 
ATOM     36  C   UNL     1       9.594 112.012  49.925  0.00  0.00    +0.247 C 
ATOM     37  O   UNL     1       9.783 111.219  49.026  0.00  0.00    -0.270 OA
ATOM     38  N   UNL     1      10.493 112.732  50.607  0.00  0.00    -0.282 N 
ATOM     39  H   UNL     1      11.549 112.603  50.491  0.00  0.00    +0.152 HD
ENDROOT
BRANCH  18  19
ATOM     19  N   UNL     1       1.681 111.062  53.950  0.00  0.00    -0.314 NA
ATOM     20  H   UNL     1       0.646 111.295  54.091  0.00  0.00    +0.122 HD
ATOM     21  C   UNL     1       1.776 109.640  53.693  0.00  0.00    +0.101 C 
ENDBRANCH  18  19
BRANCH   3   1
ATOM      1  O   UNL     1      10.550 113.830  52.802  0.00  0.00    -0.370 OA
ATOM      2  H   UNL     1      10.515 112.905  53.298  0.00  0.00    +0.212 HD
ENDBRANCH   3   1
BRANCH  15  16
ATOM     16  O   UNL     1       4.565 111.906  53.535  0.00  0.00    -0.374 OA
ATOM     17  C   UNL     1       5.214 111.872  54.807  0.00  0.00    +0.194 C 
ENDBRANCH  15  16
TORSDOF 3
