REMARK  Name = 3qtx_ligand
REMARK  8 active torsions:
REMARK  status: ('A' for Active; 'I' for Inactive)
REMARK    1  A    between atoms: C2_2  and  N3_3
REMARK    2  A    between atoms: C4_4  and  C5_5
REMARK    3  A    between atoms: C5_5  and  C6_6
REMARK    4  A    between atoms: C5_5  and  O12_12
REMARK    5  A    between atoms: C8_8  and  N17_17
REMARK    6  A    between atoms: N15_15  and  C16_16
REMARK    7  A    between atoms: C22_22  and  S25_25
REMARK    8  A    between atoms: S25_25  and  N28_28
REMARK                            x       y       z     vdW  Elec       q    Type
REMARK                         _______ _______ _______ _____ _____    ______ ____
ROOT
ATOM      1  N   UNL     1     -11.914 -82.073 -86.736  0.00  0.00    -0.110 NA
ATOM      2  C   UNL     1     -11.450 -81.860 -85.501  0.00  0.00    +0.336 A 
ATOM      3  N   UNL     1     -10.337 -82.556 -85.084  0.00  0.00    -0.176 N 
ATOM      4  H   UNL     1     -10.007 -83.307 -85.706  0.00  0.00    +0.271 HD
ATOM     17  S   UNL     1     -12.374 -80.718 -84.589  0.00  0.00    +0.235 S 
ATOM     18  C   UNL     1     -13.391 -80.484 -85.964  0.00  0.00    +0.320 A 
ATOM     31  C   UNL     1     -12.981 -81.312 -87.017  0.00  0.00    +0.332 A 
ENDROOT
BRANCH   3   5
ATOM      5  C   UNL     1      -9.617 -82.358 -83.926  0.00  0.00    +0.110 A 
ATOM      6  C   UNL     1      -9.907 -81.336 -82.942  0.00  0.00    +0.044 A 
ATOM      7  C   UNL     1      -9.075 -81.146 -81.813  0.00  0.00    +0.031 A 
ATOM      8  C   UNL     1      -7.929 -81.959 -81.651  0.00  0.00    +0.107 A 
ATOM     15  C   UNL     1      -7.631 -82.970 -82.598  0.00  0.00    +0.031 A 
ATOM     16  C   UNL     1      -8.462 -83.173 -83.723  0.00  0.00    +0.044 A 
BRANCH   8   9
ATOM      9  S   UNL     1      -6.856 -81.717 -80.301  0.00  0.00    +0.065 S 
ATOM     13  O   UNL     1      -6.504 -83.014 -79.612  0.00  0.00    -0.151 OA
ATOM     14  O   UNL     1      -5.489 -81.091 -80.954  0.00  0.00    -0.151 OA
BRANCH   9  10
ATOM     10  N   UNL     1      -7.382 -80.606 -79.342  0.00  0.00    -0.261 NA
ATOM     11  H   UNL     1      -8.240 -80.135 -79.546  0.00  0.00    +0.164 HD
ATOM     12  H   UNL     1      -6.861 -80.365 -78.523  0.00  0.00    +0.164 HD
ENDBRANCH   9  10
ENDBRANCH   8   9
ENDBRANCH   3   5
BRANCH  31  32
ATOM     32  N   UNL     1     -13.554 -81.382 -88.241  0.00  0.00    -0.240 N 
ATOM     33  H   UNL     1     -13.170 -82.019 -88.954  0.00  0.00    +0.232 HD
ATOM     34  H   UNL     1     -14.374 -80.798 -88.460  0.00  0.00    +0.232 HD
ENDBRANCH  31  32
BRANCH  18  19
ATOM     19  C   UNL     1     -14.448 -79.590 -85.984  0.00  0.00    +0.393 C 
BRANCH  19  22
ATOM     22  C   UNL     1     -14.828 -78.720 -84.824  0.00  0.00    +0.052 A 
ATOM     23  C   UNL     1     -13.844 -77.875 -84.206  0.00  0.00    +0.028 A 
ATOM     24  C   UNL     1     -14.190 -77.046 -83.104  0.00  0.00    +0.010 A 
ATOM     25  C   UNL     1     -15.518 -77.047 -82.602  0.00  0.00    +0.039 A 
ATOM     26  C   UNL     1     -16.541 -77.880 -83.197  0.00  0.00    +0.085 A 
ATOM     30  C   UNL     1     -16.167 -78.716 -84.319  0.00  0.00    +0.059 A 
BRANCH  26  27
ATOM     27  N   UNL     1     -17.795 -77.888 -82.726  0.00  0.00    -0.217 N 
ATOM     28  O   UNL     1     -18.125 -77.198 -81.783  0.00  0.00    -0.488 OA
ATOM     29  O   UNL     1     -18.736 -78.653 -83.272  0.00  0.00    -0.488 OA
ENDBRANCH  26  27
ENDBRANCH  19  22
BRANCH  19  20
ATOM     20  O   UNL     1     -15.208 -79.448 -87.101  0.00  0.00    -0.325 OA
ATOM     21  H   UNL     1     -14.891 -80.037 -87.775  0.00  0.00    +0.226 HD
ENDBRANCH  19  20
ENDBRANCH  18  19
TORSDOF 8
