REMARK  Name = 4OTF
REMARK  9 active torsions:
REMARK  status: ('A' for Active; 'I' for Inactive)
REMARK    1  A    between atoms: C_1  and  C_2
REMARK    2  A    between atoms: C_3  and  C_20
REMARK    3  A    between atoms: C_7  and  N_8
REMARK    4  A    between atoms: C_9  and  C_11
REMARK    5  A    between atoms: N_22  and  C_43
REMARK    6  A    between atoms: N_27  and  C_28
REMARK    7  A    between atoms: C_31  and  C_34
REMARK    8  A    between atoms: N_37  and  C_42
REMARK    9  A    between atoms: N_40  and  C_41
REMARK                            x       y       z     vdW  Elec       q    Type
REMARK                         _______ _______ _______ _____ _____    ______ ____
ROOT
ATOM     21  C   UNL     1     -37.159  28.199  -9.795  0.00  0.00    +0.090 C 
ATOM     22  N   UNL     1     -36.714  27.706 -10.972  0.00  0.00    -0.225 NA
ATOM     23  C   UNL     1     -35.466  27.885 -11.363  0.00  0.00    +0.189 C 
ATOM     24  N   UNL     1     -34.955  27.412 -12.551  0.00  0.00    -0.295 N 
ATOM     25  H   UNL     1     -33.888  27.393 -12.630  0.00  0.00    +0.154 HD
ATOM     41  C   UNL     1     -34.528  28.608 -10.512  0.00  0.00    +0.291 C 
ATOM     42  O   UNL     1     -33.363  28.755 -10.895  0.00  0.00    -0.264 OA
ATOM     43  N   UNL     1     -34.986  29.066  -9.324  0.00  0.00    -0.313 N 
ATOM     44  C   UNL     1     -34.087  29.785  -8.406  0.00  0.00    +0.152 C 
ATOM     45  C   UNL     1     -36.294  28.877  -8.975  0.00  0.00    +0.117 C 
ENDROOT
BRANCH  21  20
ATOM      1  C   UNL     1     -38.071  27.649  -6.950  0.00  0.00    +0.046 C 
ATOM      2  C   UNL     1     -39.047  27.739  -8.115  0.00  0.00    -0.020 A 
ATOM      3  C   UNL     1     -40.418  27.575  -7.870  0.00  0.00    +0.037 A 
ATOM     17  C   UNL     1     -41.333  27.638  -8.920  0.00  0.00    +0.023 A 
ATOM     18  C   UNL     1     -40.889  27.893 -10.209  0.00  0.00    +0.002 A 
ATOM     19  C   UNL     1     -39.531  28.075 -10.467  0.00  0.00    +0.010 A 
ATOM     20  C   UNL     1     -38.593  27.992  -9.433  0.00  0.00    +0.006 A 
BRANCH   3   4
ATOM      4  N   UNL     1     -40.793  27.279  -6.547  0.00  0.00    -0.281 N 
ATOM      5  H   UNL     1     -40.977  26.255  -6.297  0.00  0.00    +0.155 HD
ATOM      6  C   UNL     1     -40.936  28.200  -5.572  0.00  0.00    +0.255 C 
ATOM     16  O   UNL     1     -40.769  29.379  -5.802  0.00  0.00    -0.269 OA
BRANCH   6   7
ATOM      7  C   UNL     1     -41.209  27.813  -4.191  0.00  0.00    +0.075 A 
ATOM      8  S   UNL     1     -41.690  28.981  -2.985  0.00  0.00    -0.088 S 
ATOM      9  C   UNL     1     -41.717  27.817  -1.739  0.00  0.00    -0.006 A 
ATOM     10  C   UNL     1     -42.095  28.125  -0.288  0.00  0.00    +0.043 C 
ATOM     11  C   UNL     1     -42.283  26.822   0.498  0.00  0.00    +0.005 C 
ATOM     12  C   UNL     1     -41.132  25.855   0.160  0.00  0.00    +0.005 C 
ATOM     13  C   UNL     1     -41.262  25.386  -1.297  0.00  0.00    +0.036 C 
ATOM     14  C   UNL     1     -41.330  26.607  -2.215  0.00  0.00    -0.036 A 
ATOM     15  C   UNL     1     -41.033  26.594  -3.587  0.00  0.00    +0.024 A 
ENDBRANCH   6   7
ENDBRANCH   3   4
ENDBRANCH  21  20
BRANCH  24  26
ATOM     26  C   UNL     1     -35.663  26.953 -13.668  0.00  0.00    +0.033 A 
ATOM     27  C   UNL     1     -34.896  26.665 -14.799  0.00  0.00    +0.023 A 
ATOM     28  C   UNL     1     -35.493  26.190 -15.959  0.00  0.00    +0.007 A 
ATOM     29  C   UNL     1     -36.863  26.013 -15.991  0.00  0.00    -0.021 A 
ATOM     39  C   UNL     1     -37.640  26.297 -14.873  0.00  0.00    +0.007 A 
ATOM     40  C   UNL     1     -37.042  26.770 -13.701  0.00  0.00    +0.023 A 
BRANCH  29  30
ATOM     30  C   UNL     1     -37.478  25.503 -17.273  0.00  0.00    +0.174 C 
ATOM     31  N   UNL     1     -37.981  24.143 -17.002  0.00  0.00    -0.289 NA
ATOM     32  C   UNL     1     -36.914  23.141 -17.152  0.00  0.00    +0.106 C 
ATOM     33  C   UNL     1     -39.226  23.792 -17.719  0.00  0.00    +0.104 C 
ATOM     34  C   UNL     1     -40.304  24.812 -17.335  0.00  0.00    +0.123 C 
ATOM     35  N   UNL     1     -39.849  26.152 -17.711  0.00  0.00    -0.302 N 
ATOM     36  C   UNL     1     -40.861  27.138 -18.126  0.00  0.00    +0.132 C 
ATOM     37  C   UNL     1     -38.542  26.478 -17.700  0.00  0.00    +0.237 C 
ATOM     38  O   UNL     1     -38.180  27.595 -18.016  0.00  0.00    -0.274 OA
ENDBRANCH  29  30
ENDBRANCH  24  26
TORSDOF 5
