REMARK  Name = 3EQF
REMARK  5 active torsions:
REMARK  status: ('A' for Active; 'I' for Inactive)
REMARK    1  A    between atoms: C_2  and  O_3
REMARK    2  A    between atoms: C_2  and  C_5
REMARK    3  A    between atoms: O_3  and  C_4
REMARK    4  A    between atoms: C_5  and  O_6
REMARK    5  A    between atoms: C_7  and  C_9
REMARK                            x       y       z     vdW  Elec       q    Type
REMARK                         _______ _______ _______ _____ _____    ______ ____
ROOT
ATOM      3  C   UNL     1      -8.999  67.480  33.047  0.00  0.00    +0.214 C 
ATOM      4  C   UNL     1      -9.101  69.000  32.863  0.00  0.00    +0.106 C 
ATOM      5  C   UNL     1      -9.058  69.572  34.300  0.00  0.00    +0.226 C 
ATOM      6  N   UNL     1      -7.896  70.507  34.398  0.00  0.00    -0.311 N 
ATOM      7  C   UNL     1      -7.920  71.909  34.385  0.00  0.00    +0.052 A 
ATOM      8  C   UNL     1      -6.539  72.304  34.433  0.00  0.00    +0.009 A 
ATOM      9  C   UNL     1      -5.707  71.169  34.453  0.00  0.00    +0.022 A 
ATOM     10  C   UNL     1      -4.304  70.862  34.495  0.00  0.00    +0.052 A 
ATOM     11  C   UNL     1      -3.855  69.534  34.512  0.00  0.00    -0.008 A 
ATOM     12  C   UNL     1      -4.755  68.439  34.488  0.00  0.00    +0.015 A 
ATOM     13  C   UNL     1      -4.652  67.057  34.486  0.00  0.00    +0.008 A 
ATOM     14  C   UNL     1      -3.506  66.251  34.520  0.00  0.00    +0.010 A 
ATOM     15  C   UNL     1      -3.643  64.842  34.510  0.00  0.00    +0.001 A 
ATOM     16  C   UNL     1      -4.916  64.250  34.467  0.00  0.00    +0.002 A 
ATOM     17  C   UNL     1      -6.070  65.055  34.448  0.00  0.00    +0.026 A 
ATOM     18  C   UNL     1      -5.945  66.454  34.453  0.00  0.00    +0.053 A 
ATOM     19  N   UNL     1      -6.855  67.524  34.395  0.00  0.00    -0.306 N 
ATOM     20  C   UNL     1      -6.102  68.744  34.451  0.00  0.00    +0.077 A 
ATOM     21  C   UNL     1      -2.345  69.526  34.562  0.00  0.00    +0.141 C 
ATOM     22  N   UNL     1      -2.025  70.964  34.579  0.00  0.00    -0.307 N 
ATOM     23  H   UNL     1      -1.024  71.339  34.615  0.00  0.00    +0.149 HD
ATOM     24  C   UNL     1      -3.105  71.761  34.545  0.00  0.00    +0.245 C 
ATOM     25  O   UNL     1      -3.086  72.986  34.552  0.00  0.00    -0.270 OA
ATOM     26  C   UNL     1      -6.221  73.686  34.442  0.00  0.00    +0.010 A 
ATOM     27  C   UNL     1      -7.253  74.637  34.403  0.00  0.00    +0.001 A 
ATOM     28  C   UNL     1      -8.600  74.234  34.359  0.00  0.00    +0.002 A 
ATOM     29  C   UNL     1      -8.939  72.866  34.358  0.00  0.00    +0.026 A 
ATOM     30  C   UNL     1      -6.553  70.070  34.429  0.00  0.00    +0.077 A 
ATOM     31  O   UNL     1      -8.844  68.508  35.149  0.00  0.00    -0.327 OA
ATOM     32  C   UNL     1      -8.366  67.409  34.438  0.00  0.00    +0.186 C 
ATOM     33  C   UNL     1      -8.726  66.164  35.292  0.00  0.00    +0.070 C 
ENDROOT
BRANCH   3   2
ATOM      1  O   UNL     1     -10.609  65.618  32.754  0.00  0.00    -0.247 OA
ATOM      2  C   UNL     1     -10.420  66.837  32.982  0.00  0.00    +0.344 C 
BRANCH   2  36
ATOM     36  O   UNL     1     -11.398  67.738  33.197  0.00  0.00    -0.466 OA
ATOM     37  C   UNL     1     -12.739  67.318  33.174  0.00  0.00    +0.280 C 
ENDBRANCH   2  36
ENDBRANCH   3   2
BRANCH   3  34
ATOM     34  O   UNL     1      -8.141  66.915  32.056  0.00  0.00    -0.374 OA
ATOM     35  H   UNL     1      -8.052  65.881  32.218  0.00  0.00    +0.211 HD
ENDBRANCH   3  34
TORSDOF 3
