REMARK  Name = 4MXO
REMARK  13 active torsions:
REMARK  status: ('A' for Active; 'I' for Inactive)
REMARK    1  A    between atoms: C_1  and  O_22
REMARK    2  A    between atoms: O_2  and  C_24
REMARK    3  A    between atoms: O_2  and  C_36
REMARK    4  A    between atoms: C_3  and  C_13
REMARK    5  A    between atoms: C_3  and  N_34
REMARK    6  A    between atoms: C_7  and  C_27
REMARK    7  A    between atoms: C_13  and  C_14
REMARK    8  A    between atoms: C_14  and  O_23
REMARK    9  A    between atoms: C_15  and  N_35
REMARK   10  A    between atoms: N_21  and  C_28
REMARK   11  A    between atoms: N_21  and  C_31
REMARK   12  A    between atoms: O_22  and  C_29
REMARK   13  A    between atoms: O_23  and  C_30
REMARK                            x       y       z     vdW  Elec       q    Type
REMARK                         _______ _______ _______ _____ _____    ______ ____
ROOT
ATOM      3  C   UNL     1      12.239 -38.670  -6.104  0.00  0.00    +0.162 A 
ATOM      4  C   UNL     1      13.593 -38.083  -6.036  0.00  0.00    +0.164 A 
ATOM     16  C   UNL     1      13.860 -36.747  -6.670  0.00  0.00    +0.077 A 
ATOM     17  C   UNL     1      12.747 -36.010  -7.403  0.00  0.00    +0.076 A 
ATOM     18  C   UNL     1      11.370 -36.627  -7.455  0.00  0.00    +0.026 A 
ATOM     19  C   UNL     1      10.196 -35.792  -7.968  0.00  0.00    +0.060 A 
ATOM     20  C   UNL     1      10.470 -34.375  -8.426  0.00  0.00    +0.091 A 
ATOM     21  C   UNL     1      11.869 -33.856  -8.343  0.00  0.00    +0.132 A 
ATOM     36  N   UNL     1      12.943 -34.658  -7.852  0.00  0.00    -0.254 NA
ATOM     37  C   UNL     1      11.121 -37.958  -6.802  0.00  0.00    +0.061 A 
ENDROOT
BRANCH   3   2
ATOM      1  C   UNL     1      10.683 -40.367  -5.627  0.00  0.00    +0.277 C 
ATOM      2  O   UNL     1      11.981 -39.887  -5.525  0.00  0.00    -0.491 OA
ENDBRANCH   3   2
BRANCH  20  22
ATOM     22  C   UNL     1       9.384 -33.481  -8.931  0.00  0.00    +0.103 C 
ATOM     23  N   UNL     1       8.549 -32.810  -9.319  0.00  0.00    -0.191 NA
ENDBRANCH  20  22
BRANCH  19  24
ATOM     24  N   UNL     1       8.847 -36.347  -7.895  0.00  0.00    -0.312 N 
ATOM     25  H   UNL     1       8.936 -37.407  -8.006  0.00  0.00    +0.152 HD
BRANCH  24  26
ATOM     26  C   UNL     1       7.858 -35.899  -8.855  0.00  0.00    +0.053 A 
ATOM     27  C   UNL     1       6.536 -35.409  -8.378  0.00  0.00    +0.064 A 
ATOM     28  C   UNL     1       5.509 -34.940  -9.344  0.00  0.00    +0.045 A 
ATOM     29  C   UNL     1       5.818 -34.957 -10.798  0.00  0.00    +0.084 A 
ATOM     30  C   UNL     1       7.139 -35.445 -11.283  0.00  0.00    +0.140 A 
ATOM     33 CL   UNL     1       4.642 -34.418 -11.931  0.00  0.00    -0.080 Cl
ATOM     34 CL   UNL     1       6.200 -35.389  -6.685  0.00  0.00    -0.082 Cl
ATOM     35  C   UNL     1       8.173 -35.919 -10.320  0.00  0.00    +0.072 A 
BRANCH  30  31
ATOM     31  O   UNL     1       7.420 -35.465 -12.617  0.00  0.00    -0.494 OA
ATOM     32  C   UNL     1       8.729 -35.767 -12.963  0.00  0.00    +0.277 C 
ENDBRANCH  30  31
ENDBRANCH  24  26
ENDBRANCH  19  24
BRANCH   4   5
ATOM      5  O   UNL     1      14.615 -38.774  -5.378  0.00  0.00    -0.488 OA
BRANCH   5   6
ATOM      6  C   UNL     1      15.914 -38.250  -5.388  0.00  0.00    +0.230 C 
BRANCH   6   7
ATOM      7  C   UNL     1      16.924 -39.337  -5.001  0.00  0.00    +0.056 C 
BRANCH   7   8
ATOM      8  C   UNL     1      16.431 -40.060  -3.760  0.00  0.00    +0.088 C 
BRANCH   8   9
ATOM      9  N   UNL     1      17.601 -40.322  -2.860  0.00  0.00    -0.300 NA
ATOM     10  C   UNL     1      18.767 -39.521  -3.147  0.00  0.00    +0.100 C 
ATOM     11  C   UNL     1      19.990 -40.191  -2.600  0.00  0.00    +0.099 C 
ATOM     12  N   UNL     1      19.871 -40.365  -1.181  0.00  0.00    -0.303 NA
ATOM     13  C   UNL     1      18.727 -41.175  -0.860  0.00  0.00    +0.099 C 
ATOM     14  C   UNL     1      21.049 -40.557  -0.343  0.00  0.00    +0.105 C 
ATOM     15  C   UNL     1      17.456 -40.507  -1.415  0.00  0.00    +0.100 C 
ENDBRANCH   8   9
ENDBRANCH   7   8
ENDBRANCH   6   7
ENDBRANCH   5   6
ENDBRANCH   4   5
TORSDOF 10
