REMARK  Name = 4RER
REMARK  5 active torsions:
REMARK  status: ('A' for Active; 'I' for Inactive)
REMARK    1  A    between atoms: C_4  and  N_34
REMARK    2  A    between atoms: C_5  and  O_32
REMARK    3  A    between atoms: C_6  and  C_7
REMARK    4  A    between atoms: O_32  and  C_33
REMARK    5  A    between atoms: N_34  and  C_35
REMARK                            x       y       z     vdW  Elec       q    Type
REMARK                         _______ _______ _______ _____ _____    ______ ____
ROOT
ATOM      1  O   UNL     1      46.792 -28.795   2.947  0.00  0.00    -0.328 OA
ATOM      2  C   UNL     1      47.764 -29.679   3.398  0.00  0.00    +0.174 C 
ATOM      3  N   UNL     1      47.192 -30.860   4.068  0.00  0.00    -0.307 N 
ATOM      4  C   UNL     1      47.674 -32.168   4.125  0.00  0.00    +0.053 A 
ATOM      5  C   UNL     1      48.827 -32.791   3.618  0.00  0.00    +0.026 A 
ATOM      6  C   UNL     1      49.030 -34.141   3.850  0.00  0.00    +0.002 A 
ATOM      7  C   UNL     1      48.127 -34.886   4.578  0.00  0.00    +0.001 A 
ATOM      8  C   UNL     1      46.980 -34.310   5.102  0.00  0.00    +0.010 A 
ATOM      9  C   UNL     1      46.762 -32.950   4.871  0.00  0.00    +0.008 A 
ATOM     10  C   UNL     1      45.672 -32.065   5.282  0.00  0.00    +0.015 A 
ATOM     11  C   UNL     1      44.510 -32.246   6.016  0.00  0.00    -0.008 A 
ATOM     12  C   UNL     1      43.925 -33.462   6.684  0.00  0.00    +0.141 C 
ATOM     13  N   UNL     1      42.675 -33.020   7.307  0.00  0.00    -0.307 N 
ATOM     14  H   UNL     1      42.007 -33.638   7.870  0.00  0.00    +0.149 HD
ATOM     15  C   UNL     1      42.504 -31.711   7.056  0.00  0.00    +0.245 C 
ATOM     16  O   UNL     1      41.550 -31.062   7.448  0.00  0.00    -0.270 OA
ATOM     17  C   UNL     1      43.629 -31.194   6.253  0.00  0.00    +0.052 A 
ATOM     18  C   UNL     1      43.929 -29.909   5.734  0.00  0.00    +0.022 A 
ATOM     19  C   UNL     1      43.274 -28.599   5.772  0.00  0.00    +0.009 A 
ATOM     20  C   UNL     1      42.084 -28.152   6.357  0.00  0.00    +0.010 A 
ATOM     21  C   UNL     1      41.748 -26.814   6.201  0.00  0.00    +0.001 A 
ATOM     22  C   UNL     1      42.560 -25.947   5.492  0.00  0.00    +0.002 A 
ATOM     23  C   UNL     1      43.743 -26.368   4.903  0.00  0.00    +0.026 A 
ATOM     24  C   UNL     1      44.097 -27.710   5.050  0.00  0.00    +0.052 A 
ATOM     25  N   UNL     1      45.192 -28.438   4.608  0.00  0.00    -0.312 N 
ATOM     26  C   UNL     1      45.101 -29.729   4.994  0.00  0.00    +0.077 A 
ATOM     27  C   UNL     1      45.980 -30.802   4.761  0.00  0.00    +0.077 A 
ATOM     28  C   UNL     1      48.345 -30.090   2.047  0.00  0.00    +0.069 C 
ATOM     29  C   UNL     1      48.932 -29.009   4.099  0.00  0.00    +0.187 C 
ATOM     32  C   UNL     1      48.404 -28.099   5.214  0.00  0.00    +0.091 C 
ATOM     36  C   UNL     1      47.332 -27.145   4.648  0.00  0.00    +0.076 C 
ATOM     37  C   UNL     1      46.268 -27.863   3.823  0.00  0.00    +0.224 C 
ENDROOT
BRANCH  32  33
ATOM     33  N   UNL     1      47.819 -28.946   6.256  0.00  0.00    -0.314 NA
ATOM     34  H   UNL     1      47.685 -29.939   5.881  0.00  0.00    +0.122 HD
ATOM     35  C   UNL     1      48.733 -28.969   7.404  0.00  0.00    +0.101 C 
ENDBRANCH  32  33
BRANCH  29  30
ATOM     30  O   UNL     1      49.780 -30.013   4.663  0.00  0.00    -0.374 OA
ATOM     31  C   UNL     1      51.129 -29.609   4.423  0.00  0.00    +0.194 C 
ENDBRANCH  29  30
TORSDOF 2
