REMARK  Name = 2J90
REMARK  4 active torsions:
REMARK  status: ('A' for Active; 'I' for Inactive)
REMARK    1  A    between atoms: C_18  and  C_20
REMARK    2  A    between atoms: C_20  and  C_21
REMARK    3  A    between atoms: C_20  and  C_22
REMARK    4  A    between atoms: C_20  and  C_23
REMARK                            x       y       z     vdW  Elec       q    Type
REMARK                         _______ _______ _______ _____ _____    ______ ____
ROOT
ATOM      1  O   UNL     1      20.521   7.566  19.182  0.00  0.00    -0.267 OA
ATOM      2  C   UNL     1      21.519   7.654  18.442  0.00  0.00    +0.257 C 
ATOM      3  C   UNL     1      22.671   6.828  18.525  0.00  0.00    +0.056 C 
ATOM      4  C   UNL     1      22.840   5.787  19.473  0.00  0.00    -0.000 C 
ATOM      5  C   UNL     1      24.030   5.038  19.498  0.00  0.00    +0.011 C 
ATOM      6  C   UNL     1      25.041   5.312  18.583  0.00  0.00    +0.097 C 
ATOM      7  N   UNL     1      26.240   4.784  18.381  0.00  0.00    -0.231 NA
ATOM      8  C   UNL     1      26.817   5.424  17.375  0.00  0.00    +0.114 C 
ATOM     13  N   UNL     1      26.017   6.376  16.916  0.00  0.00    -0.341 NA
ATOM     14  H   UNL     1      26.225   7.051  16.113  0.00  0.00    +0.167 HD
ATOM     15  C   UNL     1      24.894   6.330  17.654  0.00  0.00    +0.075 C 
ATOM     16  C   UNL     1      24.198   3.991  20.420  0.00  0.00    +0.013 C 
ATOM     17  C   UNL     1      23.189   3.692  21.334  0.00  0.00    +0.039 C 
ATOM     18  C   UNL     1      22.015   4.430  21.323  0.00  0.00    +0.124 C 
ATOM     19  F   UNL     1      21.023   4.155  22.208  0.00  0.00    -0.205 F 
ATOM     20  C   UNL     1      21.845   5.467  20.411  0.00  0.00    +0.047 C 
ATOM     21  C   UNL     1      23.732   7.084  17.624  0.00  0.00    +0.015 C 
ATOM     22  C   UNL     1      23.649   8.091  16.654  0.00  0.00    +0.028 C 
ATOM     23  C   UNL     1      22.520   8.879  16.559  0.00  0.00    +0.086 C 
ATOM     24  N   UNL     1      21.461   8.639  17.452  0.00  0.00    -0.329 N 
ATOM     25  H   UNL     1      20.575   9.234  17.371  0.00  0.00    +0.168 HD
ENDROOT
BRANCH   8   9
ATOM      9  C   UNL     1      28.240   5.111  16.847  0.00  0.00    +0.020 C 
ATOM     10  C   UNL     1      28.892   6.409  16.364  0.00  0.00    +0.019 C 
ATOM     11  C   UNL     1      29.069   4.601  18.023  0.00  0.00    +0.019 C 
ATOM     12  C   UNL     1      28.162   4.055  15.763  0.00  0.00    +0.019 C 
ENDBRANCH   8   9
TORSDOF 1
