REMARK  Name = HBD
REMARK  2 active torsions:
REMARK  status: ('A' for Active; 'I' for Inactive)
REMARK    1  A    between atoms: C1_1  and  C1'_7
REMARK    2  A    between atoms: C1_11  and  C1'_17
REMARK                            x       y       z     vdW  Elec       q    Type
REMARK                         _______ _______ _______ _____ _____    ______ ____
ROOT
ATOM      1  C   UNL     1     150.567   3.931 129.433  0.00  0.00    +0.057 A 
ATOM      2  C   UNL     1     150.404   3.696 130.793  0.00  0.00    +0.008 A 
ATOM      3  C   UNL     1     150.442   2.410 131.299  0.00  0.00    +0.042 A 
ATOM      4  C   UNL     1     150.647   1.336 130.448  0.00  0.00    +0.196 A 
ATOM      5  O   UNL     1     150.735   0.074 130.955  0.00  0.00    -0.287 OA
ATOM      6  C   UNL     1     150.797   1.556 129.088  0.00  0.00    +0.042 A 
ATOM     10  C   UNL     1     150.759   2.845 128.588  0.00  0.00    +0.008 A 
ENDROOT
BRANCH   1   7
ATOM      7  C   UNL     1     150.554   5.333 128.893  0.00  0.00    +0.284 C 
ATOM      8  O   UNL     1     150.808   6.278 129.648  0.00  0.00    -0.267 OA
ATOM      9  N   UNL     1     150.272   5.497 127.614  0.00  0.00    -0.084 NA
ENDBRANCH   1   7
TORSDOF 1
