REMARK  Name = 4MNE
REMARK  8 active torsions:
REMARK  status: ('A' for Active; 'I' for Inactive)
REMARK    1  A    between atoms: C_1  and  C_2
REMARK    2  A    between atoms: C_2  and  C_3
REMARK    3  A    between atoms: C_2  and  O_24
REMARK    4  A    between atoms: C_3  and  O_4
REMARK    5  A    between atoms: O_4  and  N_5
REMARK    6  A    between atoms: C_6  and  C_8
REMARK    7  A    between atoms: C_9  and  N_17
REMARK    8  A    between atoms: N_17  and  C_18
REMARK                            x       y       z     vdW  Elec       q    Type
REMARK                         _______ _______ _______ _____ _____    ______ ____
ROOT
ATOM     10  C   UNL     1      -2.164 -18.203 -42.728  0.00  0.00    +0.214 A 
ATOM     11  O   UNL     1      -1.214 -19.093 -42.343  0.00  0.00    -0.445 OA
ATOM     12  C   UNL     1      -1.788 -20.197 -41.864  0.00  0.00    +0.176 A 
ATOM     13  C   UNL     1      -1.261 -21.385 -41.387  0.00  0.00    +0.184 A 
ATOM     14  F   UNL     1       0.085 -21.531 -41.388  0.00  0.00    -0.200 F 
ATOM     15  C   UNL     1      -2.126 -22.368 -40.926  0.00  0.00    +0.152 A 
ATOM     16  N   UNL     1      -3.442 -22.193 -40.945  0.00  0.00    -0.260 NA
ATOM     17  C   UNL     1      -3.991 -21.083 -41.403  0.00  0.00    +0.124 A 
ATOM     18  C   UNL     1      -3.190 -20.042 -41.876  0.00  0.00    +0.063 A 
ATOM     19  C   UNL     1      -3.426 -18.716 -42.456  0.00  0.00    +0.092 A 
ENDROOT
BRANCH  10   9
ATOM      7  N   UNL     1      -0.610 -16.529 -43.480  0.00  0.00    -0.188 N 
ATOM      8  H   UNL     1       0.158 -17.216 -43.193  0.00  0.00    +0.183 HD
ATOM      9  C   UNL     1      -1.898 -16.931 -43.315  0.00  0.00    +0.304 C 
ATOM     30  O   UNL     1      -2.832 -16.226 -43.659  0.00  0.00    -0.265 OA
BRANCH   7   6
ATOM      6  O   UNL     1      -0.192 -15.258 -44.008  0.00  0.00    -0.277 OA
BRANCH   6   5
ATOM      5  C   UNL     1      -0.590 -14.903 -45.326  0.00  0.00    +0.221 C 
BRANCH   5   2
ATOM      1  C   UNL     1       1.569 -15.184 -46.516  0.00  0.00    +0.040 C 
ATOM      2  C   UNL     1       0.163 -15.749 -46.329  0.00  0.00    +0.139 C 
BRANCH   2   3
ATOM      3  O   UNL     1      -0.578 -15.618 -47.523  0.00  0.00    -0.390 OA
ATOM      4  H   UNL     1      -0.648 -14.603 -47.783  0.00  0.00    +0.210 HD
ENDBRANCH   2   3
ENDBRANCH   5   2
ENDBRANCH   6   5
ENDBRANCH   7   6
ENDBRANCH  10   9
BRANCH  19  20
ATOM     20  N   UNL     1      -4.640 -18.083 -42.699  0.00  0.00    -0.309 N 
ATOM     21  H   UNL     1      -4.867 -17.790 -43.703  0.00  0.00    +0.152 HD
BRANCH  20  22
ATOM     22  C   UNL     1      -5.589 -17.807 -41.689  0.00  0.00    +0.067 A 
ATOM     23  C   UNL     1      -6.679 -16.996 -41.982  0.00  0.00    +0.145 A 
ATOM     24  F   UNL     1      -6.796 -16.472 -43.210  0.00  0.00    -0.203 F 
ATOM     25  C   UNL     1      -7.638 -16.722 -41.021  0.00  0.00    +0.054 A 
ATOM     26  C   UNL     1      -7.520 -17.249 -39.740  0.00  0.00    +0.016 A 
ATOM     27  I   UNL     1      -8.964 -16.817 -38.273  0.00  0.00    -0.044 I 
ATOM     28  C   UNL     1      -6.431 -18.064 -39.442  0.00  0.00    +0.016 A 
ATOM     29  C   UNL     1      -5.479 -18.342 -40.404  0.00  0.00    +0.027 A 
ENDBRANCH  20  22
ENDBRANCH  19  20
TORSDOF 7
