REMARK  Name = 5OXG
REMARK  3 active torsions:
REMARK  status: ('A' for Active; 'I' for Inactive)
REMARK    1  A    between atoms: N_3  and  C_7
REMARK    2  A    between atoms: C_10  and  C_13
REMARK    3  A    between atoms: C_17  and  C_22
REMARK                            x       y       z     vdW  Elec       q    Type
REMARK                         _______ _______ _______ _____ _____    ______ ____
ROOT
ATOM     11  C   UNL     1     185.373 -45.159  17.468  0.00  0.00    -0.001 C 
ATOM     12  C   UNL     1     185.985 -46.390  17.736  0.00  0.00    +0.118 C 
ATOM     13  N   UNL     1     186.245 -46.769  19.030  0.00  0.00    -0.244 N 
ATOM     14  N   UNL     1     186.843 -47.898  19.527  0.00  0.00    -0.298 N 
ATOM     15  H   UNL     1     187.233 -48.704  18.941  0.00  0.00    +0.187 HD
ATOM     16  C   UNL     1     186.860 -47.830  20.865  0.00  0.00    +0.114 A 
ATOM     17  C   UNL     1     186.273 -46.637  21.267  0.00  0.00    +0.044 A 
ATOM     28  C   UNL     1     185.894 -45.994  20.052  0.00  0.00    +0.157 A 
ATOM     29  N   UNL     1     185.285 -44.787  19.834  0.00  0.00    -0.260 NA
ATOM     30  C   UNL     1     185.003 -44.379  18.579  0.00  0.00    +0.181 C 
ENDROOT
BRANCH  17  18
ATOM     18  C   UNL     1     186.159 -46.238  22.612  0.00  0.00    -0.004 A 
ATOM     19  C   UNL     1     184.952 -45.793  23.261  0.00  0.00    +0.008 A 
ATOM     20  C   UNL     1     183.693 -45.651  22.577  0.00  0.00    +0.012 A 
ATOM     21  C   UNL     1     182.580 -45.200  23.281  0.00  0.00    +0.020 A 
ATOM     22  C   UNL     1     182.685 -44.899  24.645  0.00  0.00    +0.111 A 
ATOM     23  N   UNL     1     183.861 -45.027  25.295  0.00  0.00    -0.255 NA
ATOM     24  C   UNL     1     184.981 -45.469  24.608  0.00  0.00    +0.071 A 
ATOM     25  C   UNL     1     186.177 -45.572  25.371  0.00  0.00    +0.028 A 
ATOM     26  C   UNL     1     187.339 -46.033  24.754  0.00  0.00    +0.003 A 
ATOM     27  C   UNL     1     187.321 -46.347  23.388  0.00  0.00    +0.009 A 
ENDBRANCH  17  18
BRANCH  11  10
ATOM      7  C   UNL     1     184.361 -44.072  13.486  0.00  0.00    +0.030 A 
ATOM      8  C   UNL     1     185.416 -44.921  13.745  0.00  0.00    +0.024 A 
ATOM      9  C   UNL     1     185.758 -45.273  15.047  0.00  0.00    +0.010 A 
ATOM     10  C   UNL     1     185.059 -44.777  16.145  0.00  0.00    -0.018 A 
ATOM     31  C   UNL     1     183.966 -43.948  15.880  0.00  0.00    +0.010 A 
ATOM     32  C   UNL     1     183.626 -43.612  14.577  0.00  0.00    +0.024 A 
BRANCH   7   6
ATOM      1  C   UNL     1     182.820 -42.339  10.427  0.00  0.00    +0.100 C 
ATOM      2  N   UNL     1     182.534 -43.485   9.609  0.00  0.00    -0.313 NA
ATOM      3  H   UNL     1     182.595 -43.196   8.581  0.00  0.00    +0.122 HD
ATOM      4  C   UNL     1     183.459 -44.578   9.840  0.00  0.00    +0.100 C 
ATOM      5  C   UNL     1     183.658 -44.902  11.318  0.00  0.00    +0.120 C 
ATOM      6  N   UNL     1     184.019 -43.764  12.130  0.00  0.00    -0.328 N 
ATOM     33  C   UNL     1     183.097 -42.684  11.887  0.00  0.00    +0.120 C 
ENDBRANCH   7   6
ENDBRANCH  11  10
TORSDOF 3
