REMARK  Name = 5VD2
REMARK  6 active torsions:
REMARK  status: ('A' for Active; 'I' for Inactive)
REMARK    1  A    between atoms: C_1  and  C_2
REMARK    2  A    between atoms: N_4  and  C_5
REMARK    3  A    between atoms: C_5  and  C_6
REMARK    4  A    between atoms: C_17  and  N_19
REMARK    5  A    between atoms: C_23  and  C_31
REMARK    6  A    between atoms: N_26  and  C_27
REMARK                            x       y       z     vdW  Elec       q    Type
REMARK                         _______ _______ _______ _____ _____    ______ ____
ROOT
ATOM      6  C   UNL     1      -9.621  10.303   8.041  0.00  0.00    +0.234 C 
ATOM      7  N   UNL     1      -8.473  10.206   8.797  0.00  0.00    -0.286 N 
ATOM      8  C   UNL     1      -8.327  10.380  10.207  0.00  0.00    +0.107 C 
ATOM      9  C   UNL     1      -7.427   9.208  10.312  0.00  0.00    -0.020 A 
ATOM     10  C   UNL     1      -7.258   8.233  11.306  0.00  0.00    +0.029 A 
ATOM     11  C   UNL     1      -6.295   7.211  11.109  0.00  0.00    +0.034 A 
ATOM     30  C   UNL     1      -5.526   7.216   9.915  0.00  0.00    +0.024 A 
ATOM     31  C   UNL     1      -5.698   8.198   8.915  0.00  0.00    +0.007 A 
ATOM     32  C   UNL     1      -6.662   9.185   9.144  0.00  0.00    -0.022 A 
ATOM     33  C   UNL     1      -7.573  11.746  10.289  0.00  0.00    +0.029 C 
ATOM     34  C   UNL     1      -6.665  11.684   9.030  0.00  0.00    +0.029 C 
ATOM     35  C   UNL     1      -7.113  10.341   8.357  0.00  0.00    +0.107 C 
ATOM     36  O   UNL     1      -9.584   9.958   6.828  0.00  0.00    -0.274 OA
ENDROOT
BRANCH  11  12
ATOM     12  N   UNL     1      -6.104   6.260  12.069  0.00  0.00    -0.284 N 
ATOM     13  H   UNL     1      -6.653   6.428  12.888  0.00  0.00    +0.155 HD
ATOM     14  C   UNL     1      -5.341   5.132  12.173  0.00  0.00    +0.221 A 
ATOM     15  N   UNL     1      -4.489   4.751  11.198  0.00  0.00    -0.199 NA
ATOM     16  C   UNL     1      -3.723   3.633  11.273  0.00  0.00    +0.136 A 
ATOM     17  N   UNL     1      -2.896   3.337  10.237  0.00  0.00    -0.326 N 
ATOM     18  H   UNL     1      -2.030   3.067  10.658  0.00  0.00    +0.148 HD
ATOM     23  C   UNL     1      -3.793   2.807  12.424  0.00  0.00    +0.113 A 
ATOM     28  C   UNL     1      -4.688   3.223  13.422  0.00  0.00    +0.130 A 
ATOM     29  N   UNL     1      -5.412   4.348  13.273  0.00  0.00    -0.222 NA
BRANCH  17  19
ATOM     19  C   UNL     1      -2.547   4.304   9.244  0.00  0.00    +0.072 C 
ATOM     20  C   UNL     1      -1.499   3.782   8.238  0.00  0.00    +0.022 C 
ATOM     21  C   UNL     1      -2.333   4.445   7.129  0.00  0.00    +0.003 C 
ATOM     22  C   UNL     1      -3.540   4.326   8.066  0.00  0.00    +0.022 C 
ENDBRANCH  17  19
BRANCH  23  24
ATOM     24  C   UNL     1      -3.010   1.554  12.605  0.00  0.00    +0.422 C 
ATOM     25  F   UNL     1      -3.286   0.942  13.789  0.00  0.00    -0.166 F 
ATOM     26  F   UNL     1      -3.335   0.685  11.612  0.00  0.00    -0.166 F 
ATOM     27  F   UNL     1      -1.643   1.734  12.575  0.00  0.00    -0.166 F 
ENDBRANCH  23  24
ENDBRANCH  11  12
BRANCH   6   5
ATOM      5  C   UNL     1     -10.904  10.807   8.607  0.00  0.00    +0.200 C 
BRANCH   5   3
ATOM      1  C   UNL     1     -14.427  10.796   7.230  0.00  0.00    +0.109 C 
ATOM      2  C   UNL     1     -13.280  10.437   8.086  0.00  0.00    +0.210 C 
ATOM      3  N   UNL     1     -12.009  10.759   7.699  0.00  0.00    -0.307 N 
ATOM      4  H   UNL     1     -11.889  11.175   6.798  0.00  0.00    +0.149 HD
ATOM     37  O   UNL     1     -13.503   9.829   9.170  0.00  0.00    -0.276 OA
ENDBRANCH   5   3
ENDBRANCH   6   5
TORSDOF 5
