REMARK  Name = 4cfu_ligand
REMARK  6 active torsions:
REMARK  status: ('A' for Active; 'I' for Inactive)
REMARK    1  A    between atoms: CAV_6  and  CAU_7
REMARK    2  A    between atoms: CAU_7  and  O6_8
REMARK    3  A    between atoms: O6_8  and  C6_9
REMARK    4  A    between atoms: C8_18  and  CAJ_19
REMARK    5  A    between atoms: CAN_23  and  CAQ_24
REMARK    6  A    between atoms: CAO_27  and  CAP_28
REMARK                            x       y       z     vdW  Elec       q    Type
REMARK                         _______ _______ _______ _____ _____    ______ ____
ROOT
ATOM      5  C   UNL     1      -7.522  21.509 -23.021  0.00  0.00    +0.195 A 
ATOM      6  C   UNL     1      -7.241  22.504 -23.901  0.00  0.00    +0.150 A 
ATOM      7  N   UNL     1      -6.065  23.081 -24.306  0.00  0.00    -0.246 N 
ATOM      8  H   UNL     1      -5.117  22.840 -23.983  0.00  0.00    +0.231 HD
ATOM      9  C   UNL     1      -6.392  24.021 -25.205  0.00  0.00    +0.142 A 
ATOM     20  N   UNL     1      -7.744  24.031 -25.313  0.00  0.00    -0.294 NA
ATOM     21  C   UNL     1      -8.281  23.083 -24.553  0.00  0.00    +0.085 A 
ATOM     22  N   UNL     1      -9.570  22.745 -24.319  0.00  0.00    -0.287 NA
ATOM     23  C   UNL     1      -9.824  21.783 -23.411  0.00  0.00    +0.152 A 
ATOM     24  N   UNL     1     -11.064  21.391 -23.172  0.00  0.00    -0.313 N 
ATOM     25  H   UNL     1     -11.848  21.822 -23.682  0.00  0.00    +0.179 HD
ATOM     26  H   UNL     1     -11.246  20.654 -22.475  0.00  0.00    +0.179 HD
ATOM     27  N   UNL     1      -8.807  21.146 -22.751  0.00  0.00    -0.244 NA
ENDROOT
BRANCH   9  10
ATOM     10  C   UNL     1      -5.574  24.864 -25.891  0.00  0.00    +0.044 A 
ATOM     11  C   UNL     1      -4.452  25.517 -25.274  0.00  0.00    -0.010 A 
ATOM     12  C   UNL     1      -4.137  25.274 -23.893  0.00  0.00    +0.101 C 
ATOM     13  C   UNL     1      -3.638  26.382 -26.039  0.00  0.00    +0.018 A 
ATOM     17  C   UNL     1      -3.933  26.648 -27.388  0.00  0.00    +0.018 A 
ATOM     18  C   UNL     1      -5.036  25.999 -27.986  0.00  0.00    -0.001 A 
ATOM     19  C   UNL     1      -5.855  25.138 -27.234  0.00  0.00    +0.021 A 
BRANCH  13  14
ATOM     14  C   UNL     1      -2.534  27.024 -25.423  0.00  0.00    +0.060 C 
ATOM     15  O   UNL     1      -1.332  26.723 -25.716  0.00  0.00    -0.563 OA
ATOM     16  O   UNL     1      -2.756  27.864 -24.508  0.00  0.00    -0.563 OA
ENDBRANCH  13  14
ENDBRANCH   9  10
BRANCH   5   4
ATOM      4  O   UNL     1      -6.437  20.903 -22.436  0.00  0.00    -0.294 OA
BRANCH   4   3
ATOM      3  C   UNL     1      -6.718  20.105 -21.250  0.00  0.00    +0.204 C 
BRANCH   3   2
ATOM      1  C   UNL     1      -5.980  21.644 -19.415  0.00  0.00    +0.006 C 
ATOM      2  C   UNL     1      -5.578  20.556 -20.434  0.00  0.00    +0.020 C 
ATOM     28  C   UNL     1      -4.926  19.388 -19.709  0.00  0.00    +0.006 C 
ATOM     29  C   UNL     1      -3.498  19.983 -19.285  0.00  0.00    +0.000 C 
ATOM     30  C   UNL     1      -3.707  21.241 -18.382  0.00  0.00    +0.000 C 
ATOM     31  C   UNL     1      -4.715  22.293 -18.963  0.00  0.00    +0.000 C 
ENDBRANCH   3   2
ENDBRANCH   4   3
ENDBRANCH   5   4
TORSDOF 5
