REMARK  Name = 5T1H
REMARK  5 active torsions:
REMARK  status: ('A' for Active; 'I' for Inactive)
REMARK    1  A    between atoms: C_5  and  C_6
REMARK    2  A    between atoms: C_8  and  N_17
REMARK    3  A    between atoms: C_10  and  C_12
REMARK    4  A    between atoms: C_13  and  N_17
REMARK    5  A    between atoms: C_23  and  C_24
REMARK                            x       y       z     vdW  Elec       q    Type
REMARK                         _______ _______ _______ _____ _____    ______ ____
ROOT
ATOM      9  C   UNL     1      18.874 -67.888  -2.139  0.00  0.00    +0.085 C 
ATOM     10  N   UNL     1      19.141 -67.814  -3.453  0.00  0.00    -0.223 NA
ATOM     11  C   UNL     1      20.259 -68.426  -3.896  0.00  0.00    +0.322 C 
ATOM     12  N   UNL     1      21.119 -69.113  -3.057  0.00  0.00    -0.091 N 
ATOM     13  N   UNL     1      22.187 -69.653  -3.726  0.00  0.00    -0.197 N 
ATOM     14  H   UNL     1      22.994 -70.228  -3.322  0.00  0.00    +0.194 HD
ATOM     15  C   UNL     1      21.990 -69.300  -4.985  0.00  0.00    +0.131 C 
ATOM     16  C   UNL     1      20.881 -69.213  -1.705  0.00  0.00    +0.283 C 
ATOM     22  C   UNL     1      20.821 -68.542  -5.164  0.00  0.00    +0.123 C 
ATOM     25  C   UNL     1      19.738 -68.589  -1.239  0.00  0.00    +0.123 C 
ENDROOT
BRANCH   9   8
ATOM      4  C   UNL     1      16.677 -66.464  -2.198  0.00  0.00    -0.000 A 
ATOM      5  C   UNL     1      15.696 -66.064  -1.242  0.00  0.00    +0.017 A 
ATOM      6  C   UNL     1      15.963 -66.531  -0.002  0.00  0.00    +0.046 A 
ATOM      7  S   UNL     1      17.384 -67.459   0.068  0.00  0.00    -0.095 S 
ATOM      8  C   UNL     1      17.673 -67.239  -1.627  0.00  0.00    +0.045 A 
BRANCH   4   3
ATOM      1  C   UNL     1      16.630 -66.611  -5.983  0.00  0.00    +0.071 C 
ATOM      2  C   UNL     1      16.741 -66.990  -4.683  0.00  0.00    +0.015 C 
ATOM      3  C   UNL     1      16.559 -66.053  -3.609  0.00  0.00    -0.001 C 
ATOM     26  C   UNL     1      16.265 -64.754  -3.960  0.00  0.00    +0.094 C 
ATOM     27  N   UNL     1      16.158 -64.391  -5.269  0.00  0.00    -0.329 N 
ATOM     28  H   UNL     1      15.930 -63.368  -5.486  0.00  0.00    +0.168 HD
ATOM     29  C   UNL     1      16.324 -65.251  -6.330  0.00  0.00    +0.249 C 
ATOM     30  O   UNL     1      16.205 -64.815  -7.488  0.00  0.00    -0.268 OA
ENDBRANCH   4   3
ENDBRANCH   9   8
BRANCH  16  17
ATOM     17  N   UNL     1      21.802 -69.931  -0.898  0.00  0.00    -0.234 N 
ATOM     18  H   UNL     1      22.655 -70.376  -1.366  0.00  0.00    +0.291 HD
BRANCH  17  19
ATOM     19  C   UNL     1      21.632 -70.088   0.551  0.00  0.00    +0.165 C 
ATOM     20  C   UNL     1      22.327 -71.206   1.225  0.00  0.00    +0.051 C 
ATOM     21  C   UNL     1      20.849 -71.233   1.065  0.00  0.00    +0.051 C 
ENDBRANCH  17  19
ENDBRANCH  16  17
BRANCH  22  23
ATOM     23  C   UNL     1      20.296 -67.995  -6.376  0.00  0.00    +0.103 C 
ATOM     24  N   UNL     1      19.837 -67.538  -7.319  0.00  0.00    -0.191 NA
ENDBRANCH  22  23
TORSDOF 5
