REMARK  Name = 2hy0_ligand
REMARK  4 active torsions:
REMARK  status: ('A' for Active; 'I' for Inactive)
REMARK    1  A    between atoms: C1_2  and  C14_16
REMARK    2  A    between atoms: C4_6  and  C22_24
REMARK    3  A    between atoms: C11_13  and  C13_15
REMARK    4  A    between atoms: C13_15  and  N24_27
REMARK                            x       y       z     vdW  Elec       q    Type
REMARK                         _______ _______ _______ _____ _____    ______ ____
ROOT
ATOM      7  C   UNL     1      12.927  -2.354  11.892  0.00  0.00    -0.044 A 
ATOM      8  C   UNL     1      14.298  -2.725  11.570  0.00  0.00    -0.005 A 
ATOM      9  C   UNL     1      15.032  -1.876  10.676  0.00  0.00    +0.008 A 
ATOM     10  C   UNL     1      16.378  -2.141  10.437  0.00  0.00    +0.034 A 
ATOM     11  C   UNL     1      17.121  -1.275   9.578  0.00  0.00    +0.075 A 
ATOM     12  C   UNL     1      16.400  -0.101   8.961  0.00  0.00    +0.221 A 
ATOM     13  O   UNL     1      16.931   0.671   8.169  0.00  0.00    -0.397 OA
ATOM     14  N   UNL     1      15.092   0.131   9.287  0.00  0.00    -0.228 N 
ATOM     15  H   UNL     1      14.639   0.941   8.914  0.00  0.00    +0.238 HD
ATOM     34  C   UNL     1      14.378  -0.709  10.109  0.00  0.00    +0.087 A 
ATOM     35  C   UNL     1      13.044  -0.315  10.399  0.00  0.00    +0.018 A 
ATOM     36  C   UNL     1      12.346  -1.141  11.320  0.00  0.00    -0.010 A 
ENDROOT
BRANCH  11  16
ATOM     16  C   UNL     1      18.566  -1.424   9.276  0.00  0.00    +0.064 A 
ATOM     17  N   UNL     1      19.317  -0.560   8.562  0.00  0.00    -0.279 N 
ATOM     18  H   UNL     1      18.969   0.328   8.174  0.00  0.00    +0.221 HD
ATOM     19  C   UNL     1      20.614  -1.018   8.418  0.00  0.00    +0.057 A 
ATOM     20  C   UNL     1      21.769  -0.510   7.692  0.00  0.00    +0.005 A 
ATOM     21  C   UNL     1      23.017  -1.270   7.727  0.00  0.00    -0.020 A 
ATOM     22  C   UNL     1      23.058  -2.523   8.497  0.00  0.00    -0.016 A 
ATOM     31  C   UNL     1      21.902  -3.018   9.244  0.00  0.00    -0.024 A 
ATOM     32  C   UNL     1      20.663  -2.275   9.200  0.00  0.00    -0.033 A 
ATOM     33  C   UNL     1      19.398  -2.486   9.731  0.00  0.00    -0.029 A 
BRANCH  22  23
ATOM     23  C   UNL     1      24.303  -3.397   8.460  0.00  0.00    +0.187 C 
BRANCH  23  24
ATOM     24  N   UNL     1      24.493  -4.103   7.164  0.00  0.00    +0.246 N 
ATOM     25  H   UNL     1      24.864  -3.437   6.504  0.00  0.00    +0.205 HD
ATOM     26  C   UNL     1      23.200  -4.596   6.645  0.00  0.00    +0.132 C 
ATOM     27  C   UNL     1      23.344  -5.242   5.269  0.00  0.00    +0.051 C 
ATOM     28  C   UNL     1      24.287  -6.430   5.379  0.00  0.00    +0.010 C 
ATOM     29  C   UNL     1      25.625  -5.900   5.894  0.00  0.00    +0.051 C 
ATOM     30  C   UNL     1      25.453  -5.223   7.265  0.00  0.00    +0.132 C 
ENDBRANCH  23  24
ENDBRANCH  22  23
ENDBRANCH  11  16
BRANCH   7   6
ATOM      1  C   UNL     1      12.416  -4.435  13.423  0.00  0.00    +0.070 A 
ATOM      2  N   UNL     1      11.324  -5.003  13.982  0.00  0.00    -0.218 NA
ATOM      3  N   UNL     1      10.304  -4.105  13.920  0.00  0.00    -0.219 N 
ATOM      4  H   UNL     1       9.397  -4.181  14.402  0.00  0.00    +0.259 HD
ATOM      5  C   UNL     1      10.699  -3.086  13.105  0.00  0.00    +0.157 A 
ATOM      6  C   UNL     1      12.070  -3.215  12.791  0.00  0.00    -0.007 A 
ENDBRANCH   7   6
TORSDOF 4
