REMARK  Name = 5oue
REMARK  6 active torsions:
REMARK  status: ('A' for Active; 'I' for Inactive)
REMARK    1  A    between atoms: C2_2  and  C3_18
REMARK    2  A    between atoms: C4_3  and  C5_4
REMARK    3  A    between atoms: C4_3  and  N_19
REMARK    4  A    between atoms: C5_4  and  C6_5
REMARK    5  A    between atoms: C11_8  and  C12_9
REMARK    6  A    between atoms: C3_18  and  N_19
REMARK                            x       y       z     vdW  Elec       q    Type
REMARK                         _______ _______ _______ _____ _____    ______ ____
ROOT
ATOM     10  C   UNL     1       4.844 138.937 352.100  0.00  0.00    -0.033 A 
ATOM     11  C   UNL     1       3.727 139.375 351.403  0.00  0.00    +0.026 A 
ATOM     12  C   UNL     1       3.528 140.721 351.177  0.00  0.00    +0.049 A 
ATOM     13  C   UNL     1       4.426 141.682 351.639  0.00  0.00    +0.000 A 
ATOM     14  C   UNL     1       5.533 141.233 352.355  0.00  0.00    +0.010 A 
ATOM     21 CL   UNL     1       2.124 141.196 350.277  0.00  0.00    -0.084 Cl
ATOM     22  C   UNL     1       5.734 139.883 352.578  0.00  0.00    +0.006 A 
ENDROOT
BRANCH  13  15
ATOM     15  C   UNL     1       4.289 143.142 351.377  0.00  0.00    -0.017 A 
ATOM     16  C   UNL     1       3.252 143.878 351.942  0.00  0.00    +0.009 A 
ATOM     17  C   UNL     1       3.128 145.234 351.693  0.00  0.00    +0.001 A 
ATOM     18  C   UNL     1       4.033 145.877 350.878  0.00  0.00    +0.000 A 
ATOM     19  C   UNL     1       5.065 145.164 350.310  0.00  0.00    +0.001 A 
ATOM     20  C   UNL     1       5.196 143.809 350.557  0.00  0.00    +0.009 A 
ENDBRANCH  13  15
BRANCH  10   9
ATOM      9  C   UNL     1       5.099 137.461 352.286  0.00  0.00    +0.116 C 
BRANCH   9   8
ATOM      8  N   UNL     1       5.419 137.099 353.665  0.00  0.00    -0.190 NA
BRANCH   8   7
ATOM      7  C   UNL     1       5.556 135.655 353.848  0.00  0.00    +0.087 C 
BRANCH   7   6
ATOM      6  C   UNL     1       6.993 135.224 354.002  0.00  0.00    +0.073 C 
BRANCH   6   5
ATOM      1  N   UNL     1       7.943 133.484 355.651  0.00  0.00    -0.242 NA
ATOM      2  C   UNL     1       7.750 132.176 355.894  0.00  0.00    +0.196 A 
ATOM      3  N   UNL     1       6.851 131.669 355.071  0.00  0.00    -0.184 NA
ATOM      4  C   UNL     1       6.443 132.702 354.258  0.00  0.00    +0.107 A 
ATOM      5  C   UNL     1       7.126 133.862 354.612  0.00  0.00    +0.059 A 
ENDBRANCH   6   5
ENDBRANCH   7   6
ENDBRANCH   8   7
ENDBRANCH   9   8
ENDBRANCH  10   9
TORSDOF 6
