REMARK  Name = 3piy_ligand
REMARK  10 active torsions:
REMARK  status: ('A' for Active; 'I' for Inactive)
REMARK    1  A    between atoms: C9_9  and  C30_30
REMARK    2  A    between atoms: C9_9  and  C31_31
REMARK    3  A    between atoms: N10_10  and  C14_14
REMARK    4  A    between atoms: C12_12  and  O27_27
REMARK    5  A    between atoms: C15_15  and  O29_29
REMARK    6  A    between atoms: C16_16  and  O28_28
REMARK    7  A    between atoms: C18_18  and  N21_21
REMARK    8  A    between atoms: O27_27  and  C32_32
REMARK    9  A    between atoms: O28_28  and  C33_33
REMARK   10  A    between atoms: O29_29  and  C34_34
REMARK                            x       y       z     vdW  Elec       q    Type
REMARK                         _______ _______ _______ _____ _____    ______ ____
ROOT
ATOM     13  N   UNL     1     -17.879   5.862 -15.785  0.00  0.00    -0.250 N 
ATOM     14  H   UNL     1     -18.303   5.733 -14.866  0.00  0.00    +0.216 HD
ATOM     15  C   UNL     1     -18.707   5.688 -16.880  0.00  0.00    +0.170 A 
ATOM     16  C   UNL     1     -20.035   5.313 -16.640  0.00  0.00    +0.190 A 
ATOM     17  F   UNL     1     -20.459   5.144 -15.353  0.00  0.00    -0.186 F 
ATOM     18  C   UNL     1     -20.869   5.128 -17.734  0.00  0.00    +0.117 A 
ATOM     19  N   UNL     1     -20.394   5.317 -18.964  0.00  0.00    -0.272 NA
ATOM     20  C   UNL     1     -19.134   5.663 -19.148  0.00  0.00    +0.189 A 
ATOM     21  N   UNL     1     -18.703   5.851 -20.455  0.00  0.00    -0.257 N 
ATOM     22  H   UNL     1     -19.347   5.572 -21.195  0.00  0.00    +0.214 HD
ATOM     35  N   UNL     1     -18.298   5.838 -18.129  0.00  0.00    -0.237 NA
ENDROOT
BRANCH  13  12
ATOM      1  N   UNL     1     -14.219   7.638 -13.435  0.00  0.00    -0.220 N 
ATOM      2  H   UNL     1     -14.745   7.612 -12.561  0.00  0.00    +0.230 HD
ATOM      3  C   UNL     1     -12.983   8.234 -13.495  0.00  0.00    +0.258 C 
ATOM      4  O   UNL     1     -12.506   8.762 -12.499  0.00  0.00    -0.332 OA
ATOM      5  C   UNL     1     -12.242   8.272 -14.823  0.00  0.00    +0.166 C 
ATOM      6  C   UNL     1     -10.715   8.248 -14.675  0.00  0.00    +0.049 C 
ATOM      7  C   UNL     1     -12.612   9.591 -15.502  0.00  0.00    +0.049 C 
ATOM      8  O   UNL     1     -12.570   7.158 -15.667  0.00  0.00    -0.312 OA
ATOM      9  C   UNL     1     -13.891   6.841 -15.706  0.00  0.00    +0.128 A 
ATOM     10  C   UNL     1     -14.407   6.261 -16.865  0.00  0.00    +0.021 A 
ATOM     11  C   UNL     1     -15.749   5.932 -16.920  0.00  0.00    +0.012 A 
ATOM     12  C   UNL     1     -16.537   6.193 -15.807  0.00  0.00    +0.107 A 
ATOM     36  N   UNL     1     -16.025   6.730 -14.695  0.00  0.00    -0.276 NA
ATOM     37  C   UNL     1     -14.743   7.063 -14.610  0.00  0.00    +0.159 A 
ENDBRANCH  13  12
BRANCH  21  23
ATOM     23  C   UNL     1     -17.470   6.386 -20.858  0.00  0.00    +0.037 A 
ATOM     24  C   UNL     1     -16.757   7.291 -20.082  0.00  0.00    +0.006 A 
ATOM     25  C   UNL     1     -15.540   7.794 -20.535  0.00  0.00    +0.102 A 
ATOM     28  C   UNL     1     -15.039   7.407 -21.775  0.00  0.00    +0.135 A 
ATOM     31  C   UNL     1     -15.762   6.502 -22.581  0.00  0.00    +0.102 A 
ATOM     34  C   UNL     1     -16.975   5.999 -22.097  0.00  0.00    +0.006 A 
BRANCH  25  26
ATOM     26  O   UNL     1     -14.793   8.667 -19.802  0.00  0.00    -0.331 OA
ATOM     27  C   UNL     1     -15.571   9.263 -18.752  0.00  0.00    +0.228 C 
ENDBRANCH  25  26
BRANCH  28  29
ATOM     29  O   UNL     1     -13.849   7.940 -22.179  0.00  0.00    -0.337 OA
ATOM     30  C   UNL     1     -12.768   7.193 -21.602  0.00  0.00    +0.221 C 
ENDBRANCH  28  29
BRANCH  31  32
ATOM     32  O   UNL     1     -15.272   6.118 -23.812  0.00  0.00    -0.331 OA
ATOM     33  C   UNL     1     -16.262   5.445 -24.615  0.00  0.00    +0.228 C 
ENDBRANCH  31  32
ENDBRANCH  21  23
TORSDOF 5
