REMARK  Name = 4mf1_ligand
REMARK  7 active torsions:
REMARK  status: ('A' for Active; 'I' for Inactive)
REMARK    1  A    between atoms: C1_1  and  N2_2
REMARK    2  A    between atoms: N2_2  and  C3_3
REMARK    3  A    between atoms: N2_2  and  C4_4
REMARK    4  A    between atoms: C4_4  and  C5_5
REMARK    5  A    between atoms: C8_8  and  C11_11
REMARK    6  A    between atoms: C14_13  and  C16_14
REMARK    7  A    between atoms: C24_22  and  C28_26
REMARK                            x       y       z     vdW  Elec       q    Type
REMARK                         _______ _______ _______ _____ _____    ______ ____
ROOT
ATOM     11  C   UNL     1       9.238 -11.529  -2.160  0.00  0.00    +0.223 C 
ATOM     12  N   UNL     1       8.375 -11.536  -3.212  0.00  0.00    -0.189 N 
ATOM     13  H   UNL     1       8.736 -11.538  -4.145  0.00  0.00    +0.245 HD
ATOM     14  C   UNL     1       7.000 -11.541  -3.011  0.00  0.00    +0.210 A 
ATOM     15  S   UNL     1       6.226 -11.626  -1.435  0.00  0.00    +0.028 S 
ATOM     16  C   UNL     1       4.634 -11.534  -2.169  0.00  0.00    +0.043 A 
ATOM     17  C   UNL     1       3.371 -11.537  -1.586  0.00  0.00    -0.003 A 
ATOM     18  C   UNL     1       2.247 -11.442  -2.391  0.00  0.00    -0.048 A 
ATOM     25  C   UNL     1       2.394 -11.341  -3.775  0.00  0.00    -0.024 A 
ATOM     26  C   UNL     1       3.629 -11.351  -4.349  0.00  0.00    -0.015 A 
ATOM     27  C   UNL     1       4.796 -11.439  -3.553  0.00  0.00    +0.004 A 
ATOM     28  N   UNL     1       6.098 -11.451  -3.939  0.00  0.00    -0.312 NA
ATOM     29  O   UNL     1       8.835 -11.551  -1.020  0.00  0.00    -0.378 OA
ENDROOT
BRANCH  18  19
ATOM     19  C   UNL     1       0.902 -11.422  -1.770  0.00  0.00    -0.006 A 
ATOM     20  C   UNL     1       0.554 -11.931  -0.508  0.00  0.00    +0.071 A 
ATOM     21  N   UNL     1      -0.715 -11.704  -0.310  0.00  0.00    -0.217 NA
ATOM     22  N   UNL     1      -1.224 -11.035  -1.426  0.00  0.00    -0.218 N 
ATOM     23  H   UNL     1      -2.198 -10.725  -1.555  0.00  0.00    +0.259 HD
ATOM     24  C   UNL     1      -0.216 -10.866  -2.305  0.00  0.00    +0.160 A 
ENDBRANCH  18  19
BRANCH  11  10
ATOM      9  C   UNL     1      11.659 -12.372  -1.545  0.00  0.00    +0.060 C 
ATOM     10  C   UNL     1      10.723 -11.486  -2.389  0.00  0.00    +0.128 C 
ATOM     30  C   UNL     1      11.574 -10.869  -1.276  0.00  0.00    +0.047 C 
BRANCH   9   8
ATOM      5  C   UNL     1      14.912 -13.865  -3.899  0.00  0.00    -0.005 A 
ATOM      6  C   UNL     1      14.402 -12.599  -4.105  0.00  0.00    -0.008 A 
ATOM      7  C   UNL     1      13.358 -12.140  -3.330  0.00  0.00    -0.012 A 
ATOM      8  C   UNL     1      12.816 -12.929  -2.337  0.00  0.00    -0.044 A 
ATOM     31  C   UNL     1      13.314 -14.208  -2.128  0.00  0.00    -0.012 A 
ATOM     32  C   UNL     1      14.367 -14.670  -2.907  0.00  0.00    -0.008 A 
BRANCH   5   4
ATOM      4  C   UNL     1      16.065 -14.335  -4.761  0.00  0.00    +0.192 C 
BRANCH   4   2
ATOM      1  C   UNL     1      18.064 -13.106  -4.068  0.00  0.00    +0.191 C 
ATOM      2  N   UNL     1      16.981 -13.210  -5.057  0.00  0.00    +0.242 N 
ATOM      3  H   UNL     1      16.435 -12.366  -4.987  0.00  0.00    +0.204 HD
ATOM     33  C   UNL     1      17.519 -13.260  -6.426  0.00  0.00    +0.191 C 
ENDBRANCH   4   2
ENDBRANCH   5   4
ENDBRANCH   9   8
ENDBRANCH  11  10
TORSDOF 5
