REMARK  Name = 3dog_ligand
REMARK  10 active torsions:
REMARK  status: ('A' for Active; 'I' for Inactive)
REMARK    1  A    between atoms: O1_1  and  C15_2
REMARK    2  A    between atoms: C15_2  and  C12_3
REMARK    3  A    between atoms: C12_3  and  C13_4
REMARK    4  A    between atoms: C12_3  and  N2_6
REMARK    5  A    between atoms: C13_4  and  C14_5
REMARK    6  A    between atoms: C9'_13  and  C9_14
REMARK    7  A    between atoms: C9_14  and  C10_15
REMARK    8  A    between atoms: C9_14  and  C11_16
REMARK    9  A    between atoms: N6_19  and  CA'_20
REMARK   10  A    between atoms: CA'_20  and  C1'_21
REMARK                            x       y       z     vdW  Elec       q    Type
REMARK                         _______ _______ _______ _____ _____    ______ ____
ROOT
ATOM      5  N   UNL     1     -34.571 -17.755 -32.731  0.00  0.00    -0.270 N 
ATOM      6  H   UNL     1     -34.760 -18.689 -33.122  0.00  0.00    +0.196 HD
ATOM      7  C   UNL     1     -34.118 -17.627 -31.469  0.00  0.00    +0.236 A 
ATOM      8  N   UNL     1     -33.831 -16.410 -30.965  0.00  0.00    -0.180 NA
ATOM      9  C   UNL     1     -33.384 -16.388 -29.698  0.00  0.00    +0.188 A 
ATOM     10  C   UNL     1     -32.968 -15.306 -28.792  0.00  0.00    +0.094 A 
ATOM     14  C   UNL     1     -32.593 -15.827 -27.567  0.00  0.00    +0.282 A 
ATOM     15  N   UNL     1     -32.734 -17.179 -27.657  0.00  0.00    -0.173 N 
ATOM     16  H   UNL     1     -32.531 -17.869 -26.920  0.00  0.00    +0.292 HD
ATOM     17  N   UNL     1     -33.209 -17.447 -28.946  0.00  0.00    -0.153 N 
ATOM     18  C   UNL     1     -33.490 -18.645 -29.439  0.00  0.00    +0.237 A 
ATOM     19  N   UNL     1     -33.326 -19.748 -28.692  0.00  0.00    -0.260 N 
ATOM     20  H   UNL     1     -32.774 -19.697 -27.824  0.00  0.00    +0.206 HD
ATOM     28  N   UNL     1     -33.941 -18.727 -30.709  0.00  0.00    -0.185 NA
ENDROOT
BRANCH  10  11
ATOM     11  C   UNL     1     -32.970 -13.859 -29.091  0.00  0.00    +0.082 C 
ATOM     12  C   UNL     1     -34.400 -13.354 -29.127  0.00  0.00    +0.040 C 
ATOM     13  C   UNL     1     -32.231 -13.520 -30.381  0.00  0.00    +0.040 C 
ENDBRANCH  10  11
BRANCH   5   4
ATOM      4  CA  UNL     1     -34.792 -16.567 -33.538  0.00  0.00    +0.129 C 
BRANCH   4  29
ATOM     29  C   UNL     1     -36.279 -16.250 -33.568  0.00  0.00    +0.028 C 
ATOM     30  C   UNL     1     -36.602 -15.206 -32.503  0.00  0.00    +0.006 C 
ENDBRANCH   4  29
BRANCH   4   3
ATOM      3  C   UNL     1     -34.253 -16.681 -34.968  0.00  0.00    +0.185 C 
BRANCH   3   1
ATOM      1  O   UNL     1     -33.607 -17.942 -35.217  0.00  0.00    -0.393 OA
ATOM      2  H   UNL     1     -33.291 -17.965 -36.113  0.00  0.00    +0.209 HD
ENDBRANCH   3   1
ENDBRANCH   4   3
ENDBRANCH   5   4
BRANCH  19  21
ATOM     21  C   UNL     1     -33.915 -21.008 -29.092  0.00  0.00    +0.216 C 
BRANCH  21  22
ATOM     22  C   UNL     1     -32.893 -21.768 -29.882  0.00  0.00    -0.018 A 
ATOM     23  C   UNL     1     -33.080 -21.972 -31.240  0.00  0.00    -0.003 A 
ATOM     24  C   UNL     1     -32.120 -22.669 -31.975  0.00  0.00    -0.009 A 
ATOM     25  C   UNL     1     -30.980 -23.149 -31.336  0.00  0.00    -0.013 A 
ATOM     26  C   UNL     1     -30.802 -22.938 -29.973  0.00  0.00    -0.009 A 
ATOM     27  C   UNL     1     -31.759 -22.244 -29.249  0.00  0.00    -0.003 A 
ENDBRANCH  21  22
ENDBRANCH  19  21
TORSDOF 7
