REMARK  Name = 1NN0
REMARK  6 active torsions:
REMARK  status: ('A' for Active; 'I' for Inactive)
REMARK    1  A    between atoms: P_1  and  O_5
REMARK    2  A    between atoms: O_5  and  C_16
REMARK    3  A    between atoms: N_6  and  C_19
REMARK    4  A    between atoms: C_11  and  O_12
REMARK    5  A    between atoms: C_13  and  C_14
REMARK    6  A    between atoms: C_16  and  C_17
REMARK                            x       y       z     vdW  Elec       q    Type
REMARK                         _______ _______ _______ _____ _____    ______ ____
ROOT
ATOM      4  C   UNL     1      14.486  74.754  26.446  0.00  0.00    +0.147 C 
ATOM      5  C   UNL     1      13.378  75.428  27.288  0.00  0.00    +0.038 C 
ATOM      6  C   UNL     1      12.811  76.526  26.432  0.00  0.00    +0.057 C 
ATOM      7  C   UNL     1      13.866  76.708  25.385  0.00  0.00    +0.224 C 
ATOM     18  O   UNL     1      14.564  75.537  25.234  0.00  0.00    -0.351 OA
ENDROOT
BRANCH   7   8
ATOM      8  N   UNL     1      13.248  77.235  24.190  0.00  0.00    -0.272 N 
ATOM      9  C   UNL     1      13.651  78.528  23.806  0.00  0.00    +0.353 C 
ATOM     10  N   UNL     1      13.190  78.894  22.557  0.00  0.00    -0.158 NA
ATOM     11  C   UNL     1      12.450  78.112  21.749  0.00  0.00    +0.221 C 
ATOM     12  C   UNL     1      12.142  76.759  22.158  0.00  0.00    +0.027 C 
ATOM     13  C   UNL     1      11.303  75.941  21.206  0.00  0.00    +0.051 C 
ATOM     16  O   UNL     1      14.304  79.307  24.490  0.00  0.00    -0.244 OA
ATOM     17  C   UNL     1      12.506  76.390  23.445  0.00  0.00    +0.101 C 
BRANCH  11  14
ATOM     14  O   UNL     1      12.085  78.435  20.506  0.00  0.00    -0.492 OA
ATOM     15  H   UNL     1      11.512  79.314  20.526  0.00  0.00    +0.294 HD
ENDBRANCH  11  14
ENDBRANCH   7   8
BRANCH   4   3
ATOM      3  C   UNL     1      14.022  73.365  25.918  0.00  0.00    +0.195 C 
BRANCH   3   2
ATOM      2  O   UNL     1      13.955  72.329  26.822  0.00  0.00    -0.365 OA
BRANCH   2   1
ATOM      1  P   UNL     1      12.769  71.386  27.191  0.00  0.00    -0.015 P 
ATOM     19  O   UNL     1      12.161  72.014  28.471  0.00  0.00    -0.577 OA
ATOM     20  O   UNL     1      13.499  70.109  27.318  0.00  0.00    -0.638 OA
ATOM     21  O   UNL     1      11.655  71.393  26.177  0.00  0.00    -0.577 OA
ENDBRANCH   2   1
ENDBRANCH   3   2
ENDBRANCH   4   3
TORSDOF 5
