REMARK  Name = 4au8_ligand
REMARK  3 active torsions:
REMARK  status: ('A' for Active; 'I' for Inactive)
REMARK    1  A    between atoms: C8_8  and  C10_10
REMARK    2  A    between atoms: C12_12  and  S15_15
REMARK    3  A    between atoms: S15_15  and  N18_18
REMARK                            x       y       z     vdW  Elec       q    Type
REMARK                         _______ _______ _______ _____ _____    ______ ____
ROOT
ATOM      6  C   UNL     1       9.282  28.685  -0.517  0.00  0.00    +0.018 A 
ATOM      7  C   UNL     1       8.951  29.687  -1.349  0.00  0.00    +0.113 A 
ATOM      8  S   UNL     1      10.098  29.833  -2.613  0.00  0.00    -0.001 S 
ATOM      9  C   UNL     1      11.006  28.506  -1.970  0.00  0.00    +0.166 A 
ATOM     16  C   UNL     1      10.462  28.015  -0.863  0.00  0.00    +0.011 A 
ENDROOT
BRANCH   6   5
ATOM      1  C   UNL     1       5.157  28.334   3.958  0.00  0.00    -0.016 A 
ATOM      2  C   UNL     1       5.553  28.863   2.751  0.00  0.00    +0.001 A 
ATOM      3  C   UNL     1       6.779  28.442   2.162  0.00  0.00    +0.028 A 
ATOM      4  N   UNL     1       7.334  28.860   0.994  0.00  0.00    -0.305 NA
ATOM      5  C   UNL     1       8.490  28.358   0.678  0.00  0.00    +0.100 A 
ATOM     17  S   UNL     1       9.012  27.183   1.859  0.00  0.00    -0.003 S 
ATOM     18  C   UNL     1       7.564  27.486   2.831  0.00  0.00    +0.053 A 
ATOM     19  C   UNL     1       7.163  26.956   4.069  0.00  0.00    +0.008 A 
ATOM     20  C   UNL     1       5.948  27.376   4.620  0.00  0.00    -0.015 A 
ENDBRANCH   6   5
BRANCH   9  10
ATOM     10  S   UNL     1      12.441  27.980  -2.816  0.00  0.00    +0.075 S 
ATOM     14  O   UNL     1      13.355  29.058  -2.885  0.00  0.00    -0.150 OA
ATOM     15  O   UNL     1      11.896  27.465  -4.021  0.00  0.00    -0.150 OA
BRANCH  10  11
ATOM     11  N   UNL     1      13.081  26.714  -1.988  0.00  0.00    -0.260 NA
ATOM     12  H   UNL     1      12.637  26.387  -1.154  0.00  0.00    +0.164 HD
ATOM     13  H   UNL     1      13.914  26.271  -2.318  0.00  0.00    +0.164 HD
ENDBRANCH  10  11
ENDBRANCH   9  10
TORSDOF 3
