REMARK  Name = 4YHT
REMARK  5 active torsions:
REMARK  status: ('A' for Active; 'I' for Inactive)
REMARK    1  A    between atoms: C_6  and  N_27
REMARK    2  A    between atoms: C_8  and  N_19
REMARK    3  A    between atoms: C_10  and  S_23
REMARK    4  A    between atoms: N_22  and  S_23
REMARK    5  A    between atoms: N_22  and  C_28
REMARK                            x       y       z     vdW  Elec       q    Type
REMARK                         _______ _______ _______ _____ _____    ______ ____
ROOT
ATOM      8  C   UNL     1     -10.389 -22.387 -38.418  0.00  0.00    +0.056 A 
ATOM      9  C   UNL     1     -10.253 -23.761 -38.487  0.00  0.00    +0.053 A 
ATOM     10  C   UNL     1      -9.036 -24.341 -38.180  0.00  0.00    +0.107 A 
ATOM     17  C   UNL     1      -7.948 -23.593 -37.800  0.00  0.00    +0.030 A 
ATOM     18  C   UNL     1      -8.093 -22.227 -37.733  0.00  0.00    +0.027 A 
ATOM     19  C   UNL     1      -9.299 -21.628 -38.040  0.00  0.00    +0.051 A 
ENDROOT
BRANCH   8   6
ATOM      1  C   UNL     1     -13.953 -21.392 -39.143  0.00  0.00    +0.079 A 
ATOM      2  C   UNL     1     -12.833 -22.205 -39.033  0.00  0.00    +0.137 A 
ATOM      3  N   UNL     1     -12.996 -23.505 -39.272  0.00  0.00    -0.220 NA
ATOM      4  C   UNL     1     -14.214 -23.935 -39.606  0.00  0.00    +0.225 A 
ATOM      5  N   UNL     1     -15.352 -23.257 -39.751  0.00  0.00    -0.216 NA
ATOM      6  N   UNL     1     -11.580 -21.679 -38.695  0.00  0.00    -0.297 N 
ATOM      7  H   UNL     1     -11.517 -20.612 -38.640  0.00  0.00    +0.154 HD
ATOM     26  C   UNL     1     -14.239 -20.010 -38.984  0.00  0.00    +0.073 A 
ATOM     27 CL   UNL     1     -13.106 -18.820 -38.553  0.00  0.00    -0.081 Cl
ATOM     28  C   UNL     1     -15.576 -19.799 -39.240  0.00  0.00    +0.134 A 
ATOM     29  N   UNL     1     -16.120 -21.007 -39.550  0.00  0.00    -0.234 NA
ATOM     30  C   UNL     1     -15.154 -21.970 -39.497  0.00  0.00    +0.166 A 
ENDBRANCH   8   6
BRANCH  19  20
ATOM     20  N   UNL     1      -9.462 -20.237 -37.964  0.00  0.00    -0.324 N 
ATOM     21  C   UNL     1      -8.881 -19.710 -36.740  0.00  0.00    +0.133 C 
ATOM     22  C   UNL     1      -9.212 -18.231 -36.682  0.00  0.00    +0.178 C 
ATOM     23  O   UNL     1      -8.728 -17.584 -37.866  0.00  0.00    -0.377 OA
ATOM     24  C   UNL     1      -9.425 -18.084 -39.005  0.00  0.00    +0.178 C 
ATOM     25  C   UNL     1      -9.079 -19.551 -39.190  0.00  0.00    +0.133 C 
ENDBRANCH  19  20
BRANCH  10  11
ATOM     11  S   UNL     1      -8.816 -26.111 -38.244  0.00  0.00    +0.058 S 
ATOM     15  O   UNL     1      -9.553 -26.681 -37.139  0.00  0.00    -0.153 OA
ATOM     16  O   UNL     1      -7.393 -26.335 -38.358  0.00  0.00    -0.153 OA
BRANCH  11  12
ATOM     12  N   UNL     1      -9.678 -26.557 -39.654  0.00  0.00    -0.193 NA
ATOM     13  H   UNL     1     -10.478 -25.858 -39.783  0.00  0.00    +0.148 HD
ATOM     14  C   UNL     1      -8.904 -26.588 -40.900  0.00  0.00    +0.127 C 
ENDBRANCH  11  12
ENDBRANCH  10  11
TORSDOF 4
