REMARK  Name = 8O1
REMARK  6 active torsions:
REMARK  status: ('A' for Active; 'I' for Inactive)
REMARK    1  A    between atoms: C7_4  and  C12_16
REMARK    2  A    between atoms: C8_5  and  N23_23
REMARK    3  A    between atoms: C20_10  and  S27_27
REMARK    4  A    between atoms: C9_14  and  S27_27
REMARK    5  A    between atoms: C16_18  and  C19_20
REMARK    6  A    between atoms: C19_20  and  N23_23
REMARK                            x       y       z     vdW  Elec       q    Type
REMARK                         _______ _______ _______ _____ _____    ______ ____
ROOT
ATOM      1  C   UNL     1      16.288 -10.891   0.857  0.00  0.00    +0.020 A 
ATOM      2  C   UNL     1      15.281 -10.938   1.808  0.00  0.00    +0.018 A 
ATOM      3  C   UNL     1      15.597 -10.786   3.157  0.00  0.00    +0.065 A 
ATOM      9  C   UNL     1      16.924 -10.605   3.509  0.00  0.00    +0.017 A 
ATOM     10  C   UNL     1      17.927 -10.565   2.569  0.00  0.00    +0.020 A 
ATOM     22  C   UNL     1      17.600 -10.692   1.241  0.00  0.00    +0.106 A 
ENDROOT
BRANCH   2  11
ATOM     11  C   UNL     1      13.921 -11.162   1.288  0.00  0.00    +0.020 C 
ATOM     12  C   UNL     1      13.114 -12.270   1.628  0.00  0.00    +0.025 A 
ATOM     13  C   UNL     1      13.324 -13.350   2.519  0.00  0.00    +0.022 A 
ATOM     14  C   UNL     1      12.191 -14.117   2.456  0.00  0.00    +0.099 A 
ATOM     15  N   UNL     1      11.323 -13.543   1.566  0.00  0.00    -0.239 NA
ATOM     16  C   UNL     1      11.866 -12.396   1.060  0.00  0.00    +0.137 A 
ATOM     17  C   UNL     1      11.288 -11.479   0.101  0.00  0.00    +0.279 C 
ATOM     18  N   UNL     1      12.127 -10.423  -0.152  0.00  0.00    -0.291 N 
ATOM     19  C   UNL     1      11.688  -9.377  -1.056  0.00  0.00    +0.134 C 
ATOM     20  O   UNL     1      10.186 -11.632  -0.424  0.00  0.00    -0.265 OA
ATOM     21  C   UNL     1      13.380 -10.296   0.421  0.00  0.00    +0.079 C 
ENDBRANCH   2  11
BRANCH  22  23
ATOM     23  S   UNL     1      18.905 -10.637   0.022  0.00  0.00    +0.009 S 
ATOM     24  O   UNL     1      20.149 -10.308   0.687  0.00  0.00    -0.169 OA
ATOM     25  O   UNL     1      18.739 -11.861  -0.745  0.00  0.00    -0.169 OA
BRANCH  23  26
ATOM     26  C   UNL     1      18.479  -9.223  -0.988  0.00  0.00    +0.156 C 
ATOM     27  C   UNL     1      18.785  -7.894  -0.320  0.00  0.00    +0.028 C 
ENDBRANCH  23  26
ENDBRANCH  22  23
BRANCH   3   4
ATOM      4  N   UNL     1      14.602 -10.813   4.166  0.00  0.00    -0.238 NA
BRANCH   4   5
ATOM      5  C   UNL     1      14.931 -10.642   5.568  0.00  0.00    +0.112 C 
BRANCH   5   6
ATOM      6  C   UNL     1      13.727 -10.872   6.404  0.00  0.00    +0.022 C 
ATOM      7  C   UNL     1      13.673 -10.191   7.738  0.00  0.00    +0.002 C 
ATOM      8  C   UNL     1      12.767  -9.747   6.637  0.00  0.00    +0.002 C 
ENDBRANCH   5   6
ENDBRANCH   4   5
ENDBRANCH   3   4
TORSDOF 6
