REMARK  Name = 1YOL
REMARK  7 active torsions:
REMARK  status: ('A' for Active; 'I' for Inactive)
REMARK    1  A    between atoms: C_6  and  C_7
REMARK    2  A    between atoms: C_11  and  O_12
REMARK    3  A    between atoms: O_12  and  C_13
REMARK    4  A    between atoms: N_18  and  C_19
REMARK    5  A    between atoms: C_24  and  C_25
REMARK    6  A    between atoms: C_25  and  N_26
REMARK    7  A    between atoms: C_31  and  O_32
REMARK                            x       y       z     vdW  Elec       q    Type
REMARK                         _______ _______ _______ _____ _____    ______ ____
ROOT
ATOM      1  N   UNL     1       1.493  27.565  32.633  0.00  0.00    -0.343 N 
ATOM      2  H   UNL     1       2.533  27.672  32.861  0.00  0.00    +0.144 HD
ATOM      3  H   UNL     1       0.775  28.213  33.090  0.00  0.00    +0.144 HD
ATOM      4  C   UNL     1       1.085  26.607  31.763  0.00  0.00    +0.129 A 
ATOM      5  C   UNL     1       1.962  25.717  31.109  0.00  0.00    +0.066 A 
ATOM      6  C   UNL     1       1.491  24.780  30.228  0.00  0.00    +0.151 A 
ATOM      7  N   UNL     1       2.520  24.048  29.761  0.00  0.00    -0.300 N 
ATOM     23  C   UNL     1       3.699  24.492  30.267  0.00  0.00    +0.102 A 
ATOM     24  N   UNL     1       0.074  24.693  29.971  0.00  0.00    -0.217 NA
ATOM     25  C   UNL     1      -0.724  25.568  30.626  0.00  0.00    +0.225 A 
ATOM     26  C   UNL     1       3.342  25.553  31.107  0.00  0.00    +0.013 A 
ATOM     35  N   UNL     1      -0.242  26.493  31.491  0.00  0.00    -0.220 NA
ENDROOT
BRANCH   7   8
ATOM      8  C   UNL     1       2.451  23.058  28.834  0.00  0.00    +0.048 A 
ATOM      9  C   UNL     1       1.795  23.280  27.631  0.00  0.00    +0.026 A 
ATOM     10  C   UNL     1       1.696  22.336  26.618  0.00  0.00    +0.007 A 
ATOM     11  C   UNL     1       2.266  21.074  26.719  0.00  0.00    -0.033 A 
ATOM     21  C   UNL     1       2.948  20.805  27.908  0.00  0.00    +0.007 A 
ATOM     22  C   UNL     1       3.041  21.786  28.928  0.00  0.00    +0.026 A 
BRANCH  11  12
ATOM     12  C   UNL     1       2.054  20.172  25.504  0.00  0.00    +0.119 C 
BRANCH  12  13
ATOM     13  N   UNL     1       2.726  18.885  25.335  0.00  0.00    -0.298 NA
ATOM     14  C   UNL     1       1.935  17.657  25.265  0.00  0.00    +0.087 C 
ATOM     15  C   UNL     1       1.539  17.379  23.814  0.00  0.00    +0.046 C 
ATOM     16  C   UNL     1       2.678  17.502  22.778  0.00  0.00    +0.117 C 
ATOM     19  C   UNL     1       3.833  18.435  23.178  0.00  0.00    +0.046 C 
ATOM     20  C   UNL     1       4.005  18.818  24.656  0.00  0.00    +0.087 C 
BRANCH  16  17
ATOM     17  O   UNL     1       3.207  16.222  22.412  0.00  0.00    -0.392 OA
ATOM     18  H   UNL     1       3.865  16.333  21.601  0.00  0.00    +0.210 HD
ENDBRANCH  16  17
ENDBRANCH  12  13
ENDBRANCH  11  12
ENDBRANCH   7   8
BRANCH  26  27
ATOM     27  C   UNL     1       4.337  26.293  31.932  0.00  0.00    -0.012 A 
ATOM     28  C   UNL     1       4.120  26.323  33.290  0.00  0.00    +0.054 A 
ATOM     29  C   UNL     1       4.999  26.955  34.150  0.00  0.00    +0.121 A 
ATOM     32  C   UNL     1       6.138  27.578  33.648  0.00  0.00    +0.045 A 
ATOM     33  C   UNL     1       6.381  27.546  32.274  0.00  0.00    +0.004 A 
ATOM     34  C   UNL     1       5.483  26.896  31.415  0.00  0.00    +0.009 A 
BRANCH  29  30
ATOM     30  O   UNL     1       4.658  26.937  35.477  0.00  0.00    -0.495 OA
ATOM     31  C   UNL     1       5.619  26.798  36.504  0.00  0.00    +0.277 C 
ENDBRANCH  29  30
ENDBRANCH  26  27
TORSDOF 6
