REMARK  Name = 4M15
REMARK  7 active torsions:
REMARK  status: ('A' for Active; 'I' for Inactive)
REMARK    1  A    between atoms: N_1  and  C_13
REMARK    2  A    between atoms: C_3  and  C_10
REMARK    3  A    between atoms: C_4  and  N_6
REMARK    4  A    between atoms: C_21  and  O_23
REMARK    5  A    between atoms: O_23  and  C_24
REMARK    6  A    between atoms: C_24  and  C_25
REMARK    7  A    between atoms: C_24  and  C_26
REMARK                            x       y       z     vdW  Elec       q    Type
REMARK                         _______ _______ _______ _____ _____    ______ ____
ROOT
ATOM      1  N   UNL     1      -4.790   8.326  13.259  0.00  0.00    -0.247 N 
ATOM     16  C   UNL     1      -3.616   7.843  13.778  0.00  0.00    +0.180 C 
ATOM     17  C   UNL     1      -4.007   6.830  14.650  0.00  0.00    +0.058 C 
ATOM     25  C   UNL     1      -5.418   6.759  14.571  0.00  0.00    +0.125 C 
ATOM     31  N   UNL     1      -5.887   7.685  13.720  0.00  0.00    -0.258 N 
ATOM     32  H   UNL     1      -6.908   7.875  13.462  0.00  0.00    +0.170 HD
ENDROOT
BRANCH   1   2
ATOM      2  C   UNL     1      -4.885   9.453  12.401  0.00  0.00    +0.056 A 
ATOM      3  C   UNL     1      -5.637  10.564  12.777  0.00  0.00    +0.008 A 
ATOM      4  C   UNL     1      -6.272  10.644  14.007  0.00  0.00    +0.056 A 
ATOM      5  C   UNL     1      -6.999  11.769  14.331  0.00  0.00    +0.122 A 
ATOM     10  C   UNL     1      -7.091  12.825  13.431  0.00  0.00    +0.046 A 
ATOM     11  C   UNL     1      -6.457  12.759  12.208  0.00  0.00    +0.012 A 
ATOM     12  C   UNL     1      -5.737  11.623  11.878  0.00  0.00    -0.016 A 
ATOM     13  C   UNL     1      -5.102  11.550  10.667  0.00  0.00    +0.008 A 
ATOM     14  C   UNL     1      -4.326  10.462  10.311  0.00  0.00    +0.002 A 
ATOM     15  C   UNL     1      -4.214   9.397  11.194  0.00  0.00    +0.025 A 
BRANCH   5   6
ATOM      6  O   UNL     1      -7.661  11.950  15.537  0.00  0.00    -0.489 OA
BRANCH   6   7
ATOM      7  C   UNL     1      -7.637  10.822  16.444  0.00  0.00    +0.167 C 
ATOM      8  C   UNL     1      -8.639   9.748  16.090  0.00  0.00    +0.051 C 
ATOM      9  C   UNL     1      -8.098  11.383  17.770  0.00  0.00    +0.051 C 
ENDBRANCH   6   7
ENDBRANCH   5   6
ENDBRANCH   1   2
BRANCH  17  18
ATOM     18  N   UNL     1      -3.198   6.003  15.457  0.00  0.00    -0.270 N 
ATOM     19  H   UNL     1      -3.671   5.238  16.037  0.00  0.00    +0.156 HD
ATOM     20  C   UNL     1      -1.820   6.134  15.535  0.00  0.00    +0.301 C 
ATOM     21  O   UNL     1      -1.147   6.962  14.932  0.00  0.00    -0.253 OA
ATOM     22  N   UNL     1      -1.279   5.214  16.422  0.00  0.00    -0.313 N 
ATOM     23  H   UNL     1      -0.223   5.191  16.591  0.00  0.00    +0.146 HD
ATOM     24  H   UNL     1      -1.918   4.528  16.937  0.00  0.00    +0.146 HD
ENDBRANCH  17  18
BRANCH  25  26
ATOM     26  C   UNL     1      -6.281   5.852  15.302  0.00  0.00    +0.258 C 
ATOM     27  O   UNL     1      -5.852   5.036  16.116  0.00  0.00    -0.269 OA
ATOM     28  N   UNL     1      -7.624   5.951  15.023  0.00  0.00    -0.324 N 
ATOM     29  H   UNL     1      -8.323   5.314  15.524  0.00  0.00    +0.145 HD
ATOM     30  H   UNL     1      -7.970   6.665  14.305  0.00  0.00    +0.145 HD
ENDBRANCH  25  26
TORSDOF 5
