REMARK  Name = 3le6_ligand
REMARK  3 active torsions:
REMARK  status: ('A' for Active; 'I' for Inactive)
REMARK    1  A    between atoms: C6_4  and  C7_5
REMARK    2  A    between atoms: C13_7  and  C14_18
REMARK    3  A    between atoms: C11_16  and  N17_21
REMARK                            x       y       z     vdW  Elec       q    Type
REMARK                         _______ _______ _______ _____ _____    ______ ____
ROOT
ATOM      1  N   UNL     1       2.538  29.090   6.222  0.00  0.00    -0.071 NA
ATOM      2  C   UNL     1       1.547  29.933   6.587  0.00  0.00    +0.395 A 
ATOM      3  N   UNL     1       1.475  31.193   6.140  0.00  0.00    +0.034 NA
ATOM      4  N   UNL     1       0.373  31.685   6.728  0.00  0.00    -0.060 NA
ATOM      5  C   UNL     1      -0.271  30.793   7.536  0.00  0.00    +0.170 A 
ATOM      6  C   UNL     1      -1.503  31.130   8.281  0.00  0.00    +0.161 C 
ATOM      7  C   UNL     1       0.480  29.643   7.458  0.00  0.00    +0.253 A 
ATOM      8  N   UNL     1       0.113  28.498   8.172  0.00  0.00    -0.154 NA
ATOM      9  C   UNL     1       0.805  27.385   8.244  0.00  0.00    +0.168 A 
ATOM     17  C   UNL     1       2.167  26.985   7.609  0.00  0.00    +0.144 A 
ATOM     18  C   UNL     1       2.736  25.693   7.957  0.00  0.00    +0.163 A 
ATOM     19  C   UNL     1       3.975  25.227   7.434  0.00  0.00    +0.152 A 
ATOM     23  C   UNL     1       4.707  26.044   6.534  0.00  0.00    +0.136 A 
ATOM     24  C   UNL     1       4.177  27.315   6.174  0.00  0.00    +0.158 A 
ATOM     25  C   UNL     1       2.913  27.811   6.690  0.00  0.00    +0.209 A 
ENDROOT
BRANCH   9  10
ATOM     10  C   UNL     1       0.077  26.380   9.138  0.00  0.00    +0.078 A 
ATOM     11  C   UNL     1      -0.021  26.581  10.556  0.00  0.00    +0.081 A 
ATOM     12 CL   UNL     1       0.658  27.963  11.342  0.00  0.00    -0.050 Cl
ATOM     13  C   UNL     1      -0.700  25.621  11.361  0.00  0.00    +0.042 A 
ATOM     14  C   UNL     1      -1.280  24.469  10.762  0.00  0.00    +0.035 A 
ATOM     15  C   UNL     1      -1.191  24.265   9.358  0.00  0.00    +0.027 A 
ATOM     16  C   UNL     1      -0.518  25.211   8.537  0.00  0.00    +0.055 A 
ENDBRANCH   9  10
BRANCH  19  20
ATOM     20  N   UNL     1       4.479  23.883   7.831  0.00  0.00    -0.178 N 
ATOM     21  O   UNL     1       5.546  23.479   7.331  0.00  0.00    -0.472 OA
ATOM     22  O   UNL     1       3.797  23.216   8.628  0.00  0.00    -0.472 OA
ENDBRANCH  19  20
TORSDOF 2
