REMARK  Name = 6HWU
REMARK  10 active torsions:
REMARK  status: ('A' for Active; 'I' for Inactive)
REMARK    1  A    between atoms: C10_1  and  C09_14
REMARK    2  A    between atoms: C10_1  and  C11_15
REMARK    3  A    between atoms: C17_3  and  C21_4
REMARK    4  A    between atoms: C22_5  and  C34_25
REMARK    5  A    between atoms: C28_7  and  N27_37
REMARK    6  A    between atoms: C03_9  and  O02_38
REMARK    7  A    between atoms: C06_12  and  O07_39
REMARK    8  A    between atoms: C11_15  and  C12_16
REMARK    9  A    between atoms: C12_16  and  N14_33
REMARK   10  A    between atoms: N26_36  and  N27_37
REMARK                            x       y       z     vdW  Elec       q    Type
REMARK                         _______ _______ _______ _____ _____    ______ ____
ROOT
ATOM      5  N   UNL     1      -4.320   1.583 -24.991  0.00  0.00    -0.100 NA
ATOM      6  C   UNL     1      -4.342   1.163 -23.713  0.00  0.00    +0.100 A 
ATOM      7  N   UNL     1      -4.272   2.138 -22.796  0.00  0.00    -0.300 NA
ATOM      8  C   UNL     1      -4.260   1.847 -21.436  0.00  0.00    -0.100 A 
ATOM      9  C   UNL     1      -4.304   0.533 -21.010  0.00  0.00    -0.100 A 
ATOM     10  C   UNL     1      -4.400  -0.504 -21.928  0.00  0.00    +0.000 A 
ATOM     31  C   UNL     1      -4.386  -0.173 -23.286  0.00  0.00    -0.100 A 
ENDROOT
BRANCH  10  11
ATOM     11  C   UNL     1      -4.407  -1.793 -21.541  0.00  0.00    +0.000 A 
ATOM     12  S   UNL     1      -3.829  -2.960 -22.522  0.00  0.00    -0.060 S 
ATOM     13  C   UNL     1      -4.041  -4.182 -21.504  0.00  0.00    +0.160 A 
ATOM     14  N   UNL     1      -3.718  -5.448 -21.797  0.00  0.00    -0.050 NA
ATOM     22  N   UNL     1      -4.555  -3.722 -20.355  0.00  0.00    -0.300 NA
ATOM     23  C   UNL     1      -4.757  -2.384 -20.367  0.00  0.00    +0.000 A 
BRANCH  23  24
ATOM     24  C   UNL     1      -5.272  -1.791 -19.281  0.00  0.00    +0.000 A 
ATOM     25  C   UNL     1      -6.472  -1.083 -19.334  0.00  0.00    -0.130 A 
ATOM     26  C   UNL     1      -6.974  -0.474 -18.187  0.00  0.00    -0.130 A 
ATOM     27  C   UNL     1      -6.295  -0.575 -16.976  0.00  0.00    +0.300 A 
ATOM     28  F   UNL     1      -6.814   0.037 -15.812  0.00  0.00    -0.300 F 
ATOM     29  C   UNL     1      -5.105  -1.286 -16.915  0.00  0.00    -0.130 A 
ATOM     30  C   UNL     1      -4.606  -1.890 -18.064  0.00  0.00    -0.130 A 
ENDBRANCH  23  24
BRANCH  14  15
ATOM     15  N   UNL     1      -3.248  -5.635 -22.949  0.00  0.00    -0.300 NA
BRANCH  15  16
ATOM     16  C   UNL     1      -2.459  -6.679 -23.196  0.00  0.00    +0.050 A 
ATOM     17  C   UNL     1      -1.360  -6.955 -22.396  0.00  0.00    -0.130 A 
ATOM     18  C   UNL     1      -0.530  -8.042 -22.664  0.00  0.00    -0.130 A 
ATOM     19  C   UNL     1      -0.794  -8.866 -23.756  0.00  0.00    -0.130 A 
ATOM     20  C   UNL     1      -1.893  -8.585 -24.573  0.00  0.00    -0.130 A 
ATOM     21  C   UNL     1      -2.710  -7.489 -24.296  0.00  0.00    -0.130 A 
ENDBRANCH  15  16
ENDBRANCH  14  15
ENDBRANCH  10  11
BRANCH   5   3
ATOM      3  C   UNL     1      -4.266   0.777 -26.074  0.00  0.00    +0.600 C 
ATOM      4  O   UNL     1      -4.263  -0.452 -26.085  0.00  0.00    -0.550 OA
BRANCH   3   2
ATOM      2  C   UNL     1      -4.156   1.551 -27.389  0.00  0.00    -0.100 C 
BRANCH   2   1
ATOM      1  C   UNL     1      -5.500   1.748 -28.101  0.00  0.00    -0.100 C 
BRANCH   1  32
ATOM     32  C   UNL     1      -5.224   2.276 -29.364  0.00  0.00    +0.000 A 
ATOM     33  C   UNL     1      -4.078   1.853 -30.031  0.00  0.00    -0.130 A 
ATOM     34  C   UNL     1      -3.755   2.354 -31.286  0.00  0.00    +0.185 A 
ATOM     37  C   UNL     1      -4.593   3.292 -31.883  0.00  0.00    -0.130 A 
ATOM     38  C   UNL     1      -5.743   3.725 -31.227  0.00  0.00    -0.130 A 
ATOM     39  C   UNL     1      -6.054   3.216 -29.970  0.00  0.00    +0.185 A 
BRANCH  34  35
ATOM     35  O   UNL     1      -2.620   1.912 -31.906  0.00  0.00    -0.365 OA
ATOM     36  C   UNL     1      -2.268   2.702 -33.046  0.00  0.00    +0.030 C 
ENDBRANCH  34  35
BRANCH  39  40
ATOM     40  O   UNL     1      -7.167   3.601 -29.280  0.00  0.00    -0.365 OA
ATOM     41  C   UNL     1      -8.294   3.755 -30.155  0.00  0.00    +0.030 C 
ENDBRANCH  39  40
ENDBRANCH   1  32
ENDBRANCH   2   1
ENDBRANCH   3   2
ENDBRANCH   5   3
TORSDOF 10
