REMARK  Name = 4cd0_ligand
REMARK  13 active torsions:
REMARK  status: ('A' for Active; 'I' for Inactive)
REMARK    1  A    between atoms: C1_1  and  O7_7
REMARK    2  A    between atoms: C2_2  and  N8_8
REMARK    3  A    between atoms: C5_5  and  C23_23
REMARK    4  A    between atoms: O7_7  and  C9_9
REMARK    5  A    between atoms: C9_9  and  C10_10
REMARK    6  A    between atoms: C9_9  and  C11_11
REMARK    7  A    between atoms: C12_12  and  N18_18
REMARK    8  A    between atoms: C24_24  and  C28_28
REMARK    9  A    between atoms: C26_26  and  C29_29
REMARK   10  A    between atoms: C29_29  and  C30_30
REMARK   11  A    between atoms: C29_29  and  O31_31
REMARK   12  A    between atoms: C29_29  and  C32_32
REMARK   13  A    between atoms: C30_30  and  O33_33
REMARK                            x       y       z     vdW  Elec       q    Type
REMARK                         _______ _______ _______ _____ _____    ______ ____
ROOT
ATOM      1  C   UNL     1     -29.865 -16.624  61.506  0.00  0.00    +0.154 A 
ATOM     17  C   UNL     1     -29.834 -17.850  60.789  0.00  0.00    +0.067 A 
ATOM     18  C   UNL     1     -28.797 -18.800  60.914  0.00  0.00    +0.038 A 
ATOM     32  C   UNL     1     -27.774 -18.449  61.810  0.00  0.00    +0.097 A 
ATOM     33  N   UNL     1     -27.750 -17.276  62.528  0.00  0.00    -0.274 NA
ATOM     34  C   UNL     1     -28.783 -16.374  62.379  0.00  0.00    +0.159 A 
ENDROOT
BRANCH  18  19
ATOM     19  C   UNL     1     -28.836 -20.059  60.141  0.00  0.00    +0.112 A 
ATOM     20  S   UNL     1     -30.377 -20.787  59.838  0.00  0.00    +0.016 S 
ATOM     21  C   UNL     1     -29.645 -22.070  58.972  0.00  0.00    +0.082 A 
ATOM     29  N   UNL     1     -28.329 -21.993  58.897  0.00  0.00    -0.256 NA
ATOM     30  C   UNL     1     -27.851 -20.862  59.553  0.00  0.00    +0.083 A 
ATOM     31  C   UNL     1     -26.375 -20.665  59.535  0.00  0.00    +0.123 C 
BRANCH  21  22
ATOM     22  C   UNL     1     -30.464 -23.196  58.340  0.00  0.00    +0.061 C 
ATOM     23  C   UNL     1     -30.267 -23.154  56.820  0.00  0.00    -0.058 C 
BRANCH  22  24
ATOM     24  O   UNL     1     -31.862 -23.018  58.586  0.00  0.00    -0.454 OA
ATOM     25  H   UNL     1     -32.029 -23.081  59.519  0.00  0.00    +0.184 HD
ENDBRANCH  22  24
BRANCH  22  26
ATOM     26  C   UNL     1     -30.055 -24.587  58.857  0.00  0.00    +0.108 C 
BRANCH  26  27
ATOM     27  O   UNL     1     -30.227 -24.679  60.271  0.00  0.00    -0.408 OA
ATOM     28  H   UNL     1     -31.140 -24.529  60.488  0.00  0.00    +0.207 HD
ENDBRANCH  26  27
ENDBRANCH  22  26
ENDBRANCH  21  22
ENDBRANCH  18  19
BRANCH  34  35
ATOM     35  N   UNL     1     -28.752 -15.184  63.119  0.00  0.00    -0.315 N 
ATOM     36  H   UNL     1     -29.515 -14.499  63.024  0.00  0.00    +0.181 HD
ATOM     37  H   UNL     1     -27.966 -14.995  63.758  0.00  0.00    +0.181 HD
ENDBRANCH  34  35
BRANCH   1   2
ATOM      2  O   UNL     1     -30.850 -15.643  61.438  0.00  0.00    -0.298 OA
BRANCH   2   3
ATOM      3  C   UNL     1     -32.021 -15.785  60.574  0.00  0.00    +0.192 C 
ATOM      4  C   UNL     1     -32.602 -14.372  60.394  0.00  0.00    +0.059 C 
BRANCH   3   5
ATOM      5  C   UNL     1     -33.060 -16.762  61.161  0.00  0.00    +0.029 A 
ATOM      6  C   UNL     1     -33.369 -16.657  62.566  0.00  0.00    +0.026 A 
ATOM      7  C   UNL     1     -34.301 -17.527  63.172  0.00  0.00    +0.120 A 
ATOM      8  F   UNL     1     -34.563 -17.406  64.471  0.00  0.00    -0.190 F 
ATOM      9  C   UNL     1     -34.960 -18.526  62.422  0.00  0.00    +0.016 A 
ATOM     10  C   UNL     1     -34.680 -18.656  61.045  0.00  0.00    +0.027 A 
ATOM     11  C   UNL     1     -33.739 -17.788  60.403  0.00  0.00    +0.136 A 
BRANCH  11  12
ATOM     12  N   UNL     1     -33.525 -18.003  59.016  0.00  0.00    -0.086 N 
ATOM     13  N   UNL     1     -33.892 -17.118  58.057  0.00  0.00    -0.165 NA
ATOM     14  C   UNL     1     -33.500 -17.727  56.937  0.00  0.00    +0.107 A 
ATOM     15  C   UNL     1     -32.912 -18.951  57.245  0.00  0.00    +0.107 A 
ATOM     16  N   UNL     1     -32.921 -19.139  58.565  0.00  0.00    -0.165 NA
ENDBRANCH  11  12
ENDBRANCH   3   5
ENDBRANCH   2   3
ENDBRANCH   1   2
TORSDOF 10
