REMARK  Name = 5UU1
REMARK  9 active torsions:
REMARK  status: ('A' for Active; 'I' for Inactive)
REMARK    1  A    between atoms: C_1  and  N_25
REMARK    2  A    between atoms: C_4  and  O_17
REMARK    3  A    between atoms: C_8  and  N_24
REMARK    4  A    between atoms: C_9  and  C_10
REMARK    5  A    between atoms: C_10  and  C_11
REMARK    6  A    between atoms: C_10  and  C_12
REMARK    7  A    between atoms: C_12  and  C_13
REMARK    8  A    between atoms: C_13  and  N_27
REMARK    9  A    between atoms: C_20  and  C_28
REMARK                            x       y       z     vdW  Elec       q    Type
REMARK                         _______ _______ _______ _____ _____    ______ ____
ROOT
ATOM      1  C   UNL     1      -4.972 -17.447 -12.438  0.00  0.00    +0.138 C 
ATOM      2  N   UNL     1      -3.656 -18.070 -12.613  0.00  0.00    -0.269 N 
ATOM      3  C   UNL     1      -3.586 -19.240 -13.299  0.00  0.00    +0.240 C 
ATOM      4  O   UNL     1      -4.494 -19.591 -14.014  0.00  0.00    -0.273 OA
ATOM      5  C   UNL     1      -2.321 -20.068 -13.119  0.00  0.00    +0.158 C 
ATOM      6  C   UNL     1      -2.562 -21.201 -12.131  0.00  0.00    +0.038 C 
ATOM      7  N   UNL     1      -1.123 -19.283 -12.798  0.00  0.00    -0.302 N 
ATOM      8  C   UNL     1      -1.249 -18.060 -12.199  0.00  0.00    +0.149 A 
ATOM      9  N   UNL     1      -0.141 -17.490 -11.704  0.00  0.00    -0.197 NA
ATOM     10  C   UNL     1      -0.286 -16.288 -11.099  0.00  0.00    +0.221 A 
ATOM     11  N   UNL     1       0.848 -15.733 -10.626  0.00  0.00    -0.283 N 
ATOM     12  H   UNL     1       0.725 -14.845 -10.042  0.00  0.00    +0.155 HD
ATOM     23  N   UNL     1      -1.444 -15.616 -10.950  0.00  0.00    -0.221 NA
ATOM     24  C   UNL     1      -2.539 -16.182 -11.428  0.00  0.00    +0.141 A 
ATOM     30  C   UNL     1      -2.506 -17.440 -12.081  0.00  0.00    +0.095 A 
ENDROOT
BRANCH  11  13
ATOM     13  C   UNL     1       2.175 -16.173 -10.803  0.00  0.00    +0.039 A 
ATOM     14  C   UNL     1       2.472 -17.525 -10.714  0.00  0.00    +0.065 A 
ATOM     15  C   UNL     1       3.769 -17.933 -10.889  0.00  0.00    +0.169 A 
ATOM     16  F   UNL     1       4.067 -19.241 -10.800  0.00  0.00    -0.202 F 
ATOM     17  C   UNL     1       4.783 -17.036 -11.148  0.00  0.00    +0.188 A 
ATOM     20  C   UNL     1       4.458 -15.696 -11.228  0.00  0.00    +0.169 A 
ATOM     21  F   UNL     1       5.430 -14.806 -11.482  0.00  0.00    -0.202 F 
ATOM     22  C   UNL     1       3.175 -15.249 -11.062  0.00  0.00    +0.065 A 
BRANCH  17  18
ATOM     18  O   UNL     1       6.049 -17.462 -11.319  0.00  0.00    -0.502 OA
ATOM     19  H   UNL     1       6.384 -17.191 -12.277  0.00  0.00    +0.292 HD
ENDBRANCH  17  18
ENDBRANCH  11  13
BRANCH   7  25
ATOM     25  C   UNL     1       0.201 -19.846 -13.065  0.00  0.00    +0.107 C 
BRANCH  25  26
ATOM     26  C   UNL     1       0.630 -20.172 -14.483  0.00  0.00    +0.022 C 
BRANCH  26  27
ATOM     27  C   UNL     1       2.061 -19.732 -14.782  0.00  0.00    -0.016 C 
ATOM     28  C   UNL     1       2.475 -20.119 -16.190  0.00  0.00    +0.007 C 
ATOM     29  C   UNL     1       3.046 -20.277 -13.764  0.00  0.00    +0.007 C 
ENDBRANCH  26  27
ENDBRANCH  25  26
ENDBRANCH   7  25
TORSDOF 5
