REMARK  Name = NUD
REMARK  4 active torsions:
REMARK  status: ('A' for Active; 'I' for Inactive)
REMARK    1  A    between atoms: C3_3  and  N9_9
REMARK    2  A    between atoms: N10_10  and  C11_11
REMARK    3  A    between atoms: C14_14  and  S17_17
REMARK    4  A    between atoms: S17_17  and  N20_20
REMARK                            x       y       z     vdW  Elec       q    Type
REMARK                         _______ _______ _______ _____ _____    ______ ____
ROOT
ATOM      7  C   UNL     1     -16.338   7.303  -5.466  0.00  0.00    +0.103 A 
ATOM      8  C   UNL     1     -17.004   7.684  -4.234  0.00  0.00    +0.022 A 
ATOM      9  C   UNL     1     -17.818   6.732  -3.596  0.00  0.00    +0.022 A 
ATOM     10  C   UNL     1     -17.987   5.470  -4.096  0.00  0.00    +0.127 A 
ATOM     21  C   UNL     1     -17.307   5.133  -5.265  0.00  0.00    +0.022 A 
ATOM     22  C   UNL     1     -16.532   6.033  -5.994  0.00  0.00    +0.022 A 
ENDROOT
BRANCH  10  11
ATOM     11  S   UNL     1     -18.998   4.353  -3.326  0.00  0.00    +0.094 S 
ATOM     12  O   UNL     1     -19.961   5.078  -2.443  0.00  0.00    -0.148 OA
ATOM     20  O   UNL     1     -19.623   3.635  -4.389  0.00  0.00    -0.148 OA
BRANCH  11  13
ATOM     13  N   UNL     1     -18.055   3.340  -2.486  0.00  0.00    -0.077 NA
ATOM     14  C   UNL     1     -17.501   3.661  -1.270  0.00  0.00    +0.172 A 
ATOM     15  C   UNL     1     -17.573   4.861  -0.655  0.00  0.00    +0.038 A 
ATOM     16  C   UNL     1     -16.937   5.073   0.554  0.00  0.00    +0.005 A 
ATOM     17  C   UNL     1     -16.267   4.004   1.179  0.00  0.00    +0.021 A 
ATOM     18  C   UNL     1     -16.161   2.779   0.516  0.00  0.00    +0.100 A 
ATOM     19  N   UNL     1     -16.846   2.675  -0.657  0.00  0.00    -0.226 NA
ENDBRANCH  11  13
ENDBRANCH  10  11
BRANCH   7   6
ATOM      5  N   UNL     1     -15.584   9.442  -5.780  0.00  0.00    -0.147 NA
ATOM      6  N   UNL     1     -15.580   8.235  -6.199  0.00  0.00    -0.148 NA
BRANCH   5   4
ATOM      1  C   UNL     1     -14.251  12.725  -6.473  0.00  0.00    +0.061 A 
ATOM      2  C   UNL     1     -14.941  11.714  -5.858  0.00  0.00    +0.112 A 
ATOM      3  N   UNL     1     -15.687  11.942  -4.764  0.00  0.00    -0.126 NA
ATOM      4  C   UNL     1     -14.868  10.421  -6.440  0.00  0.00    +0.119 A 
ATOM     23  C   UNL     1     -14.045  10.159  -7.576  0.00  0.00    +0.021 A 
ATOM     24  C   UNL     1     -13.316  11.199  -8.145  0.00  0.00    +0.019 A 
ATOM     25  C   UNL     1     -12.387  10.982  -9.353  0.00  0.00    +0.034 C 
ATOM     26  C   UNL     1     -13.436  12.506  -7.601  0.00  0.00    +0.193 A 
ATOM     27  O   UNL     1     -12.756  13.515  -8.104  0.00  0.00    -0.287 OA
ENDBRANCH   5   4
ENDBRANCH   7   6
TORSDOF 4
