REMARK  Name = 960
REMARK  3 active torsions:
REMARK  status: ('A' for Active; 'I' for Inactive)
REMARK    1  A    between atoms: C10_1  and  C01_8
REMARK    2  A    between atoms: C11_14  and  S26_27
REMARK    3  A    between atoms: N09_20  and  S26_27
REMARK                            x       y       z     vdW  Elec       q    Type
REMARK                         _______ _______ _______ _____ _____    ______ ____
ROOT
ATOM      7  C   UNL     1      -6.205   3.909 -19.917  0.00  0.00    +0.024 A 
ATOM      8  C   UNL     1      -7.173   4.791 -20.507  0.00  0.00    +0.024 A 
ATOM      9  C   UNL     1      -7.732   4.504 -21.875  0.00  0.00    +0.122 A 
ATOM     10  C   UNL     1      -7.317   3.376 -22.556  0.00  0.00    +0.121 A 
ATOM     11  N   UNL     1      -6.314   2.442 -21.938  0.00  0.00    -0.241 NA
ATOM     12  C   UNL     1      -7.977   3.345 -23.779  0.00  0.00    +0.142 A 
ATOM     13  N   UNL     1      -8.804   4.441 -23.842  0.00  0.00    -0.145 NA
ATOM     14  N   UNL     1      -8.665   5.188 -22.655  0.00  0.00    -0.125 N 
ATOM     28  C   UNL     1      -5.777   2.728 -20.633  0.00  0.00    +0.099 A 
ENDROOT
BRANCH   7   1
ATOM      1  C   UNL     1      -5.703   4.204 -18.539  0.00  0.00    +0.041 A 
ATOM      2  C   UNL     1      -5.656   3.268 -17.530  0.00  0.00    +0.122 A 
ATOM      3  N   UNL     1      -5.177   3.875 -16.413  0.00  0.00    -0.168 NA
ATOM      4  N   UNL     1      -4.963   5.220 -16.717  0.00  0.00    -0.247 N 
ATOM      5  C   UNL     1      -4.448   6.229 -15.803  0.00  0.00    +0.154 C 
ATOM      6  C   UNL     1      -5.298   5.422 -18.022  0.00  0.00    +0.097 A 
ENDBRANCH   7   1
BRANCH  14  15
ATOM     15  S   UNL     1      -9.506   6.588 -22.249  0.00  0.00    +0.119 S 
ATOM     26  O   UNL     1      -8.662   7.589 -21.606  0.00  0.00    -0.145 OA
ATOM     27  O   UNL     1     -10.035   7.287 -23.408  0.00  0.00    -0.145 OA
BRANCH  15  16
ATOM     16  C   UNL     1     -10.875   6.097 -21.170  0.00  0.00    +0.232 A 
ATOM     17  N   UNL     1     -10.796   5.919 -19.805  0.00  0.00    -0.191 N 
ATOM     18  N   UNL     1      -9.685   6.083 -18.886  0.00  0.00    -0.151 NA
ATOM     19  C   UNL     1      -9.860   5.836 -17.487  0.00  0.00    +0.158 A 
ATOM     20 CL   UNL     1      -8.500   6.054 -16.479  0.00  0.00    -0.059 Cl
ATOM     21  C   UNL     1     -11.128   5.422 -16.965  0.00  0.00    +0.036 A 
ATOM     22  C   UNL     1     -12.201   5.261 -17.863  0.00  0.00    +0.041 A 
ATOM     23  C   UNL     1     -12.025   5.526 -19.332  0.00  0.00    +0.166 A 
ATOM     24  N   UNL     1     -12.885   5.455 -20.421  0.00  0.00    -0.222 NA
ATOM     25  C   UNL     1     -12.188   5.800 -21.552  0.00  0.00    +0.141 A 
ENDBRANCH  15  16
ENDBRANCH  14  15
TORSDOF 3
