REMARK  Name = 3C3B
REMARK  8 active torsions:
REMARK  status: ('A' for Active; 'I' for Inactive)
REMARK    1  A    between atoms: P_2  and  O_5
REMARK    2  A    between atoms: O_5  and  P_6
REMARK    3  A    between atoms: P_6  and  O_9
REMARK    4  A    between atoms: O_9  and  C_10
REMARK    5  A    between atoms: C_10  and  C_11
REMARK    6  A    between atoms: C_13  and  O_14
REMARK    7  A    between atoms: C_15  and  O_16
REMARK    8  A    between atoms: C_17  and  N_18
REMARK                            x       y       z     vdW  Elec       q    Type
REMARK                         _______ _______ _______ _____ _____    ______ ____
ROOT
ATOM      7  C   UNL     1      -5.428   0.412 -34.216  0.00  0.00    +0.178 C 
ATOM      8  C   UNL     1      -6.690   1.226 -34.466  0.00  0.00    +0.178 C 
ATOM      9  C   UNL     1      -6.363   1.946 -35.804  0.00  0.00    +0.195 C 
ATOM     10  C   UNL     1      -5.224   1.151 -36.385  0.00  0.00    +0.255 C 
ATOM     25  O   UNL     1      -5.033  -0.001 -35.499  0.00  0.00    -0.346 OA
ENDROOT
BRANCH  10  11
ATOM     11  N   UNL     1      -5.472   0.790 -37.844  0.00  0.00    -0.270 N 
ATOM     12  C   UNL     1      -5.560  -0.567 -38.206  0.00  0.00    +0.096 C 
ATOM     13  C   UNL     1      -5.779  -0.919 -39.543  0.00  0.00    +0.061 C 
ATOM     14  C   UNL     1      -5.874   0.071 -40.514  0.00  0.00    +0.123 C 
ATOM     15  N   UNL     1      -6.067  -0.336 -41.794  0.00  0.00    -0.343 N 
ATOM     16  H   UNL     1      -6.135  -1.380 -42.019  0.00  0.00    +0.144 HD
ATOM     17  H   UNL     1      -6.152   0.387 -42.578  0.00  0.00    +0.144 HD
ATOM     18  N   UNL     1      -5.777   1.456 -40.163  0.00  0.00    -0.178 NA
ATOM     19  C   UNL     1      -5.570   1.819 -38.811  0.00  0.00    +0.352 C 
ATOM     20  O   UNL     1      -5.473   3.005 -38.464  0.00  0.00    -0.244 OA
ENDBRANCH  10  11
BRANCH   9  21
ATOM     21  O   UNL     1      -5.799   3.225 -35.456  0.00  0.00    -0.385 OA
ATOM     22  H   UNL     1      -6.497   3.775 -34.896  0.00  0.00    +0.210 HD
ENDBRANCH   9  21
BRANCH   8  23
ATOM     23  O   UNL     1      -6.782   2.273 -33.493  0.00  0.00    -0.386 OA
ATOM     24  H   UNL     1      -6.820   1.855 -32.531  0.00  0.00    +0.210 HD
ENDBRANCH   8  23
BRANCH   7   6
ATOM      6  C   UNL     1      -5.514  -0.989 -33.539  0.00  0.00    +0.202 C 
BRANCH   6   5
ATOM      5  O   UNL     1      -5.953  -1.995 -34.543  0.00  0.00    -0.325 OA
BRANCH   5   4
ATOM      4  P   UNL     1      -7.374  -2.926 -34.277  0.00  0.00    +0.215 P 
ATOM     26  O   UNL     1      -7.411  -3.368 -32.637  0.00  0.00    -0.437 OA
ATOM     27  O   UNL     1      -7.575  -3.987 -35.350  0.00  0.00    -0.517 OA
BRANCH   4   3
ATOM      3  O   UNL     1      -8.629  -1.853 -34.424  0.00  0.00    -0.314 OA
BRANCH   3   2
ATOM      1  O   UNL     1      -8.213  -0.644 -32.046  0.00  0.00    -0.577 OA
ATOM      2  P   UNL     1      -9.374  -1.107 -33.120  0.00  0.00    -0.007 P 
ATOM     28  O   UNL     1     -10.367  -2.283 -32.481  0.00  0.00    -0.577 OA
ATOM     29  O   UNL     1     -10.244  -0.015 -33.577  0.00  0.00    -0.637 OA
ENDBRANCH   3   2
ENDBRANCH   4   3
ENDBRANCH   5   4
ENDBRANCH   6   5
ENDBRANCH   7   6
TORSDOF 8
