REMARK  Name = 4i4e_ligand
REMARK  6 active torsions:
REMARK  status: ('A' for Active; 'I' for Inactive)
REMARK    1  A    between atoms: C1_1  and  N2_2
REMARK    2  A    between atoms: C6_6  and  C18_17
REMARK    3  A    between atoms: C21_20  and  C24_23
REMARK    4  A    between atoms: C29_28  and  C30_29
REMARK    5  A    between atoms: C30_29  and  C31_30
REMARK    6  A    between atoms: C31_30  and  O32_31
REMARK                            x       y       z     vdW  Elec       q    Type
REMARK                         _______ _______ _______ _____ _____    ______ ____
ROOT
ATOM     15  C   UNL     1       5.720  -0.478  28.245  0.00  0.00    -0.024 A 
ATOM     16  C   UNL     1       6.603  -1.237  29.013  0.00  0.00    +0.008 A 
ATOM     17  C   UNL     1       6.117  -2.200  29.875  0.00  0.00    +0.022 A 
ATOM     18  C   UNL     1       4.742  -2.436  29.970  0.00  0.00    +0.047 A 
ATOM     31  C   UNL     1       3.839  -1.664  29.217  0.00  0.00    +0.022 A 
ATOM     32  C   UNL     1       4.331  -0.689  28.361  0.00  0.00    +0.008 A 
ENDROOT
BRANCH  15  14
ATOM      1  C   UNL     1       9.290   3.458  24.361  0.00  0.00    +0.206 C 
ATOM      2  N   UNL     1       7.918   3.594  24.873  0.00  0.00    -0.174 N 
ATOM      3  S   UNL     1       7.042   4.981  24.514  0.00  0.00    +0.081 S 
ATOM      4  O   UNL     1       7.380   5.451  23.218  0.00  0.00    -0.149 OA
ATOM      5  O   UNL     1       7.116   5.830  25.657  0.00  0.00    -0.149 OA
ATOM      6  C   UNL     1       5.386   4.387  24.398  0.00  0.00    +0.129 A 
ATOM      7  C   UNL     1       4.289   4.898  23.752  0.00  0.00    +0.085 A 
ATOM      8  N   UNL     1       3.289   4.061  23.963  0.00  0.00    -0.224 NA
ATOM      9  N   UNL     1       3.736   2.996  24.762  0.00  0.00    -0.219 N 
ATOM     10  H   UNL     1       3.167   2.206  25.098  0.00  0.00    +0.252 HD
ATOM     11  C   UNL     1       5.034   3.194  25.007  0.00  0.00    +0.107 A 
ATOM     12  C   UNL     1       5.964   2.377  25.780  0.00  0.00    +0.034 A 
ATOM     13  C   UNL     1       5.426   1.374  26.594  0.00  0.00    +0.004 A 
ATOM     14  C   UNL     1       6.281   0.568  27.344  0.00  0.00    -0.030 A 
ATOM     33  C   UNL     1       7.673   0.790  27.272  0.00  0.00    -0.006 A 
ATOM     34  C   UNL     1       8.201   1.777  26.459  0.00  0.00    +0.011 A 
ATOM     35  C   UNL     1       7.354   2.591  25.688  0.00  0.00    +0.084 A 
ENDBRANCH  15  14
BRANCH  18  19
ATOM     19  C   UNL     1       4.297  -3.465  30.937  0.00  0.00    +0.205 C 
ATOM     20  N   UNL     1       4.533  -4.785  30.792  0.00  0.00    -0.273 N 
ATOM     21  C   UNL     1       5.229  -5.344  29.621  0.00  0.00    +0.138 C 
ATOM     22  C   UNL     1       4.223  -6.278  28.958  0.00  0.00    +0.028 C 
ATOM     23  C   UNL     1       3.928  -7.424  29.934  0.00  0.00    -0.005 C 
ATOM     28  C   UNL     1       3.284  -6.906  31.224  0.00  0.00    +0.028 C 
ATOM     29  C   UNL     1       4.067  -5.729  31.826  0.00  0.00    +0.138 C 
ATOM     30  O   UNL     1       3.714  -3.074  31.932  0.00  0.00    -0.386 OA
BRANCH  23  24
ATOM     24  C   UNL     1       2.999  -8.442  29.278  0.00  0.00    +0.031 C 
BRANCH  24  25
ATOM     25  C   UNL     1       3.749  -9.772  29.306  0.00  0.00    +0.156 C 
BRANCH  25  26
ATOM     26  O   UNL     1       4.337  -9.971  28.020  0.00  0.00    -0.395 OA
ATOM     27  H   UNL     1       4.810 -10.795  28.014  0.00  0.00    +0.209 HD
ENDBRANCH  25  26
ENDBRANCH  24  25
ENDBRANCH  23  24
ENDBRANCH  18  19
TORSDOF 5
