REMARK  Name = 4YO6
REMARK  4 active torsions:
REMARK  status: ('A' for Active; 'I' for Inactive)
REMARK    1  A    between atoms: N_1  and  C_2
REMARK    2  A    between atoms: C_2  and  C_4
REMARK    3  A    between atoms: C_15  and  C_18
REMARK    4  A    between atoms: N_17  and  C_19
REMARK                            x       y       z     vdW  Elec       q    Type
REMARK                         _______ _______ _______ _____ _____    ______ ____
ROOT
ATOM      1  N   UNL     1      30.157   6.620  -7.181  0.00  0.00    -0.157 NA
ATOM      2  C   UNL     1      29.377   6.469  -6.081  0.00  0.00    +0.147 A 
ATOM      3  N   UNL     1      28.792   7.543  -5.439  0.00  0.00    -0.239 N 
ATOM     10  N   UNL     1      28.108   7.106  -4.328  0.00  0.00    -0.296 N 
ATOM     11  H   UNL     1      27.548   7.709  -3.644  0.00  0.00    +0.187 HD
ATOM     12  C   UNL     1      28.284   5.743  -4.268  0.00  0.00    +0.033 A 
ATOM     13  C   UNL     1      27.720   4.919  -3.152  0.00  0.00    +0.065 C 
ATOM     14  C   UNL     1      29.075   5.288  -5.362  0.00  0.00    +0.068 A 
ENDROOT
BRANCH   3   4
ATOM      4  C   UNL     1      28.848   8.912  -5.745  0.00  0.00    +0.065 A 
ATOM      5  C   UNL     1      28.429   9.400  -7.041  0.00  0.00    +0.028 A 
ATOM      6  C   UNL     1      28.521  10.800  -7.338  0.00  0.00    +0.002 A 
ATOM      7  C   UNL     1      29.012  11.716  -6.347  0.00  0.00    +0.000 A 
ATOM      8  C   UNL     1      29.417  11.231  -5.053  0.00  0.00    +0.002 A 
ATOM      9  C   UNL     1      29.346   9.834  -4.748  0.00  0.00    +0.028 A 
ENDBRANCH   3   4
BRANCH   1  15
ATOM     15  C   UNL     1      30.801   5.669  -7.887  0.00  0.00    +0.274 C 
ATOM     26  O   UNL     1      30.753   4.430  -7.700  0.00  0.00    -0.268 OA
BRANCH  15  16
ATOM     16  C   UNL     1      31.698   6.151  -8.980  0.00  0.00    +0.100 A 
ATOM     17  C   UNL     1      31.773   7.420  -9.477  0.00  0.00    +0.162 A 
ATOM     18  N   UNL     1      31.126   8.585  -9.176  0.00  0.00    -0.261 NA
ATOM     19  C   UNL     1      31.504   9.674  -9.910  0.00  0.00    +0.172 C 
ATOM     20  C   UNL     1      32.488   9.659 -10.959  0.00  0.00    +0.016 C 
ATOM     21  C   UNL     1      33.126   8.459 -11.233  0.00  0.00    +0.110 C 
ATOM     22  N   UNL     1      32.774   7.367 -10.494  0.00  0.00    -0.244 N 
ATOM     23  N   UNL     1      33.324   6.086 -10.585  0.00  0.00    -0.298 N 
ATOM     24  H   UNL     1      34.102   5.757 -11.242  0.00  0.00    +0.187 HD
ATOM     25  C   UNL     1      32.673   5.367  -9.681  0.00  0.00    +0.118 A 
ENDBRANCH  15  16
ENDBRANCH   1  15
TORSDOF 3
