REMARK  Name = DVD
REMARK  5 active torsions:
REMARK  status: ('A' for Active; 'I' for Inactive)
REMARK    1  A    between atoms: C11_3  and  N10_29
REMARK    2  A    between atoms: C13_7  and  C19_12
REMARK    3  A    between atoms: C23_16  and  N27_32
REMARK    4  A    between atoms: C24_17  and  C25_18
REMARK    5  A    between atoms: C28_19  and  C30_20
REMARK                            x       y       z     vdW  Elec       q    Type
REMARK                         _______ _______ _______ _____ _____    ______ ____
ROOT
ATOM     11  C   UNL     1      97.625 112.791 -11.783  0.00  0.00    +0.019 A 
ATOM     12  C   UNL     1      97.448 113.178 -10.438  0.00  0.00    +0.027 A 
ATOM     15  C   UNL     1      98.029 114.378 -10.024  0.00  0.00    +0.072 A 
ATOM     28  C   UNL     1      98.761 115.136 -10.928  0.00  0.00    +0.016 A 
ATOM     29  C   UNL     1      98.939 114.748 -12.241  0.00  0.00    +0.001 A 
ATOM     30  C   UNL     1      98.377 113.564 -12.664  0.00  0.00    +0.001 A 
ENDROOT
BRANCH  11  10
ATOM      6  C   UNL     1      95.812 110.193 -13.827  0.00  0.00    +0.133 A 
ATOM      7  C   UNL     1      96.065 109.076 -13.011  0.00  0.00    +0.312 A 
ATOM      8  N   UNL     1      96.769 109.226 -11.888  0.00  0.00    -0.104 NA
ATOM      9  N   UNL     1      97.258 110.466 -11.530  0.00  0.00    -0.145 NA
ATOM     10  C   UNL     1      97.036 111.531 -12.275  0.00  0.00    +0.104 A 
ATOM     31  O   UNL     1      95.639 107.948 -13.324  0.00  0.00    -0.262 OA
ATOM     32  C   UNL     1      96.291 111.447 -13.484  0.00  0.00    +0.042 A 
BRANCH   6   5
ATOM      1  C   UNL     1      95.120 113.795 -17.864  0.00  0.00    +0.144 C 
ATOM      2  N   UNL     1      94.969 112.421 -17.375  0.00  0.00    -0.251 N 
ATOM      3  N   UNL     1      95.233 111.993 -16.090  0.00  0.00    -0.153 NA
ATOM      4  C   UNL     1      94.960 110.718 -16.065  0.00  0.00    +0.173 A 
ATOM      5  N   UNL     1      95.082 109.909 -14.969  0.00  0.00    -0.188 NA
ATOM     33  C   UNL     1      94.512 110.307 -17.335  0.00  0.00    +0.054 A 
ATOM     34  C   UNL     1      94.531 111.389 -18.107  0.00  0.00    +0.075 A 
ATOM     35  C   UNL     1      94.171 111.497 -19.576  0.00  0.00    +0.118 C 
ATOM     36  N   UNL     1      94.184 112.922 -19.998  0.00  0.00    -0.265 NA
ATOM     37  C   UNL     1      94.218 112.998 -21.472  0.00  0.00    +0.090 C 
ATOM     38  C   UNL     1      95.280 113.696 -19.397  0.00  0.00    +0.099 C 
ENDBRANCH   6   5
ENDBRANCH  11  10
BRANCH  15  16
ATOM     16  N   UNL     1      97.836 114.795  -8.692  0.00  0.00    -0.175 NA
ATOM     17  C   UNL     1      98.816 114.770  -7.757  0.00  0.00    +0.275 C 
ATOM     27  O   UNL     1      99.941 114.363  -8.045  0.00  0.00    -0.268 OA
BRANCH  17  18
ATOM     18  C   UNL     1      98.585 115.181  -6.364  0.00  0.00    +0.085 A 
ATOM     19  S   UNL     1      99.936 115.232  -5.236  0.00  0.00    -0.082 S 
ATOM     20  C   UNL     1      98.904 115.718  -3.909  0.00  0.00    +0.030 A 
ATOM     21  C   UNL     1      99.252 115.999  -2.594  0.00  0.00    +0.006 A 
ATOM     22  C   UNL     1      98.272 116.371  -1.705  0.00  0.00    +0.001 A 
ATOM     23  C   UNL     1      96.955 116.460  -2.126  0.00  0.00    +0.000 A 
ATOM     24  C   UNL     1      96.602 116.187  -3.412  0.00  0.00    +0.001 A 
ATOM     25  C   UNL     1      97.569 115.807  -4.363  0.00  0.00    +0.007 A 
ATOM     26  C   UNL     1      97.416 115.486  -5.735  0.00  0.00    +0.012 A 
ENDBRANCH  17  18
ENDBRANCH  15  16
BRANCH  12  13
ATOM     13  C   UNL     1      96.591 112.372  -9.488  0.00  0.00    +0.210 C 
ATOM     14  O   UNL     1      97.276 111.721  -8.415  0.00  0.00    -0.215 OA
ENDBRANCH  12  13
TORSDOF 5
