REMARK  Name = 5DR9
REMARK  3 active torsions:
REMARK  status: ('A' for Active; 'I' for Inactive)
REMARK    1  A    between atoms: C_1  and  C_15
REMARK    2  A    between atoms: C_6  and  C_7
REMARK    3  A    between atoms: C_15  and  O_16
REMARK                            x       y       z     vdW  Elec       q    Type
REMARK                         _______ _______ _______ _____ _____    ______ ____
ROOT
ATOM      1  C   UNL     1      -5.670  -8.826  12.771  0.00  0.00    +0.070 A 
ATOM      6  C   UNL     1      -6.357  -8.956  11.539  0.00  0.00    +0.016 A 
ATOM      7  C   UNL     1      -6.951 -10.207  11.270  0.00  0.00    +0.072 A 
ATOM      8  N   UNL     1      -6.886 -11.277  12.141  0.00  0.00    -0.247 NA
ATOM      9  C   UNL     1      -6.229 -11.109  13.288  0.00  0.00    +0.072 A 
ATOM     17  C   UNL     1      -7.660 -10.410  10.046  0.00  0.00    +0.030 A 
ATOM     18  C   UNL     1      -7.758  -9.389   9.146  0.00  0.00    +0.022 A 
ATOM     19  C   UNL     1      -7.153  -8.148   9.443  0.00  0.00    +0.042 A 
ATOM     20 CL   UNL     1      -7.306  -6.900   8.276  0.00  0.00    -0.084 Cl
ATOM     21  C   UNL     1      -6.467  -7.906  10.595  0.00  0.00    +0.030 A 
ATOM     22  C   UNL     1      -5.597  -9.873  13.643  0.00  0.00    +0.044 A 
ENDROOT
BRANCH   9  10
ATOM     10  C   UNL     1      -6.168 -12.256  14.207  0.00  0.00    +0.001 A 
ATOM     11  C   UNL     1      -5.494 -12.142  15.426  0.00  0.00    +0.010 A 
ATOM     12  C   UNL     1      -5.428 -13.217  16.303  0.00  0.00    +0.002 A 
ATOM     13  C   UNL     1      -6.035 -14.427  15.979  0.00  0.00    +0.015 A 
ATOM     14  C   UNL     1      -6.695 -14.512  14.768  0.00  0.00    +0.018 A 
ATOM     15 BR   UNL     1      -7.545 -16.191  14.304  0.00  0.00    -0.050 Br
ATOM     16  C   UNL     1      -6.782 -13.465  13.870  0.00  0.00    +0.025 A 
ENDBRANCH   9  10
BRANCH   1   2
ATOM      2  C   UNL     1      -5.022  -7.541  13.122  0.00  0.00    +0.338 C 
ATOM      3  O   UNL     1      -4.389  -6.835  12.364  0.00  0.00    -0.245 OA
BRANCH   2   4
ATOM      4  O   UNL     1      -5.132  -7.096  14.396  0.00  0.00    -0.477 OA
ATOM      5  H   UNL     1      -6.146  -6.962  14.634  0.00  0.00    +0.295 HD
ENDBRANCH   2   4
ENDBRANCH   1   2
TORSDOF 3
