REMARK  Name = 3AD6
REMARK  9 active torsions:
REMARK  status: ('A' for Active; 'I' for Inactive)
REMARK    1  A    between atoms: C_1  and  N_16
REMARK    2  A    between atoms: C_5  and  C_23
REMARK    3  A    between atoms: C_6  and  N_11
REMARK    4  A    between atoms: C_8  and  C_10
REMARK    5  A    between atoms: N_11  and  C_12
REMARK    6  A    between atoms: C_12  and  C_13
REMARK    7  A    between atoms: N_16  and  C_17
REMARK    8  A    between atoms: C_20  and  O_26
REMARK    9  A    between atoms: O_26  and  C_27
REMARK                            x       y       z     vdW  Elec       q    Type
REMARK                         _______ _______ _______ _____ _____    ______ ____
ROOT
ATOM      1  C   UNL     1      27.393  36.323   9.043  0.00  0.00    +0.314 C 
ATOM     12  C   UNL     1      26.160  37.134   9.051  0.00  0.00    +0.180 C 
ATOM     18  C   UNL     1      25.258  36.459   8.093  0.00  0.00    +0.342 C 
ATOM     19  N   UNL     1      23.995  36.745   7.696  0.00  0.00    -0.228 NA
ATOM     20  C   UNL     1      23.445  35.916   6.772  0.00  0.00    +0.046 C 
ATOM     21  C   UNL     1      22.052  36.159   6.263  0.00  0.00    +0.065 C 
ATOM     22  C   UNL     1      24.172  34.830   6.277  0.00  0.00    +0.119 C 
ATOM     23  C   UNL     1      25.470  34.591   6.733  0.00  0.00    +0.301 C 
ATOM     30  N   UNL     1      25.988  35.430   7.641  0.00  0.00    -0.015 N 
ATOM     31  N   UNL     1      27.296  35.288   8.171  0.00  0.00    -0.065 N 
ATOM     32  H   UNL     1      28.029  34.544   7.939  0.00  0.00    +0.348 HD
ENDROOT
BRANCH  12  13
ATOM     13  C   UNL     1      25.800  38.339   9.833  0.00  0.00    +0.252 C 
ATOM     14  N   UNL     1      24.523  38.586  10.092  0.00  0.00    -0.325 N 
ATOM     15  H   UNL     1      24.250  39.453  10.656  0.00  0.00    +0.145 HD
ATOM     16  H   UNL     1      23.766  37.918   9.737  0.00  0.00    +0.145 HD
ATOM     17  O   UNL     1      26.691  39.053  10.242  0.00  0.00    -0.270 OA
ENDBRANCH  12  13
BRANCH   1   2
ATOM      2  N   UNL     1      28.498  36.603   9.773  0.00  0.00    -0.202 N 
ATOM      3  H   UNL     1      28.400  37.045  10.742  0.00  0.00    +0.298 HD
BRANCH   2   4
ATOM      4  C   UNL     1      29.733  36.323   9.277  0.00  0.00    +0.119 A 
ATOM      5  C   UNL     1      29.934  35.221   8.433  0.00  0.00    +0.052 A 
ATOM      6  C   UNL     1      31.202  34.941   7.931  0.00  0.00    +0.049 A 
ATOM      7  C   UNL     1      32.281  35.756   8.278  0.00  0.00    +0.120 A 
ATOM     10  C   UNL     1      32.084  36.856   9.117  0.00  0.00    +0.049 A 
ATOM     11  C   UNL     1      30.814  37.138   9.621  0.00  0.00    +0.052 A 
BRANCH   7   8
ATOM      8  O   UNL     1      33.534  35.481   7.786  0.00  0.00    -0.495 OA
ATOM      9  C   UNL     1      34.585  35.059   8.659  0.00  0.00    +0.277 C 
ENDBRANCH   7   8
ENDBRANCH   2   4
ENDBRANCH   1   2
BRANCH  23  24
ATOM     24  N   UNL     1      26.203  33.548   6.269  0.00  0.00    -0.235 N 
ATOM     25  H   UNL     1      27.152  33.740   5.814  0.00  0.00    +0.291 HD
BRANCH  24  26
ATOM     26  C   UNL     1      25.732  32.175   6.374  0.00  0.00    +0.226 C 
BRANCH  26  27
ATOM     27  C   UNL     1      25.729  31.699   7.824  0.00  0.00    +0.029 C 
ATOM     28  C   UNL     1      24.310  31.311   8.223  0.00  0.00    +0.007 C 
ATOM     29  C   UNL     1      25.331  30.228   7.881  0.00  0.00    +0.007 C 
ENDBRANCH  26  27
ENDBRANCH  24  26
ENDBRANCH  23  24
TORSDOF 7
