REMARK  Name = 6Q91
REMARK  1 active torsions:
REMARK  status: ('A' for Active; 'I' for Inactive)
REMARK    1  A    between atoms: C15_3  and  N17_23
REMARK                            x       y       z     vdW  Elec       q    Type
REMARK                         _______ _______ _______ _____ _____    ______ ____
ROOT
ATOM      1  C   UNL     1     -10.823 -15.737  -9.201  0.00  0.00    -0.100 C 
ATOM      2  C   UNL     1     -11.528 -14.917  -8.103  0.00  0.00    -0.100 C 
ATOM      3  C   UNL     1     -11.928 -13.479  -8.464  0.00  0.00    -0.100 C 
ATOM      4  C   UNL     1     -11.450 -12.966  -9.844  0.00  0.00    -0.100 C 
ATOM      5  C   UNL     1     -11.739 -13.969 -10.965  0.00  0.00    +0.200 C 
ATOM      6  N   UNL     1     -13.206 -14.214 -10.792  0.00  0.00    -0.750 NA
ATOM      7  C   UNL     1     -14.175 -13.599 -11.711  0.00  0.00    +0.450 C 
ATOM     18  N   UNL     1     -13.681 -13.688 -13.107  0.00  0.00    -0.750 NA
ATOM     19  C   UNL     1     -12.425 -12.894 -13.230  0.00  0.00    +0.150 C 
ATOM     20  C   UNL     1     -11.981 -12.770 -14.694  0.00  0.00    -0.100 C 
ATOM     21  C   UNL     1     -10.893 -11.706 -14.793  0.00  0.00    -0.100 C 
ATOM     22  C   UNL     1      -9.727 -11.876 -13.800  0.00  0.00    -0.100 C 
ATOM     23  C   UNL     1     -10.005 -12.738 -12.561  0.00  0.00    +0.550 C 
ATOM     24  O   UNL     1      -9.111 -12.769 -11.730  0.00  0.00    -0.550 OA
ATOM     25  C   UNL     1     -11.295 -13.559 -12.404  0.00  0.00    -0.050 C 
ATOM     26  C   UNL     1     -11.071 -15.334 -10.682  0.00  0.00    -0.100 C 
ENDROOT
BRANCH   7   8
ATOM      8  N   UNL     1     -15.502 -14.198 -11.590  0.00  0.00    -0.400 NA
ATOM      9  C   UNL     1     -16.118 -14.801 -10.524  0.00  0.00    +0.150 A 
ATOM     10  O   UNL     1     -15.562 -15.037  -9.308  0.00  0.00    +0.000 OA
ATOM     11  C   UNL     1     -16.518 -15.676  -8.643  0.00  0.00    +0.000 A 
ATOM     12  C   UNL     1     -16.479 -16.192  -7.349  0.00  0.00    -0.130 A 
ATOM     13  C   UNL     1     -17.606 -16.841  -6.839  0.00  0.00    -0.130 A 
ATOM     14  C   UNL     1     -18.749 -16.979  -7.598  0.00  0.00    -0.130 A 
ATOM     15  C   UNL     1     -18.837 -16.485  -8.908  0.00  0.00    -0.130 A 
ATOM     16  C   UNL     1     -17.737 -15.826  -9.448  0.00  0.00    +0.200 A 
ATOM     17  N   UNL     1     -17.404 -15.254 -10.619  0.00  0.00    -0.300 NA
ENDBRANCH   7   8
TORSDOF 1
