REMARK  Name = 5IA5
REMARK  9 active torsions:
REMARK  status: ('A' for Active; 'I' for Inactive)
REMARK    1  A    between atoms: N_3  and  C_4
REMARK    2  A    between atoms: N_7  and  C_8
REMARK    3  A    between atoms: N_16  and  C_17
REMARK    4  A    between atoms: C_22  and  O_23
REMARK    5  A    between atoms: O_23  and  C_24
REMARK    6  A    between atoms: C_30  and  N_31
REMARK    7  A    between atoms: C_32  and  C_34
REMARK    8  A    between atoms: C_34  and  C_37
REMARK    9  A    between atoms: N_39  and  C_40
REMARK                            x       y       z     vdW  Elec       q    Type
REMARK                         _______ _______ _______ _____ _____    ______ ____
ROOT
ATOM     16  C   UNL     1      17.900  -7.411 104.397  0.00  0.00    +0.131 A 
ATOM     17  C   UNL     1      18.445  -8.672 104.668  0.00  0.00    +0.048 A 
ATOM     18  C   UNL     1      19.245  -8.905 105.796  0.00  0.00    +0.030 A 
ATOM     19  C   UNL     1      19.533  -7.841 106.665  0.00  0.00    +0.069 A 
ATOM     38  C   UNL     1      18.989  -6.589 106.380  0.00  0.00    +0.148 A 
ATOM     39  F   UNL     1      19.246  -5.571 107.190  0.00  0.00    -0.203 F 
ATOM     40  C   UNL     1      18.199  -6.363 105.260  0.00  0.00    +0.086 A 
ENDROOT
BRANCH  19  20
ATOM     20  N   UNL     1      20.264  -7.900 107.805  0.00  0.00    -0.282 N 
ATOM     21  H   UNL     1      20.021  -7.224 108.598  0.00  0.00    +0.155 HD
ATOM     22  C   UNL     1      21.286  -8.769 107.993  0.00  0.00    +0.232 C 
ATOM     37  O   UNL     1      21.695  -9.570 107.147  0.00  0.00    -0.274 OA
BRANCH  22  23
ATOM     23  C   UNL     1      21.998  -8.714 109.357  0.00  0.00    +0.123 C 
ATOM     35  C   UNL     1      22.513 -10.069 109.932  0.00  0.00    +0.027 C 
ATOM     36  C   UNL     1      23.509  -9.071 109.350  0.00  0.00    +0.027 C 
BRANCH  23  24
ATOM     24  C   UNL     1      21.476  -7.674 110.369  0.00  0.00    +0.232 C 
ATOM     25  N   UNL     1      22.039  -7.774 111.606  0.00  0.00    -0.285 N 
ATOM     26  H   UNL     1      22.763  -8.540 111.789  0.00  0.00    +0.155 HD
ATOM     34  O   UNL     1      20.625  -6.837 110.039  0.00  0.00    -0.274 OA
BRANCH  25  27
ATOM     27  C   UNL     1      21.704  -6.927 112.610  0.00  0.00    +0.034 A 
ATOM     28  C   UNL     1      20.376  -6.580 112.887  0.00  0.00    +0.026 A 
ATOM     29  C   UNL     1      20.052  -5.716 113.932  0.00  0.00    +0.040 A 
ATOM     30  C   UNL     1      21.071  -5.236 114.737  0.00  0.00    +0.124 A 
ATOM     31  F   UNL     1      20.773  -4.386 115.769  0.00  0.00    -0.205 F 
ATOM     32  C   UNL     1      22.390  -5.595 114.488  0.00  0.00    +0.040 A 
ATOM     33  C   UNL     1      22.705  -6.454 113.436  0.00  0.00    +0.026 A 
ENDBRANCH  25  27
ENDBRANCH  23  24
ENDBRANCH  22  23
ENDBRANCH  19  20
BRANCH  16  15
ATOM     15  O   UNL     1      17.118  -7.167 103.291  0.00  0.00    -0.456 OA
BRANCH  15  14
ATOM     10  C   UNL     1      13.773  -5.695 102.770  0.00  0.00    +0.130 A 
ATOM     11  N   UNL     1      13.156  -6.068 103.900  0.00  0.00    -0.240 NA
ATOM     12  C   UNL     1      13.819  -6.794 104.888  0.00  0.00    +0.116 A 
ATOM     13  C   UNL     1      15.147  -7.149 104.708  0.00  0.00    +0.066 A 
ATOM     14  C   UNL     1      15.799  -6.809 103.528  0.00  0.00    +0.133 A 
ATOM     41  C   UNL     1      15.100  -6.090 102.566  0.00  0.00    +0.090 A 
BRANCH  10   8
ATOM      3  C   UNL     1      11.247  -2.888  97.702  0.00  0.00    +0.060 C 
ATOM      4  C   UNL     1      10.571  -3.830  98.724  0.00  0.00    +0.038 C 
ATOM      5  C   UNL     1      11.272  -3.880 100.097  0.00  0.00    +0.111 C 
ATOM      6  N   UNL     1      12.720  -3.630 100.044  0.00  0.00    -0.285 N 
ATOM      7  C   UNL     1      13.573  -4.203 100.915  0.00  0.00    +0.308 C 
ATOM      8  N   UNL     1      13.040  -5.004 101.857  0.00  0.00    -0.254 N 
ATOM      9  H   UNL     1      11.975  -5.103 101.889  0.00  0.00    +0.158 HD
ATOM     42  O   UNL     1      14.775  -3.944 100.821  0.00  0.00    -0.252 OA
ATOM     43  C   UNL     1      13.277  -2.714  99.034  0.00  0.00    +0.111 C 
ATOM     44  C   UNL     1      12.174  -1.905  98.415  0.00  0.00    +0.038 C 
BRANCH   3   2
ATOM      1  C   UNL     1      10.674  -1.216  95.856  0.00  0.00    +0.100 C 
ATOM      2  N   UNL     1      10.240  -2.300  96.771  0.00  0.00    -0.297 NA
ATOM     45  C   UNL     1       8.928  -1.974  97.364  0.00  0.00    +0.100 C 
ATOM     46  C   UNL     1       8.923  -0.591  98.021  0.00  0.00    +0.099 C 
ATOM     47  N   UNL     1       9.212   0.451  97.026  0.00  0.00    -0.303 NA
ATOM     48  C   UNL     1       9.186   1.772  97.678  0.00  0.00    +0.105 C 
ATOM     49  C   UNL     1      10.551   0.205  96.463  0.00  0.00    +0.099 C 
ENDBRANCH   3   2
ENDBRANCH  10   8
ENDBRANCH  15  14
ENDBRANCH  16  15
TORSDOF 8
