REMARK  Name = 5osu
REMARK  4 active torsions:
REMARK  status: ('A' for Active; 'I' for Inactive)
REMARK    1  A    between atoms: C4_2  and  C14_7
REMARK    2  A    between atoms: C6_4  and  C7_5
REMARK    3  A    between atoms: C1_11  and  O_12
REMARK    4  A    between atoms: C10_17  and  C11_18
REMARK                            x       y       z     vdW  Elec       q    Type
REMARK                         _______ _______ _______ _____ _____    ______ ____
ROOT
ATOM      1  C   UNL     1    -107.292-176.366 306.078  0.00  0.00    +0.035 A 
ATOM      2  C   UNL     1    -108.594-175.963 305.797  0.00  0.00    +0.082 A 
ATOM      5  C   UNL     1    -109.516-175.775 306.834  0.00  0.00    +0.014 A 
ATOM     15  C   UNL     1    -109.093-175.966 308.147  0.00  0.00    +0.024 A 
ATOM     16  C   UNL     1    -107.791-176.357 308.436  0.00  0.00    +0.056 A 
ATOM     21  C   UNL     1    -106.899-176.550 307.389  0.00  0.00    +0.016 A 
ENDROOT
BRANCH   5   6
ATOM      6  C   UNL     1    -110.950-175.439 306.618  0.00  0.00    +0.003 A 
ATOM      7  C   UNL     1    -111.920-176.386 306.942  0.00  0.00    +0.011 A 
ATOM      8  C   UNL     1    -113.253-176.147 306.676  0.00  0.00    +0.006 A 
ATOM      9  C   UNL     1    -113.673-174.948 306.115  0.00  0.00    -0.033 A 
ATOM     12  C   UNL     1    -112.714-173.979 305.846  0.00  0.00    +0.026 A 
ATOM     13  C   UNL     1    -111.380-174.232 306.084  0.00  0.00    +0.049 A 
ATOM     14 CL   UNL     1    -110.214-173.010 305.686  0.00  0.00    -0.084 Cl
BRANCH   9  10
ATOM     10  C   UNL     1    -115.119-174.616 305.748  0.00  0.00    +0.113 C 
ATOM     11  N   UNL     1    -116.036-175.711 305.555  0.00  0.00    -0.089 NA
ENDBRANCH   9  10
ENDBRANCH   5   6
BRANCH  16  17
ATOM     17  C   UNL     1    -107.373-176.557 309.855  0.00  0.00    +0.416 C 
ATOM     18  F   UNL     1    -106.062-176.767 309.987  0.00  0.00    -0.166 F 
ATOM     19  F   UNL     1    -108.018-177.589 310.438  0.00  0.00    -0.166 F 
ATOM     20  F   UNL     1    -107.599-175.493 310.612  0.00  0.00    -0.166 F 
ENDBRANCH  16  17
BRANCH   2   3
ATOM      3  O   UNL     1    -109.043-175.653 304.544  0.00  0.00    -0.349 OA
ATOM      4  C   UNL     1    -108.091-175.579 303.481  0.00  0.00    +0.203 C 
ENDBRANCH   2   3
TORSDOF 4
