REMARK  Name = 4qtb_ligand
REMARK  7 active torsions:
REMARK  status: ('A' for Active; 'I' for Inactive)
REMARK    1  A    between atoms: C20_2  and  C19_19
REMARK    2  A    between atoms: N5_3  and  C21_4
REMARK    3  A    between atoms: C27_7  and  C28_8
REMARK    4  A    between atoms: N_22  and  C2_24
REMARK    5  A    between atoms: C2_24  and  C3_25
REMARK    6  A    between atoms: N2_30  and  C8_33
REMARK    7  A    between atoms: C11_36  and  C14_39
REMARK                            x       y       z     vdW  Elec       q    Type
REMARK                         _______ _______ _______ _____ _____    ______ ____
ROOT
ATOM      3  C   UNL     1      35.055  53.295  49.579  0.00  0.00    +0.159 C 
ATOM      4  C   UNL     1      35.963  52.449  50.421  0.00  0.00    +0.159 C 
ATOM      5  N   UNL     1      37.277  53.045  50.208  0.00  0.00    +0.254 N 
ATOM      6  H   UNL     1      37.538  52.741  49.283  0.00  0.00    +0.205 HD
ATOM     28  C   UNL     1      37.095  54.481  50.058  0.00  0.00    +0.136 C 
ATOM     29  C   UNL     1      35.786  54.628  49.321  0.00  0.00    +0.082 C 
ENDROOT
BRANCH   3   2
ATOM      1  O   UNL     1      35.268  51.577  47.927  0.00  0.00    -0.384 OA
ATOM      2  C   UNL     1      34.658  52.578  48.338  0.00  0.00    +0.212 C 
ATOM     30  N   UNL     1      33.651  53.164  47.682  0.00  0.00    -0.234 N 
ATOM     31  H   UNL     1      33.236  53.961  48.122  0.00  0.00    +0.226 HD
BRANCH  30  32
ATOM     32  C   UNL     1      33.110  52.781  46.438  0.00  0.00    +0.067 A 
ATOM     33  C   UNL     1      33.775  51.882  45.592  0.00  0.00    +0.009 A 
ATOM     34  C   UNL     1      33.236  51.532  44.373  0.00  0.00    -0.009 A 
ATOM     35  C   UNL     1      32.006  52.097  44.012  0.00  0.00    -0.002 A 
ATOM     36  N   UNL     1      31.214  51.878  42.937  0.00  0.00    -0.282 NA
ATOM     37  N   UNL     1      30.045  52.580  43.015  0.00  0.00    -0.224 N 
ATOM     38  H   UNL     1      29.298  52.589  42.306  0.00  0.00    +0.295 HD
ATOM     39  C   UNL     1      30.038  53.246  44.157  0.00  0.00    +0.141 A 
ATOM     46  C   UNL     1      31.288  52.951  44.873  0.00  0.00    +0.021 A 
ATOM     47  C   UNL     1      31.874  53.331  46.078  0.00  0.00    +0.023 A 
BRANCH  39  40
ATOM     40  C   UNL     1      28.858  54.051  44.582  0.00  0.00    +0.038 A 
ATOM     41  C   UNL     1      27.923  54.487  43.651  0.00  0.00    +0.041 A 
ATOM     42  C   UNL     1      26.814  55.175  44.111  0.00  0.00    +0.084 A 
ATOM     43  N   UNL     1      26.618  55.488  45.399  0.00  0.00    -0.307 NA
ATOM     44  C   UNL     1      27.531  55.079  46.273  0.00  0.00    +0.084 A 
ATOM     45  C   UNL     1      28.650  54.356  45.921  0.00  0.00    +0.041 A 
ENDBRANCH  39  40
ENDBRANCH  30  32
ENDBRANCH   3   2
BRANCH   5   7
ATOM      7  C   UNL     1      38.342  52.555  50.984  0.00  0.00    +0.271 C 
BRANCH   7   8
ATOM      8  C   UNL     1      39.733  52.950  50.534  0.00  0.00    +0.224 C 
ATOM      9  N   UNL     1      40.733  52.778  51.417  0.00  0.00    -0.265 N 
ATOM     10  C   UNL     1      42.094  53.194  51.134  0.00  0.00    +0.162 C 
ATOM     11  C   UNL     1      42.303  54.539  51.749  0.00  0.00    +0.156 C 
ATOM     12  N   UNL     1      42.049  54.526  53.197  0.00  0.00    -0.302 N 
ATOM     25  C   UNL     1      40.798  53.865  53.595  0.00  0.00    +0.156 C 
ATOM     26  C   UNL     1      40.594  52.557  52.861  0.00  0.00    +0.162 C 
ATOM     27  O   UNL     1      39.901  53.385  49.405  0.00  0.00    -0.391 OA
BRANCH  12  13
ATOM     13  C   UNL     1      42.254  55.753  53.888  0.00  0.00    +0.046 A 
ATOM     14  C   UNL     1      43.216  56.690  53.460  0.00  0.00    +0.015 A 
ATOM     15  C   UNL     1      43.336  57.906  54.158  0.00  0.00    +0.006 A 
ATOM     16  C   UNL     1      42.528  58.185  55.283  0.00  0.00    +0.009 A 
ATOM     23  C   UNL     1      41.605  57.243  55.674  0.00  0.00    +0.006 A 
ATOM     24  C   UNL     1      41.469  56.047  54.993  0.00  0.00    +0.015 A 
BRANCH  16  17
ATOM     17  C   UNL     1      42.564  59.515  55.984  0.00  0.00    +0.119 A 
ATOM     18  N   UNL     1      43.149  60.516  55.347  0.00  0.00    -0.263 NA
ATOM     19  C   UNL     1      43.101  61.715  55.966  0.00  0.00    +0.118 A 
ATOM     20  C   UNL     1      42.523  61.912  57.190  0.00  0.00    +0.063 A 
ATOM     21  C   UNL     1      42.001  60.795  57.787  0.00  0.00    +0.118 A 
ATOM     22  N   UNL     1      42.010  59.579  57.213  0.00  0.00    -0.263 NA
ENDBRANCH  16  17
ENDBRANCH  12  13
ENDBRANCH   7   8
ENDBRANCH   5   7
TORSDOF 7
