REMARK  Name = 5AV3
REMARK  5 active torsions:
REMARK  status: ('A' for Active; 'I' for Inactive)
REMARK    1  A    between atoms: C_2  and  O_21
REMARK    2  A    between atoms: C_6  and  O_20
REMARK    3  A    between atoms: C_8  and  O_19
REMARK    4  A    between atoms: C_9  and  C_10
REMARK    5  A    between atoms: C_13  and  O_18
REMARK                            x       y       z     vdW  Elec       q    Type
REMARK                         _______ _______ _______ _____ _____    ______ ____
ROOT
ATOM      1  C   UNL     1     -20.178  -1.067 -12.011  0.00  0.00    +0.091 A 
ATOM      2  C   UNL     1     -19.933  -0.285 -10.888  0.00  0.00    +0.124 A 
ATOM      5  C   UNL     1     -20.782   0.771 -10.579  0.00  0.00    +0.092 A 
ATOM      6  C   UNL     1     -21.882   1.044 -11.383  0.00  0.00    +0.146 A 
ATOM      7  O   UNL     1     -22.721   2.071 -11.069  0.00  0.00    -0.451 OA
ATOM      8  C   UNL     1     -23.840   2.347 -11.809  0.00  0.00    +0.181 C 
ATOM     17  C   UNL     1     -24.095   1.549 -12.928  0.00  0.00    +0.208 C 
ATOM     20  C   UNL     1     -23.242   0.528 -13.315  0.00  0.00    +0.238 C 
ATOM     21  O   UNL     1     -23.481  -0.162 -14.308  0.00  0.00    -0.283 OA
ATOM     22  C   UNL     1     -22.136   0.274 -12.516  0.00  0.00    +0.109 A 
ATOM     23  C   UNL     1     -21.279  -0.783 -12.810  0.00  0.00    +0.135 A 
ENDROOT
BRANCH   8   9
ATOM      9  C   UNL     1     -24.629   3.368 -11.269  0.00  0.00    +0.021 A 
ATOM     10  C   UNL     1     -25.723   3.959 -11.898  0.00  0.00    +0.015 A 
ATOM     11  C   UNL     1     -26.451   4.955 -11.245  0.00  0.00    +0.046 A 
ATOM     12  C   UNL     1     -26.099   5.357  -9.960  0.00  0.00    +0.117 A 
ATOM     15  C   UNL     1     -25.016   4.760  -9.333  0.00  0.00    +0.046 A 
ATOM     16  C   UNL     1     -24.290   3.776  -9.983  0.00  0.00    +0.015 A 
BRANCH  12  13
ATOM     13  O   UNL     1     -26.802   6.330  -9.312  0.00  0.00    -0.507 OA
ATOM     14  H   UNL     1     -27.203   5.940  -8.423  0.00  0.00    +0.292 HD
ENDBRANCH  12  13
ENDBRANCH   8   9
BRANCH   2   3
ATOM      3  O   UNL     1     -18.864  -0.550 -10.088  0.00  0.00    -0.506 OA
ATOM      4  H   UNL     1     -18.947  -1.523  -9.703  0.00  0.00    +0.292 HD
ENDBRANCH   2   3
BRANCH  17  18
ATOM     18  O   UNL     1     -25.202   1.763 -13.688  0.00  0.00    -0.501 OA
ATOM     19  H   UNL     1     -24.913   2.000 -14.669  0.00  0.00    +0.292 HD
ENDBRANCH  17  18
BRANCH  23  24
ATOM     24  O   UNL     1     -21.578  -1.509 -13.916  0.00  0.00    -0.506 OA
ATOM     25  H   UNL     1     -20.779  -1.457 -14.596  0.00  0.00    +0.292 HD
ENDBRANCH  23  24
TORSDOF 5
