REMARK  Name = AE6T
REMARK  0 active torsions:
REMARK  status: ('A' for Active; 'I' for Inactive)
REMARK                            x       y       z     vdW  Elec       q    Type
REMARK                         _______ _______ _______ _____ _____    ______ ____
ROOT
ATOM      1  O   HOH     1     -16.584  16.244  16.746  0.00  0.00    +0.000 OA
ENDROOT
TORSDOF 0
