REMARK  Name = PAZ
REMARK  8 active torsions:
REMARK  status: ('A' for Active; 'I' for Inactive)
REMARK    1  A    between atoms: P1_2  and  O2_5
REMARK    2  A    between atoms: O2_5  and  C2_6
REMARK    3  A    between atoms: C2_6  and  C1_7
REMARK    4  A    between atoms: C1_7  and  C5_10
REMARK    5  A    between atoms: C5_10  and  C6_12
REMARK    6  A    between atoms: N_14  and  C8_15
REMARK    7  A    between atoms: C8_15  and  C9_16
REMARK    8  A    between atoms: C9_16  and  C_17
REMARK                            x       y       z     vdW  Elec       q    Type
REMARK                         _______ _______ _______ _____ _____    ______ ____
ROOT
ATOM      9  C   UNL     1      31.366  13.074  -5.646  0.00  0.00    +0.231 C 
ATOM     10  O   UNL     1      30.017  12.854  -5.897  0.00  0.00    -0.213 OA
ENDROOT
BRANCH   9   7
ATOM      7  C   UNL     1      31.642  14.624  -5.657  0.00  0.00    +0.065 C 
ATOM      8  C   UNL     1      33.041  14.957  -5.090  0.00  0.00    +0.006 C 
ATOM     19  C   UNL     1      31.546  15.189  -7.110  0.00  0.00    +0.006 C 
BRANCH   7   6
ATOM      6  C   UNL     1      30.579  15.287  -4.766  0.00  0.00    +0.157 C 
BRANCH   6   5
ATOM      5  O   UNL     1      30.818  14.979  -3.362  0.00  0.00    -0.270 OA
BRANCH   5   2
ATOM      1  O   UNL     1      28.498  15.280  -2.345  0.00  0.00    -0.115 OA
ATOM      2  P   UNL     1      29.682  14.327  -2.445  0.00  0.00    +0.533 P 
ATOM      3  O   UNL     1      30.245  14.108  -1.051  0.00  0.00    -0.115 OA
ATOM      4  O   UNL     1      29.263  12.982  -3.042  0.00  0.00    -0.222 OA
ENDBRANCH   5   2
ENDBRANCH   6   5
ENDBRANCH   7   6
ENDBRANCH   9   7
BRANCH   9  11
ATOM     11  C   UNL     1      32.172  12.285  -6.670  0.00  0.00    +0.272 C 
ATOM     12  O   UNL     1      33.403  12.299  -6.670  0.00  0.00    -0.271 OA
ATOM     13  N   UNL     1      31.444  11.474  -7.664  0.00  0.00    -0.203 NA
BRANCH  13  14
ATOM     14  C   UNL     1      32.152  10.709  -8.662  0.00  0.00    +0.127 C 
BRANCH  14  15
ATOM     15  C   UNL     1      32.229  11.532  -9.944  0.00  0.00    +0.137 C 
BRANCH  15  16
ATOM     16  C   UNL     1      33.316  10.936 -10.833  0.00  0.00    +0.367 C 
ATOM     17  O   UNL     1      34.475  10.752 -10.350  0.00  0.00    -0.246 OA
ATOM     18  O   UNL     1      33.068  10.631 -12.030  0.00  0.00    -0.246 OA
ENDBRANCH  15  16
ENDBRANCH  14  15
ENDBRANCH  13  14
ENDBRANCH   9  11
TORSDOF 8
