REMARK  Name = 3w2s_ligand
REMARK  11 active torsions:
REMARK  status: ('A' for Active; 'I' for Inactive)
REMARK    1  A    between atoms: C13_13  and  N34_34
REMARK    2  A    between atoms: C14_14  and  N33_33
REMARK    3  A    between atoms: C15_15  and  O38_38
REMARK    4  A    between atoms: C16_16  and  O38_38
REMARK    5  A    between atoms: C25_25  and  N35_35
REMARK    6  A    between atoms: C26_26  and  C27_27
REMARK    7  A    between atoms: C26_26  and  N32_32
REMARK    8  A    between atoms: C27_27  and  O39_39
REMARK    9  A    between atoms: C28_28  and  C29_29
REMARK   10  A    between atoms: C28_28  and  O37_37
REMARK   11  A    between atoms: C29_29  and  O39_39
REMARK                            x       y       z     vdW  Elec       q    Type
REMARK                         _______ _______ _______ _____ _____    ______ ____
ROOT
ATOM      5  C   UNL     1       6.903   0.712   9.086  0.00  0.00    +0.119 A 
ATOM      6  C   UNL     1       7.272  -0.547   9.486  0.00  0.00    +0.064 A 
ATOM      7 CL   UNL     1       8.075  -1.555   8.327  0.00  0.00    -0.080 Cl
ATOM      8  C   UNL     1       7.015  -0.956  10.770  0.00  0.00    +0.021 A 
ATOM      9  C   UNL     1       6.379  -0.103  11.652  0.00  0.00    +0.055 A 
ATOM     28  C   UNL     1       5.992   1.165  11.235  0.00  0.00    +0.007 A 
ATOM     29  C   UNL     1       6.252   1.579   9.947  0.00  0.00    +0.016 A 
ENDROOT
BRANCH   9  10
ATOM     10  N   UNL     1       6.165  -0.563  12.954  0.00  0.00    -0.260 N 
ATOM     11  H   UNL     1       5.244  -0.876  13.292  0.00  0.00    +0.214 HD
ATOM     12  C   UNL     1       7.334  -0.562  13.776  0.00  0.00    +0.168 A 
ATOM     13  N   UNL     1       8.500  -0.097  13.288  0.00  0.00    -0.270 NA
ATOM     14  C   UNL     1       9.594  -0.068  14.050  0.00  0.00    +0.141 A 
ATOM     15  N   UNL     1       9.724  -0.473  15.318  0.00  0.00    -0.313 NA
ATOM     16  C   UNL     1       8.566  -0.947  15.811  0.00  0.00    +0.038 A 
ATOM     17  C   UNL     1       8.325  -1.462  17.109  0.00  0.00    -0.013 A 
ATOM     18  C   UNL     1       7.001  -1.824  17.168  0.00  0.00    +0.136 A 
ATOM     19  N   UNL     1       6.446  -1.533  15.951  0.00  0.00    -0.252 N 
ATOM     27  C   UNL     1       7.383  -0.998  15.092  0.00  0.00    +0.140 A 
BRANCH  19  20
ATOM     20  C   UNL     1       5.042  -1.833  15.681  0.00  0.00    +0.204 C 
BRANCH  20  21
ATOM     21  C   UNL     1       4.115  -0.695  16.103  0.00  0.00    +0.192 C 
BRANCH  21  22
ATOM     22  O   UNL     1       4.270   0.251  15.055  0.00  0.00    -0.375 OA
BRANCH  22  23
ATOM     23  C   UNL     1       3.364   1.326  15.257  0.00  0.00    +0.188 C 
BRANCH  23  24
ATOM     24  C   UNL     1       3.215   1.974  13.912  0.00  0.00    +0.184 C 
BRANCH  24  25
ATOM     25  O   UNL     1       2.428   1.112  13.113  0.00  0.00    -0.393 OA
ATOM     26  H   UNL     1       2.864   0.272  13.032  0.00  0.00    +0.209 HD
ENDBRANCH  24  25
ENDBRANCH  23  24
ENDBRANCH  22  23
ENDBRANCH  21  22
ENDBRANCH  20  21
ENDBRANCH  19  20
ENDBRANCH   9  10
BRANCH   5   4
ATOM      4  O   UNL     1       7.234   1.046   7.785  0.00  0.00    -0.268 OA
BRANCH   4   3
ATOM      1  C   UNL     1       7.317   4.651   7.257  0.00  0.00    -0.028 A 
ATOM      2  C   UNL     1       7.720   3.384   7.627  0.00  0.00    -0.002 A 
ATOM      3  C   UNL     1       6.857   2.327   7.425  0.00  0.00    +0.100 A 
ATOM     30  C   UNL     1       5.616   2.488   6.858  0.00  0.00    +0.032 A 
ATOM     31  C   UNL     1       5.218   3.760   6.497  0.00  0.00    +0.058 A 
ATOM     44  C   UNL     1       6.073   4.824   6.695  0.00  0.00    -0.011 A 
BRANCH  31  32
ATOM     32  N   UNL     1       3.971   3.973   5.917  0.00  0.00    -0.222 N 
ATOM     33  H   UNL     1       3.846   4.780   5.339  0.00  0.00    +0.225 HD
ATOM     34  C   UNL     1       2.899   3.125   6.101  0.00  0.00    +0.287 C 
ATOM     35  O   UNL     1       2.931   1.997   6.596  0.00  0.00    -0.390 OA
ATOM     36  N   UNL     1       1.767   3.713   5.604  0.00  0.00    -0.265 N 
ATOM     37  H   UNL     1       1.803   4.659   5.282  0.00  0.00    +0.186 HD
BRANCH  36  38
ATOM     38  C   UNL     1       0.520   2.983   5.538  0.00  0.00    +0.098 C 
ATOM     39  C   UNL     1      -0.627   3.943   5.280  0.00  0.00    +0.027 C 
ATOM     40  C   UNL     1      -1.950   3.204   5.317  0.00  0.00    +0.002 C 
ATOM     41  C   UNL     1      -1.964   2.065   4.319  0.00  0.00    +0.000 C 
ATOM     42  C   UNL     1      -0.793   1.136   4.538  0.00  0.00    +0.002 C 
ATOM     43  C   UNL     1       0.517   1.902   4.473  0.00  0.00    +0.027 C 
ENDBRANCH  36  38
ENDBRANCH  31  32
ENDBRANCH   4   3
ENDBRANCH   5   4
TORSDOF 11
