REMARK  Name = A1N1
REMARK  2 active torsions:
REMARK  status: ('A' for Active; 'I' for Inactive)
REMARK    1  A    between atoms: C2_2  and  C3_3
REMARK    2  A    between atoms: N2_12  and  C4_13
REMARK                            x       y       z     vdW  Elec       q    Type
REMARK                         _______ _______ _______ _____ _____    ______ ____
ROOT
ATOM      3  C   UNL     1      34.779   4.603  71.028  0.00  0.00    +0.277 C 
ATOM      4  N   UNL     1      34.890   3.380  71.622  0.00  0.00    -0.174 NA
ATOM     12  O   UNL     1      33.688   5.059  70.687  0.00  0.00    -0.267 OA
ENDROOT
BRANCH   4   5
ATOM      5  C   UNL     1      33.764   2.632  71.854  0.00  0.00    +0.084 A 
ATOM      6  C   UNL     1      33.217   2.593  73.145  0.00  0.00    +0.073 A 
ATOM      7 CL   UNL     1      33.906   3.463  74.485  0.00  0.00    -0.081 Cl
ATOM      8  C   UNL     1      32.082   1.825  73.381  0.00  0.00    +0.013 A 
ATOM      9  C   UNL     1      31.480   1.103  72.358  0.00  0.00    +0.001 A 
ATOM     10  C   UNL     1      32.023   1.142  71.080  0.00  0.00    +0.001 A 
ATOM     11  C   UNL     1      33.166   1.896  70.818  0.00  0.00    +0.017 A 
ENDBRANCH   4   5
BRANCH   3   2
ATOM      1  C   UNL     1      37.198   5.035  70.943  0.00  0.00    +0.112 A 
ATOM      2  C   UNL     1      35.891   5.364  70.828  0.00  0.00    +0.107 A 
ATOM     13  S   UNL     1      35.809   7.014  70.350  0.00  0.00    -0.044 S 
ATOM     14  C   UNL     1      37.504   7.221  70.336  0.00  0.00    +0.201 A 
ATOM     15  N   UNL     1      38.222   8.324  70.030  0.00  0.00    -0.100 NA
ATOM     16  N   UNL     1      38.072   6.051  70.687  0.00  0.00    -0.220 NA
ENDBRANCH   3   2
TORSDOF 2
