REMARK  Name = 5AIK
REMARK  8 active torsions:
REMARK  status: ('A' for Active; 'I' for Inactive)
REMARK    1  A    between atoms: C_2  and  C_5
REMARK    2  A    between atoms: C_14  and  O_15
REMARK    3  A    between atoms: O_15  and  C_16
REMARK    4  A    between atoms: N_19  and  C_20
REMARK    5  A    between atoms: C_20  and  C_21
REMARK    6  A    between atoms: C_21  and  C_22
REMARK    7  A    between atoms: C_22  and  C_23
REMARK    8  A    between atoms: C_23  and  N_24
REMARK                            x       y       z     vdW  Elec       q    Type
REMARK                         _______ _______ _______ _____ _____    ______ ____
ROOT
ATOM      3  C   UNL     1      19.621  27.094  30.295  0.00  0.00    +0.168 A 
ATOM      4  N   UNL     1      19.006  28.277  30.282  0.00  0.00    -0.249 NA
ATOM      5  C   UNL     1      17.806  28.392  30.885  0.00  0.00    +0.112 A 
ATOM      6  C   UNL     1      17.136  27.357  31.522  0.00  0.00    +0.030 A 
ATOM      7  C   UNL     1      17.750  26.113  31.545  0.00  0.00    +0.011 A 
ATOM      8  C   UNL     1      17.385  24.834  32.087  0.00  0.00    +0.008 A 
ATOM      9  C   UNL     1      18.433  23.946  31.784  0.00  0.00    +0.054 A 
ATOM     10  N   UNL     1      19.413  24.623  31.082  0.00  0.00    -0.338 N 
ATOM     18  C   UNL     1      18.392  22.613  32.171  0.00  0.00    +0.072 A 
ATOM     19  C   UNL     1      17.262  22.180  32.876  0.00  0.00    +0.122 A 
ATOM     22  C   UNL     1      16.218  23.037  33.182  0.00  0.00    +0.046 A 
ATOM     23  C   UNL     1      16.268  24.368  32.791  0.00  0.00    +0.014 A 
ATOM     24  C   UNL     1      19.011  25.949  30.929  0.00  0.00    +0.081 A 
ENDROOT
BRANCH   3   2
ATOM      1  F   UNL     1      20.939  26.298  28.550  0.00  0.00    -0.164 F 
ATOM      2  C   UNL     1      20.943  27.094  29.586  0.00  0.00    +0.436 C 
ATOM     25  F   UNL     1      21.265  28.308  29.155  0.00  0.00    -0.164 F 
ATOM     26  F   UNL     1      21.915  26.711  30.366  0.00  0.00    -0.164 F 
ENDBRANCH   3   2
BRANCH  19  20
ATOM     20  O   UNL     1      17.091  20.883  33.304  0.00  0.00    -0.495 OA
ATOM     21  C   UNL     1      18.238  20.031  33.405  0.00  0.00    +0.277 C 
ENDBRANCH  19  20
BRANCH  10  11
ATOM     11  C   UNL     1      20.660  24.004  30.635  0.00  0.00    +0.122 C 
BRANCH  11  12
ATOM     12  C   UNL     1      20.477  23.054  29.465  0.00  0.00    +0.023 C 
BRANCH  12  13
ATOM     13  C   UNL     1      21.298  21.767  29.569  0.00  0.00    +0.017 C 
BRANCH  13  14
ATOM     14  C   UNL     1      22.526  21.761  28.698  0.00  0.00    +0.078 C 
BRANCH  14  15
ATOM     15  N   UNL     1      23.521  22.801  29.094  0.00  0.00    -0.330 NA
ATOM     16  H   UNL     1      23.073  23.770  29.020  0.00  0.00    +0.118 HD
ATOM     17  H   UNL     1      23.835  22.629  30.102  0.00  0.00    +0.118 HD
ENDBRANCH  14  15
ENDBRANCH  13  14
ENDBRANCH  12  13
ENDBRANCH  11  12
ENDBRANCH  10  11
TORSDOF 7
