REMARK  Name = 5ANG
REMARK  3 active torsions:
REMARK  status: ('A' for Active; 'I' for Inactive)
REMARK    1  A    between atoms: C_1  and  C_3
REMARK    2  A    between atoms: C_3  and  N_7
REMARK    3  A    between atoms: C_15  and  O_18
REMARK                            x       y       z     vdW  Elec       q    Type
REMARK                         _______ _______ _______ _____ _____    ______ ____
ROOT
ATOM      1  C   UNL     1      -1.143  -6.839 -25.654  0.00  0.00    -0.016 C 
ATOM      2  C   UNL     1      -2.257  -6.429 -24.872  0.00  0.00    +0.097 C 
ATOM      3  C   UNL     1      -2.773  -5.125 -25.016  0.00  0.00    +0.338 C 
ATOM      4  O   UNL     1      -3.772  -4.769 -24.396  0.00  0.00    -0.245 OA
ATOM      5  O   UNL     1      -2.155  -4.203 -25.824  0.00  0.00    -0.422 OA
ATOM      6  C   UNL     1      -1.056  -4.527 -26.545  0.00  0.00    +0.143 A 
ATOM      7  C   UNL     1      -0.491  -3.518 -27.344  0.00  0.00    +0.092 A 
ATOM      8  C   UNL     1       0.623  -3.817 -28.077  0.00  0.00    +0.120 A 
ATOM     11  C   UNL     1       1.178  -5.098 -28.065  0.00  0.00    +0.046 A 
ATOM     12  C   UNL     1       0.584  -6.090 -27.279  0.00  0.00    +0.015 A 
ATOM     20  C   UNL     1      -0.540  -5.828 -26.477  0.00  0.00    +0.022 A 
ENDROOT
BRANCH   8   9
ATOM      9  O   UNL     1       1.194  -2.861 -28.800  0.00  0.00    -0.507 OA
ATOM     10  H   UNL     1       0.506  -2.496 -29.505  0.00  0.00    +0.292 HD
ENDBRANCH   8   9
BRANCH   1  13
ATOM     13  C   UNL     1      -0.493  -8.126 -25.568  0.00  0.00    +0.120 C 
BRANCH  13  14
ATOM     14  N   UNL     1      -1.001  -9.036 -24.528  0.00  0.00    -0.294 NA
ATOM     15  C   UNL     1      -0.388  -8.740 -23.255  0.00  0.00    +0.113 C 
ATOM     16  C   UNL     1      -0.772  -9.794 -22.171  0.00  0.00    +0.175 C 
ATOM     17  O   UNL     1      -0.565 -11.065 -22.715  0.00  0.00    -0.377 OA
ATOM     18  C   UNL     1      -1.294 -11.264 -23.974  0.00  0.00    +0.175 C 
ATOM     19  C   UNL     1      -0.653 -10.393 -24.970  0.00  0.00    +0.113 C 
ENDBRANCH  13  14
ENDBRANCH   1  13
TORSDOF 3
