REMARK  Name = 3f2a_ligand
REMARK  5 active torsions:
REMARK  status: ('A' for Active; 'I' for Inactive)
REMARK    1  A    between atoms: C1_1  and  C13_18
REMARK    2  A    between atoms: C3_3  and  N1_7
REMARK    3  A    between atoms: N3_10  and  C8_14
REMARK    4  A    between atoms: C15_20  and  C18_21
REMARK    5  A    between atoms: C19_22  and  C9_23
REMARK                            x       y       z     vdW  Elec       q    Type
REMARK                         _______ _______ _______ _____ _____    ______ ____
ROOT
ATOM      1  C   UNL     1      73.312  36.867   2.380  0.00  0.00    +0.066 A 
ATOM     13  C   UNL     1      72.730  37.851   3.227  0.00  0.00    +0.114 A 
ATOM     14  N   UNL     1      72.828  37.706   4.570  0.00  0.00    -0.286 NA
ATOM     15  C   UNL     1      73.450  36.674   5.193  0.00  0.00    +0.140 A 
ATOM     16  C   UNL     1      74.051  35.659   4.390  0.00  0.00    +0.142 A 
ATOM     26  N   UNL     1      73.955  35.799   3.027  0.00  0.00    -0.258 NA
ENDROOT
BRANCH  16  17
ATOM     17  N   UNL     1      74.720  34.555   4.916  0.00  0.00    -0.283 N 
ATOM     18  C   UNL     1      74.573  34.133   6.341  0.00  0.00    +0.141 C 
ATOM     19  C   UNL     1      73.719  32.854   6.516  0.00  0.00    +0.075 C 
ATOM     20  C   UNL     1      74.056  31.708   5.542  0.00  0.00    +0.133 C 
ATOM     21  N   UNL     1      73.760  32.096   4.143  0.00  0.00    +0.235 N 
ATOM     22  H   UNL     1      73.116  32.872   4.133  0.00  0.00    +0.203 HD
ATOM     23  C   UNL     1      73.167  30.946   3.439  0.00  0.00    +0.190 C 
ATOM     24  C   UNL     1      75.025  32.483   3.460  0.00  0.00    +0.156 C 
ATOM     25  C   UNL     1      75.631  33.794   4.024  0.00  0.00    +0.186 C 
ENDBRANCH  16  17
BRANCH   1   2
ATOM      2  C   UNL     1      73.260  36.904   0.874  0.00  0.00    +0.005 A 
ATOM      3  C   UNL     1      73.451  35.672   0.169  0.00  0.00    +0.028 A 
ATOM      4  C   UNL     1      73.405  35.614  -1.259  0.00  0.00    -0.016 A 
ATOM     10  C   UNL     1      73.161  36.812  -2.003  0.00  0.00    +0.017 A 
ATOM     11  C   UNL     1      72.967  38.065  -1.326  0.00  0.00    +0.007 A 
ATOM     12  C   UNL     1      73.017  38.101   0.107  0.00  0.00    +0.019 A 
BRANCH   4   5
ATOM      5  C   UNL     1      73.600  34.332  -1.984  0.00  0.00    +0.025 C 
ATOM      6  C   UNL     1      74.124  33.195  -1.427  0.00  0.00    +0.036 C 
BRANCH   6   7
ATOM      7  C   UNL     1      74.278  31.940  -2.205  0.00  0.00    +0.052 C 
ATOM      8  O   UNL     1      73.624  31.817  -3.386  0.00  0.00    -0.563 OA
ATOM      9  O   UNL     1      74.962  31.073  -1.756  0.00  0.00    -0.563 OA
ENDBRANCH   6   7
ENDBRANCH   4   5
ENDBRANCH   1   2
TORSDOF 4
