REMARK  Name = 4mbi_ligand
REMARK  7 active torsions:
REMARK  status: ('A' for Active; 'I' for Inactive)
REMARK    1  A    between atoms: N1_1  and  C2_10
REMARK    2  A    between atoms: N1_1  and  C1_11
REMARK    3  A    between atoms: N1_1  and  C3_12
REMARK    4  A    between atoms: C4_3  and  C3_12
REMARK    5  A    between atoms: C4_3  and  N2_13
REMARK    6  A    between atoms: C5_4  and  N2_13
REMARK    7  A    between atoms: C10_8  and  C9_15
REMARK                            x       y       z     vdW  Elec       q    Type
REMARK                         _______ _______ _______ _____ _____    ______ ____
ROOT
ATOM      7  C   UNL     1      22.902  36.794  -2.699  0.00  0.00    +0.129 A 
ATOM      8  N   UNL     1      22.843  36.090  -1.530  0.00  0.00    -0.248 NA
ATOM      9  C   UNL     1      23.212  36.737  -0.388  0.00  0.00    +0.147 A 
ATOM     10  C   UNL     1      23.276  36.322   0.939  0.00  0.00    +0.109 A 
ATOM     11  C   UNL     1      23.761  37.350   1.753  0.00  0.00    +0.304 A 
ATOM     12  N   UNL     1      24.020  38.439   0.936  0.00  0.00    -0.170 N 
ATOM     13  H   UNL     1      24.392  39.359   1.210  0.00  0.00    +0.284 HD
ATOM     20  N   UNL     1      23.660  38.004  -0.354  0.00  0.00    -0.218 N 
ATOM     21  C   UNL     1      23.750  38.725  -1.476  0.00  0.00    +0.123 A 
ATOM     22  C   UNL     1      23.355  38.133  -2.670  0.00  0.00    +0.080 A 
ENDROOT
BRANCH  10  14
ATOM     14  C   UNL     1      22.917  35.048   1.424  0.00  0.00    +0.085 A 
ATOM     15  C   UNL     1      22.990  34.694   2.767  0.00  0.00    +0.130 A 
ATOM     16  N   UNL     1      22.543  33.405   2.773  0.00  0.00    -0.175 NA
ATOM     17  N   UNL     1      22.206  32.966   1.488  0.00  0.00    -0.171 N 
ATOM     18  H   UNL     1      21.845  32.035   1.234  0.00  0.00    +0.277 HD
ATOM     19  C   UNL     1      22.443  33.993   0.643  0.00  0.00    +0.280 A 
ENDBRANCH  10  14
BRANCH   7   5
ATOM      5  N   UNL     1      22.552  36.228  -3.889  0.00  0.00    -0.298 N 
ATOM      6  H   UNL     1      22.501  36.842  -4.715  0.00  0.00    +0.183 HD
BRANCH   5   4
ATOM      4  C   UNL     1      22.244  34.811  -4.075  0.00  0.00    +0.182 C 
BRANCH   4   3
ATOM      3  C   UNL     1      23.529  33.972  -3.990  0.00  0.00    +0.155 C 
BRANCH   3   1
ATOM      1  N   UNL     1      23.587  32.963  -5.026  0.00  0.00    +0.232 N 
ATOM      2  H   UNL     1      24.380  33.151  -5.619  0.00  0.00    +0.203 HD
ATOM     23  C   UNL     1      22.374  33.007  -5.824  0.00  0.00    +0.190 C 
ATOM     24  C   UNL     1      23.734  31.632  -4.447  0.00  0.00    +0.190 C 
ENDBRANCH   3   1
ENDBRANCH   4   3
ENDBRANCH   5   4
ENDBRANCH   7   5
TORSDOF 5
