REMARK  Name = 4YZ9
REMARK  5 active torsions:
REMARK  status: ('A' for Active; 'I' for Inactive)
REMARK    1  A    between atoms: C_8  and  C_22
REMARK    2  A    between atoms: C_9  and  C_23
REMARK    3  A    between atoms: C_10  and  C_24
REMARK    4  A    between atoms: C_23  and  N_26
REMARK    5  A    between atoms: C_24  and  N_27
REMARK                            x       y       z     vdW  Elec       q    Type
REMARK                         _______ _______ _______ _____ _____    ______ ____
ROOT
ATOM      8  N   UNL     1     -73.033  22.165 -17.876  0.00  0.00    -0.295 N 
ATOM      9  H   UNL     1     -72.653  23.024 -18.246  0.00  0.00    +0.151 HD
ATOM     10  C   UNL     1     -73.373  22.102 -16.587  0.00  0.00    +0.302 C 
ATOM     11  O   UNL     1     -73.866  21.047 -16.129  0.00  0.00    -0.253 OA
ATOM     12  N   UNL     1     -73.209  23.138 -15.755  0.00  0.00    -0.285 N 
ATOM     13  C   UNL     1     -72.652  24.451 -16.140  0.00  0.00    +0.117 C 
ATOM     14  C   UNL     1     -71.698  25.098 -15.116  0.00  0.00    +0.001 C 
ATOM     15  C   UNL     1     -70.345  24.345 -15.130  0.00  0.00    +0.093 C 
ATOM     16  N   UNL     1     -69.518  25.126 -16.055  0.00  0.00    -0.298 NA
ATOM     26  C   UNL     1     -69.891  26.537 -15.862  0.00  0.00    +0.085 C 
ATOM     27  C   UNL     1     -71.412  26.531 -15.607  0.00  0.00    +0.025 C 
ATOM     28  C   UNL     1     -72.292  25.118 -13.687  0.00  0.00    +0.011 C 
ATOM     29  C   UNL     1     -73.602  24.315 -13.569  0.00  0.00    +0.020 C 
ATOM     30  C   UNL     1     -73.579  22.994 -14.342  0.00  0.00    +0.109 C 
ENDROOT
BRANCH   8   7
ATOM      7  C   UNL     1     -73.242  21.020 -18.779  0.00  0.00    +0.141 C 
BRANCH   7   6
ATOM      1  C   UNL     1     -72.136  17.425 -18.197  0.00  0.00    +0.003 A 
ATOM      2  C   UNL     1     -70.909  17.622 -17.555  0.00  0.00    -0.050 A 
ATOM      3  C   UNL     1     -70.090  16.442 -17.117  0.00  0.00    +0.044 C 
ATOM      4  C   UNL     1     -70.436  18.913 -17.304  0.00  0.00    +0.003 A 
ATOM      5  C   UNL     1     -71.192  20.021 -17.703  0.00  0.00    +0.005 A 
ATOM      6  C   UNL     1     -72.418  19.831 -18.351  0.00  0.00    -0.030 A 
ATOM     31  C   UNL     1     -72.892  18.534 -18.594  0.00  0.00    +0.005 A 
ENDBRANCH   7   6
ENDBRANCH   8   7
BRANCH  16  17
ATOM     17  C   UNL     1     -68.080  24.964 -15.751  0.00  0.00    +0.119 C 
BRANCH  17  18
ATOM     18  C   UNL     1     -67.689  23.498 -15.725  0.00  0.00    -0.032 A 
ATOM     19  C   UNL     1     -67.760  22.725 -16.888  0.00  0.00    +0.026 A 
ATOM     20  C   UNL     1     -67.405  21.373 -16.863  0.00  0.00    +0.059 A 
ATOM     21 CL   UNL     1     -67.512  20.435 -18.321  0.00  0.00    -0.082 Cl
ATOM     22  C   UNL     1     -66.969  20.783 -15.674  0.00  0.00    +0.059 A 
ATOM     23 CL   UNL     1     -66.530  19.101 -15.651  0.00  0.00    -0.082 Cl
ATOM     24  C   UNL     1     -66.893  21.555 -14.508  0.00  0.00    +0.022 A 
ATOM     25  C   UNL     1     -67.250  22.908 -14.535  0.00  0.00    +0.006 A 
ENDBRANCH  17  18
ENDBRANCH  16  17
TORSDOF 4
