REMARK  Name = 3we4_ligand
REMARK  6 active torsions:
REMARK  status: ('A' for Active; 'I' for Inactive)
REMARK    1  A    between atoms: C4_1  and  NBA_25
REMARK    2  A    between atoms: C5_2  and  CAJ_26
REMARK    3  A    between atoms: CBB_7  and  CAU_10
REMARK    4  A    between atoms: CAV_18  and  CAO_19
REMARK    5  A    between atoms: CAO_19  and  NAZ_20
REMARK    6  A    between atoms: CAJ_26  and  CAA_27
REMARK                            x       y       z     vdW  Elec       q    Type
REMARK                         _______ _______ _______ _____ _____    ______ ____
ROOT
ATOM      2  N   UNL     1     -14.259  11.387 -13.857  0.00  0.00    -0.279 N 
ATOM      3  C   UNL     1     -14.199  12.533 -14.718  0.00  0.00    +0.187 C 
ATOM      4  C   UNL     1     -13.700  13.851 -14.063  0.00  0.00    +0.159 C 
ATOM      5  N   UNL     1     -14.545  14.152 -12.889  0.00  0.00    +0.259 N 
ATOM      6  H   UNL     1     -15.495  14.233 -13.217  0.00  0.00    +0.206 HD
ATOM      7  C   UNL     1     -14.420  13.009 -11.958  0.00  0.00    +0.159 C 
ATOM     23  C   UNL     1     -14.963  11.749 -12.622  0.00  0.00    +0.187 C 
ENDROOT
BRANCH   2   1
ATOM      1  C   UNL     1     -14.428  10.103 -14.414  0.00  0.00    +0.135 A 
ATOM     24  N   UNL     1     -14.855  10.073 -15.691  0.00  0.00    -0.259 NA
ATOM     25  C   UNL     1     -15.026   8.877 -16.235  0.00  0.00    +0.167 A 
ATOM     26  N   UNL     1     -14.811   7.693 -15.647  0.00  0.00    -0.291 NA
ATOM     27  C   UNL     1     -14.400   7.726 -14.385  0.00  0.00    +0.096 A 
ATOM     28  C   UNL     1     -14.171   8.899 -13.694  0.00  0.00    +0.027 A 
BRANCH  28  29
ATOM     29  C   UNL     1     -13.696   8.805 -12.283  0.00  0.00    +0.070 C 
ATOM     30  C   UNL     1     -12.293   9.345 -12.057  0.00  0.00    +0.020 C 
ENDBRANCH  28  29
ENDBRANCH   2   1
BRANCH   5   8
ATOM      8  C   UNL     1     -14.255  15.328 -12.072  0.00  0.00    +0.282 C 
BRANCH   8   9
ATOM      9  C   UNL     1     -12.876  15.649 -11.625  0.00  0.00    +0.185 A 
ATOM     10  N   UNL     1     -12.253  15.263 -10.531  0.00  0.00    -0.228 N 
ATOM     11  H   UNL     1     -12.628  14.666  -9.780  0.00  0.00    +0.236 HD
ATOM     12  C   UNL     1     -10.986  15.826 -10.599  0.00  0.00    +0.113 A 
ATOM     13  C   UNL     1     -10.851  16.570 -11.796  0.00  0.00    +0.054 A 
ATOM     14  C   UNL     1      -9.674  17.231 -12.119  0.00  0.00    +0.023 A 
ATOM     15  C   UNL     1      -8.652  17.136 -11.212  0.00  0.00    +0.018 A 
ATOM     16  C   UNL     1      -8.779  16.398 -10.028  0.00  0.00    +0.026 A 
ATOM     21  C   UNL     1      -9.932  15.737  -9.676  0.00  0.00    +0.073 A 
ATOM     22  N   UNL     1     -12.050  16.446 -12.449  0.00  0.00    -0.284 NA
BRANCH  16  17
ATOM     17  C   UNL     1      -7.575  16.412  -9.103  0.00  0.00    +0.361 C 
ATOM     18  F   UNL     1      -7.772  15.927  -7.874  0.00  0.00    -0.233 F 
ATOM     19  F   UNL     1      -7.132  17.653  -8.870  0.00  0.00    -0.233 F 
ATOM     20  F   UNL     1      -6.554  15.755  -9.575  0.00  0.00    -0.233 F 
ENDBRANCH  16  17
ENDBRANCH   8   9
ENDBRANCH   5   8
TORSDOF 5
