REMARK  Name = 6NPU
REMARK  2 active torsions:
REMARK  status: ('A' for Active; 'I' for Inactive)
REMARK    1  A    between atoms: C5_1  and  N4_12
REMARK    2  A    between atoms: C10_3  and  N7_14
REMARK                            x       y       z     vdW  Elec       q    Type
REMARK                         _______ _______ _______ _____ _____    ______ ____
ROOT
ATOM      1  C   UNL     1      12.241   6.968 -34.994  0.00  0.00    +0.250 C 
ATOM      2  N   UNL     1      13.118   6.323 -34.288  0.00  0.00    -0.350 NA
ATOM      3  N   UNL     1      14.488   7.065 -34.633  0.00  0.00    -0.150 N 
ATOM     12  C   UNL     1      14.192   8.346 -34.885  0.00  0.00    +0.000 C 
ATOM     17  C   UNL     1      12.655   8.461 -34.808  0.00  0.00    -0.100 C 
ENDROOT
BRANCH   3   4
ATOM      4  C   UNL     1      15.673   6.551 -34.025  0.00  0.00    +0.050 A 
ATOM      5  C   UNL     1      16.830   7.297 -33.976  0.00  0.00    -0.130 A 
ATOM      6  C   UNL     1      17.961   6.755 -33.364  0.00  0.00    -0.130 A 
ATOM      7  C   UNL     1      17.896   5.484 -32.815  0.00  0.00    +0.200 A 
ATOM      8 CL   UNL     1      19.327   4.779 -32.040  0.00  0.00    -0.200 Cl
ATOM      9  C   UNL     1      16.729   4.741 -32.856  0.00  0.00    +0.200 A 
ATOM     10 CL   UNL     1      16.697   3.094 -32.148  0.00  0.00    -0.200 Cl
ATOM     11  C   UNL     1      15.602   5.281 -33.460  0.00  0.00    -0.130 A 
ENDBRANCH   3   4
BRANCH   1  13
ATOM     13  N   UNL     1      10.895   6.529 -34.516  0.00  0.00    -0.550 NA
ATOM     14  C   UNL     1       9.705   7.225 -34.931  0.00  0.00    +0.550 C 
ATOM     15  O   UNL     1       9.819   8.176 -35.633  0.00  0.00    -0.550 OA
ATOM     16  C   UNL     1       8.336   6.732 -34.464  0.00  0.00    -0.150 C 
ENDBRANCH   1  13
TORSDOF 2
