REMARK  Name = 4mf0_ligand
REMARK  7 active torsions:
REMARK  status: ('A' for Active; 'I' for Inactive)
REMARK    1  A    between atoms: C1_1  and  N2_2
REMARK    2  A    between atoms: N2_2  and  C3_3
REMARK    3  A    between atoms: N2_2  and  C4_4
REMARK    4  A    between atoms: C4_4  and  C5_5
REMARK    5  A    between atoms: C8_8  and  C11_11
REMARK    6  A    between atoms: C13_13  and  C14_14
REMARK    7  A    between atoms: C22_22  and  C26_26
REMARK                            x       y       z     vdW  Elec       q    Type
REMARK                         _______ _______ _______ _____ _____    ______ ____
ROOT
ATOM     11  C   UNL     1      -4.315  65.532   1.384  0.00  0.00    +0.224 C 
ATOM     12  N   UNL     1      -5.215  64.581   1.035  0.00  0.00    -0.188 N 
ATOM     13  H   UNL     1      -4.880  63.639   1.033  0.00  0.00    +0.246 HD
ATOM     14  C   UNL     1      -6.550  64.756   0.679  0.00  0.00    +0.213 A 
ATOM     15  S   UNL     1      -7.481  66.258   0.729  0.00  0.00    +0.031 S 
ATOM     16  C   UNL     1      -8.928  65.399   0.196  0.00  0.00    +0.050 A 
ATOM     17  C   UNL     1     -10.222  65.865  -0.067  0.00  0.00    +0.013 A 
ATOM     18  C   UNL     1     -11.207  64.960  -0.486  0.00  0.00    -0.024 A 
ATOM     25  C   UNL     1     -10.863  63.597  -0.659  0.00  0.00    -0.010 A 
ATOM     26  C   UNL     1      -9.595  63.140  -0.425  0.00  0.00    -0.009 A 
ATOM     27  C   UNL     1      -8.597  64.036   0.025  0.00  0.00    +0.009 A 
ATOM     28  N   UNL     1      -7.309  63.774   0.309  0.00  0.00    -0.307 NA
ATOM     29  O   UNL     1      -4.596  66.715   1.368  0.00  0.00    -0.378 OA
ENDROOT
BRANCH  18  19
ATOM     19  C   UNL     1     -12.603  65.424  -0.757  0.00  0.00    +0.002 A 
ATOM     20  C   UNL     1     -13.278  66.287   0.122  0.00  0.00    +0.098 A 
ATOM     21  N   UNL     1     -14.522  66.686  -0.138  0.00  0.00    -0.298 NA
ATOM     22  C   UNL     1     -15.192  66.298  -1.222  0.00  0.00    +0.090 A 
ATOM     23  C   UNL     1     -14.597  65.451  -2.154  0.00  0.00    +0.035 A 
ATOM     24  C   UNL     1     -13.297  65.001  -1.913  0.00  0.00    +0.035 A 
ENDBRANCH  18  19
BRANCH  11  10
ATOM      9  C   UNL     1      -2.192  65.603   2.987  0.00  0.00    +0.060 C 
ATOM     10  C   UNL     1      -2.914  65.072   1.741  0.00  0.00    +0.128 C 
ATOM     30  C   UNL     1      -1.737  66.044   1.590  0.00  0.00    +0.047 C 
BRANCH   9   8
ATOM      5  C   UNL     1       0.241  62.933   5.373  0.00  0.00    -0.005 A 
ATOM      6  C   UNL     1       0.647  63.270   4.081  0.00  0.00    -0.008 A 
ATOM      7  C   UNL     1      -0.124  64.130   3.301  0.00  0.00    -0.012 A 
ATOM      8  C   UNL     1      -1.320  64.655   3.796  0.00  0.00    -0.044 A 
ATOM     31  C   UNL     1      -1.708  64.342   5.100  0.00  0.00    -0.012 A 
ATOM     32  C   UNL     1      -0.939  63.482   5.884  0.00  0.00    -0.008 A 
BRANCH   5   4
ATOM      4  C   UNL     1       1.127  62.026   6.207  0.00  0.00    +0.192 C 
BRANCH   4   2
ATOM      1  C   UNL     1       0.731  59.742   6.905  0.00  0.00    +0.191 C 
ATOM      2  N   UNL     1       0.383  61.152   7.134  0.00  0.00    +0.242 N 
ATOM      3  H   UNL     1      -0.603  61.271   6.959  0.00  0.00    +0.204 HD
ATOM     33  C   UNL     1       0.654  61.515   8.534  0.00  0.00    +0.191 C 
ENDBRANCH   4   2
ENDBRANCH   5   4
ENDBRANCH   9   8
ENDBRANCH  11  10
TORSDOF 5
