REMARK  Name = 3huc_ligand
REMARK  5 active torsions:
REMARK  status: ('A' for Active; 'I' for Inactive)
REMARK    1  A    between atoms: CAW_6  and  C2_7
REMARK    2  A    between atoms: CAU_12  and  NAQ_13
REMARK    3  A    between atoms: CAT_14  and  CAC_16
REMARK    4  A    between atoms: C6_21  and  NAR_22
REMARK    5  A    between atoms: NAR_22  and  CAV_23
REMARK                            x       y       z     vdW  Elec       q    Type
REMARK                         _______ _______ _______ _____ _____    ______ ____
ROOT
ATOM      3  C   UNL     1      23.153  -0.993 -19.306  0.00  0.00    +0.092 A 
ATOM      4  N   UNL     1      22.797  -1.146 -18.015  0.00  0.00    -0.301 NA
ATOM      5  C   UNL     1      22.271  -0.125 -17.325  0.00  0.00    +0.025 A 
ATOM      6  C   UNL     1      22.095   1.117 -17.945  0.00  0.00    +0.045 A 
ATOM      7  C   UNL     1      22.478   1.263 -19.289  0.00  0.00    +0.156 A 
ATOM     16  C   UNL     1      21.535   2.166 -17.205  0.00  0.00    +0.020 A 
ATOM     17  C   UNL     1      21.158   1.967 -15.869  0.00  0.00    +0.029 A 
ATOM     18  C   UNL     1      21.338   0.714 -15.255  0.00  0.00    +0.073 A 
ATOM     25  C   UNL     1      21.900  -0.324 -15.995  0.00  0.00    +0.019 A 
ATOM     26  N   UNL     1      23.002   0.198 -19.931  0.00  0.00    -0.255 NA
ENDROOT
BRANCH   3   2
ATOM      1  C   UNL     1      24.752  -1.909 -20.876  0.00  0.00    +0.020 A 
ATOM      2  C   UNL     1      23.715  -2.091 -19.950  0.00  0.00    +0.014 A 
ATOM     27  C   UNL     1      23.276  -3.380 -19.638  0.00  0.00    +0.020 A 
ATOM     28  C   UNL     1      23.876  -4.474 -20.269  0.00  0.00    +0.006 A 
ATOM     29  C   UNL     1      24.897  -4.275 -21.201  0.00  0.00    +0.007 A 
ATOM     30  C   UNL     1      25.351  -2.998 -21.508  0.00  0.00    +0.006 A 
ENDBRANCH   3   2
BRANCH  18  19
ATOM     19  N   UNL     1      21.019   0.453 -13.971  0.00  0.00    -0.230 N 
ATOM     20  H   UNL     1      21.450  -0.352 -13.565  0.00  0.00    +0.229 HD
ATOM     21  C   UNL     1      20.193   1.145 -13.176  0.00  0.00    +0.226 C 
ATOM     24  O   UNL     1      19.570   2.154 -13.524  0.00  0.00    -0.375 OA
BRANCH  21  22
ATOM     22  C   UNL     1      20.026   0.675 -11.871  0.00  0.00    +0.085 C 
ATOM     23  C   UNL     1      19.183   1.324 -10.970  0.00  0.00    +0.059 C 
ENDBRANCH  21  22
ENDBRANCH  18  19
BRANCH   7   8
ATOM      8  N   UNL     1      22.333   2.437 -19.939  0.00  0.00    -0.221 N 
ATOM      9  H   UNL     1      22.111   3.273 -19.380  0.00  0.00    +0.228 HD
BRANCH   8  10
ATOM     10  C   UNL     1      22.461   2.586 -21.281  0.00  0.00    +0.182 A 
ATOM     11  N   UNL     1      22.484   1.609 -22.200  0.00  0.00    -0.201 N 
ATOM     12  H   UNL     1      22.414   0.600 -22.004  0.00  0.00    +0.252 HD
ATOM     13  N   UNL     1      22.604   2.119 -23.325  0.00  0.00    -0.241 NA
ATOM     14  C   UNL     1      22.667   3.455 -23.203  0.00  0.00    +0.036 A 
ATOM     15  C   UNL     1      22.571   3.756 -21.905  0.00  0.00    -0.006 A 
ENDBRANCH   8  10
ENDBRANCH   7   8
TORSDOF 5
