REMARK  Name = 3OBG
REMARK  6 active torsions:
REMARK  status: ('A' for Active; 'I' for Inactive)
REMARK    1  A    between atoms: O_1  and  S_3
REMARK    2  A    between atoms: C_2  and  S_3
REMARK    3  A    between atoms: S_3  and  C_6
REMARK    4  A    between atoms: C_9  and  C_17
REMARK    5  A    between atoms: C_13  and  C_20
REMARK    6  A    between atoms: C_19  and  C_26
REMARK                            x       y       z     vdW  Elec       q    Type
REMARK                         _______ _______ _______ _____ _____    ______ ____
ROOT
ATOM      8  C   UNL     1       1.632   2.067 -20.525  0.00  0.00    +0.139 A 
ATOM      9  N   UNL     1       2.464   2.150 -19.457  0.00  0.00    -0.337 N 
ATOM     10  H   UNL     1       2.601   2.964 -18.776  0.00  0.00    +0.167 HD
ATOM     11  C   UNL     1       3.077   0.943 -19.469  0.00  0.00    +0.074 A 
ATOM     19  C   UNL     1       2.545   0.084 -20.545  0.00  0.00    +0.097 A 
ATOM     26  N   UNL     1       1.654   0.874 -21.152  0.00  0.00    -0.227 NA
ENDROOT
BRANCH  11  12
ATOM     12  C   UNL     1       4.009   0.526 -18.423  0.00  0.00    +0.001 A 
ATOM     13  C   UNL     1       5.228  -0.097 -18.702  0.00  0.00    +0.013 A 
ATOM     14  C   UNL     1       5.986  -0.540 -17.625  0.00  0.00    +0.039 A 
ATOM     15  C   UNL     1       5.485  -0.389 -16.311  0.00  0.00    +0.123 A 
ATOM     16  F   UNL     1       6.191  -0.816 -15.239  0.00  0.00    -0.205 F 
ATOM     17  C   UNL     1       4.256   0.209 -16.066  0.00  0.00    +0.039 A 
ATOM     18  C   UNL     1       3.511   0.639 -17.139  0.00  0.00    +0.013 A 
ENDBRANCH  11  12
BRANCH   8   7
ATOM      4  C   UNL     1      -0.992   5.131 -21.776  0.00  0.00    +0.023 A 
ATOM      5  C   UNL     1      -0.609   4.150 -22.690  0.00  0.00    +0.017 A 
ATOM      6  C   UNL     1       0.259   3.171 -22.224  0.00  0.00    +0.012 A 
ATOM      7  C   UNL     1       0.747   3.186 -20.907  0.00  0.00    +0.017 A 
ATOM     27  C   UNL     1       0.314   4.138 -19.984  0.00  0.00    +0.012 A 
ATOM     28  C   UNL     1      -0.554   5.135 -20.443  0.00  0.00    +0.017 A 
BRANCH   4   3
ATOM      3  S   UNL     1      -2.115   6.398 -22.328  0.00  0.00    -0.056 S 
ATOM     29  C   UNL     1      -3.363   6.453 -21.018  0.00  0.00    +0.108 C 
BRANCH   3   1
ATOM      1  O   UNL     1      -3.061   5.705 -23.656  0.00  0.00    -0.336 OA
ATOM      2  H   UNL     1      -3.418   4.758 -23.375  0.00  0.00    +0.227 HD
ENDBRANCH   3   1
ENDBRANCH   4   3
ENDBRANCH   8   7
BRANCH  19  20
ATOM     20  C   UNL     1       2.801  -1.320 -20.954  0.00  0.00    +0.005 A 
ATOM     21  C   UNL     1       2.918  -1.659 -22.294  0.00  0.00    +0.030 A 
ATOM     22  C   UNL     1       3.087  -2.995 -22.647  0.00  0.00    +0.111 A 
ATOM     23  N   UNL     1       3.123  -3.951 -21.705  0.00  0.00    -0.263 NA
ATOM     24  C   UNL     1       3.009  -3.659 -20.402  0.00  0.00    +0.111 A 
ATOM     25  C   UNL     1       2.836  -2.333 -19.994  0.00  0.00    +0.030 A 
ENDBRANCH  19  20
TORSDOF 5
