REMARK  Name = 2WMT
REMARK  3 active torsions:
REMARK  status: ('A' for Active; 'I' for Inactive)
REMARK    1  A    between atoms: C_1  and  S_2
REMARK    2  A    between atoms: S_2  and  C_3
REMARK    3  A    between atoms: C_8  and  C_9
REMARK                            x       y       z     vdW  Elec       q    Type
REMARK                         _______ _______ _______ _____ _____    ______ ____
ROOT
ATOM      3  C   UNL     1      10.533  -1.011   7.907  0.00  0.00    +0.157 C 
ATOM      4  N   UNL     1      11.067  -0.112   7.097  0.00  0.00    -0.263 N 
ATOM      5  H   UNL     1      10.575   0.722   6.641  0.00  0.00    +0.157 HD
ATOM      6  C   UNL     1      12.335  -0.458   6.968  0.00  0.00    +0.254 C 
ATOM      7  C   UNL     1      12.594  -1.599   7.713  0.00  0.00    +0.196 C 
ATOM     14  O   UNL     1      13.126   0.170   6.282  0.00  0.00    -0.272 OA
ATOM     15  N   UNL     1      11.434  -1.921   8.279  0.00  0.00    -0.239 NA
ENDROOT
BRANCH   7   8
ATOM      8  C   UNL     1      13.843  -2.208   7.808  0.00  0.00    +0.030 C 
ATOM      9  C   UNL     1      15.024  -1.809   7.181  0.00  0.00    +0.007 C 
ATOM     10  S   UNL     1      16.488  -2.596   7.348  0.00  0.00    -0.121 S 
ATOM     11  C   UNL     1      17.353  -1.557   6.340  0.00  0.00    +0.101 C 
ATOM     12  C   UNL     1      16.478  -0.640   5.913  0.00  0.00    -0.015 C 
ATOM     13  C   UNL     1      15.216  -0.773   6.367  0.00  0.00    +0.011 C 
ENDBRANCH   7   8
BRANCH   3   2
ATOM      1  C   UNL     1       8.514   0.549   9.179  0.00  0.00    +0.093 C 
ATOM      2  S   UNL     1       8.862  -0.996   8.388  0.00  0.00    -0.094 S 
ENDBRANCH   3   2
TORSDOF 2
