REMARK  Name = 5A4L
REMARK  1 active torsions:
REMARK  status: ('A' for Active; 'I' for Inactive)
REMARK    1  A    between atoms: C_12  and  C_14
REMARK                            x       y       z     vdW  Elec       q    Type
REMARK                         _______ _______ _______ _____ _____    ______ ____
ROOT
ATOM      1  N   UNL     1      -5.025 -16.253 -44.389  0.00  0.00    -0.225 NA
ATOM      2  C   UNL     1      -4.239 -15.315 -43.860  0.00  0.00    +0.165 A 
ATOM      3  N   UNL     1      -3.247 -15.511 -42.994  0.00  0.00    -0.265 N 
ATOM      4  H   UNL     1      -2.799 -14.692 -42.471  0.00  0.00    +0.157 HD
ATOM      5  C   UNL     1      -2.829 -16.768 -42.800  0.00  0.00    +0.216 C 
ATOM      6  C   UNL     1      -3.584 -17.839 -43.590  0.00  0.00    +0.109 C 
ATOM      7  O   UNL     1      -1.912 -17.069 -42.039  0.00  0.00    -0.276 OA
ATOM      8  S   UNL     1      -4.657 -13.889 -44.439  0.00  0.00    -0.052 S 
ATOM      9  C   UNL     1      -5.877 -14.432 -45.392  0.00  0.00    +0.041 A 
ATOM     10  C   UNL     1      -6.698 -13.764 -46.195  0.00  0.00    +0.020 A 
ATOM     11  C   UNL     1      -7.668 -14.438 -46.916  0.00  0.00    +0.039 A 
ATOM     12  C   UNL     1      -7.758 -15.811 -46.784  0.00  0.00    +0.126 A 
ATOM     13  F   UNL     1      -8.728 -16.531 -47.503  0.00  0.00    -0.205 F 
ATOM     14  C   UNL     1      -6.873 -16.456 -45.931  0.00  0.00    +0.067 A 
ATOM     15  C   UNL     1      -5.950 -15.772 -45.249  0.00  0.00    +0.083 A 
ENDROOT
TORSDOF 0
