REMARK  Name = 2ym7_ligand
REMARK  5 active torsions:
REMARK  status: ('A' for Active; 'I' for Inactive)
REMARK    1  A    between atoms: CAW_6  and  CAK_7
REMARK    2  A    between atoms: CAK_7  and  NAQ_8
REMARK    3  A    between atoms: NAQ_8  and  C6_9
REMARK    4  A    between atoms: NAR_15  and  CAT_16
REMARK    5  A    between atoms: CAS_19  and  CAB_20
REMARK                            x       y       z     vdW  Elec       q    Type
REMARK                         _______ _______ _______ _____ _____    ______ ____
ROOT
ATOM      6  C   UNL     1      17.995  -0.837   9.481  0.00  0.00    +0.115 A 
ATOM      7  N   UNL     1      18.780   0.012   8.811  0.00  0.00    -0.267 NA
ATOM      8  C   UNL     1      18.282   1.188   8.348  0.00  0.00    +0.164 A 
ATOM      9  N   UNL     1      16.925   1.552   8.567  0.00  0.00    -0.264 NA
ATOM     10  C   UNL     1      16.107   0.753   9.230  0.00  0.00    +0.140 A 
ATOM     11  N   UNL     1      14.809   1.158   9.423  0.00  0.00    -0.230 N 
ATOM     12  H   UNL     1      14.474   1.947   8.870  0.00  0.00    +0.225 HD
ATOM     21  C   UNL     1      16.589  -0.498   9.723  0.00  0.00    +0.086 A 
ENDROOT
BRANCH  11  13
ATOM     13  C   UNL     1      13.864   0.537  10.370  0.00  0.00    +0.177 A 
ATOM     14  N   UNL     1      14.050  -0.737  10.795  0.00  0.00    -0.242 NA
ATOM     15  C   UNL     1      13.168  -1.286  11.633  0.00  0.00    +0.162 A 
ATOM     16  C   UNL     1      12.033  -0.525  12.080  0.00  0.00    +0.185 A 
ATOM     19  N   UNL     1      11.846   0.727  11.658  0.00  0.00    -0.249 NA
ATOM     20  C   UNL     1      12.743   1.282  10.805  0.00  0.00    +0.165 A 
BRANCH  16  17
ATOM     17  C   UNL     1      11.047  -1.171  12.989  0.00  0.00    +0.119 C 
ATOM     18  N   UNL     1      10.272  -1.660  13.653  0.00  0.00    -0.326 NA
ENDBRANCH  16  17
ENDBRANCH  11  13
BRANCH   6   4
ATOM      4  N   UNL     1      18.557  -2.137   9.939  0.00  0.00    -0.304 N 
ATOM      5  H   UNL     1      19.553  -2.316   9.810  0.00  0.00    +0.183 HD
BRANCH   4   3
ATOM      3  C   UNL     1      17.738  -3.158  10.562  0.00  0.00    +0.137 C 
BRANCH   3   2
ATOM      1  C   UNL     1      18.468  -2.632  12.877  0.00  0.00    +0.056 C 
ATOM      2  C   UNL     1      17.289  -2.944  12.057  0.00  0.00    +0.021 C 
ATOM     22  C   UNL     1      16.582  -4.130  12.542  0.00  0.00    +0.056 C 
ATOM     23  C   UNL     1      16.264  -4.043  14.008  0.00  0.00    +0.129 C 
ATOM     24  N   UNL     1      17.443  -3.714  14.815  0.00  0.00    +0.227 N 
ATOM     25  H   UNL     1      18.098  -4.494  14.757  0.00  0.00    +0.201 HD
ATOM     26  H   UNL     1      17.137  -3.544  15.773  0.00  0.00    +0.201 HD
ATOM     27  C   UNL     1      18.113  -2.521  14.333  0.00  0.00    +0.129 C 
ENDBRANCH   3   2
ENDBRANCH   4   3
ENDBRANCH   6   4
TORSDOF 5
