REMARK  Name = AN2
REMARK  6 active torsions:
REMARK  status: ('A' for Active; 'I' for Inactive)
REMARK    1  A    between atoms: PB_2  and  O3A_5
REMARK    2  A    between atoms: O3A_5  and  PA_6
REMARK    3  A    between atoms: PA_6  and  O5'_9
REMARK    4  A    between atoms: O5'_9  and  C5'_10
REMARK    5  A    between atoms: C5'_10  and  C4'_11
REMARK    6  A    between atoms: C1'_17  and  N9_18
REMARK                            x       y       z     vdW  Elec       q    Type
REMARK                         _______ _______ _______ _____ _____    ______ ____
ROOT
ATOM     10  C   UNL     1      19.932 -16.816 -10.018  0.00  0.00    +0.180 C 
ATOM     11  O   UNL     1      19.430 -16.958  -8.780  0.00  0.00    -0.331 OA
ATOM     12  C   UNL     1      17.952 -16.350  -8.803  0.00  0.00    +0.241 C 
ATOM     23  C   UNL     1      17.752 -15.824  -9.983  0.00  0.00    +0.234 C 
ATOM     24  O   UNL     1      16.954 -16.738 -10.807  0.00  0.00    -0.216 OA
ATOM     25  C   UNL     1      19.167 -15.693 -10.665  0.00  0.00    +0.216 C 
ATOM     26  O   UNL     1      19.042 -15.884 -11.976  0.00  0.00    -0.218 OA
ENDROOT
BRANCH  12  13
ATOM     13  N   UNL     1      17.903 -15.447  -7.666  0.00  0.00    -0.269 N 
ATOM     14  C   UNL     1      17.623 -15.813  -6.384  0.00  0.00    +0.182 A 
ATOM     15  N   UNL     1      17.681 -14.707  -5.585  0.00  0.00    -0.219 NA
ATOM     16  C   UNL     1      17.998 -13.655  -6.371  0.00  0.00    +0.152 A 
ATOM     17  C   UNL     1      18.189 -12.314  -6.049  0.00  0.00    +0.192 A 
ATOM     18  N   UNL     1      18.089 -11.648  -4.777  0.00  0.00    -0.105 NA
ATOM     19  N   UNL     1      18.506 -11.438  -7.002  0.00  0.00    -0.204 NA
ATOM     20  C   UNL     1      18.662 -11.861  -8.320  0.00  0.00    +0.202 A 
ATOM     21  N   UNL     1      18.480 -13.186  -8.637  0.00  0.00    -0.205 NA
ATOM     22  C   UNL     1      18.147 -14.094  -7.665  0.00  0.00    +0.169 A 
ENDBRANCH  12  13
BRANCH  10   9
ATOM      9  C   UNL     1      21.411 -16.514  -9.868  0.00  0.00    +0.181 C 
BRANCH   9   8
ATOM      8  O   UNL     1      21.937 -17.639  -9.193  0.00  0.00    -0.311 OA
BRANCH   8   5
ATOM      5  P   UNL     1      23.508 -17.703  -8.922  0.00  0.00    +0.222 P 
ATOM      6  O   UNL     1      24.003 -16.745  -7.803  0.00  0.00    -0.437 OA
ATOM      7  O   UNL     1      23.780 -19.104  -8.587  0.00  0.00    -0.517 OA
BRANCH   5   4
ATOM      4  O   UNL     1      24.094 -17.335 -10.379  0.00  0.00    -0.235 OA
BRANCH   4   2
ATOM      1  N   UNL     1      25.557 -16.784 -12.376  0.00  0.00    -0.018 NA
ATOM      2  P   UNL     1      25.395 -16.550 -10.774  0.00  0.00    +0.474 P 
ATOM      3  O   UNL     1      26.540 -17.103 -10.119  0.00  0.00    -0.125 OA
ATOM     27  O   UNL     1      25.199 -15.113 -10.398  0.00  0.00    -0.234 OA
ENDBRANCH   4   2
ENDBRANCH   5   4
ENDBRANCH   8   5
ENDBRANCH   9   8
ENDBRANCH  10   9
TORSDOF 6
