REMARK  Name = 3vby_ligand
REMARK  2 active torsions:
REMARK  status: ('A' for Active; 'I' for Inactive)
REMARK    1  A    between atoms: CAA_9  and  CAJ_10
REMARK    2  A    between atoms: CAJ_10  and  CAK_12
REMARK                            x       y       z     vdW  Elec       q    Type
REMARK                         _______ _______ _______ _____ _____    ______ ____
ROOT
ATOM      1  C   UNL     1      23.315  37.416  -0.451  0.00  0.00    +0.013 A 
ATOM      2  C   UNL     1      22.876  36.143  -0.462  0.00  0.00    +0.069 A 
ATOM      3  N   UNL     1      22.434  35.338  -1.475  0.00  0.00    -0.270 N 
ATOM      4  H   UNL     1      22.346  35.609  -2.465  0.00  0.00    +0.232 HD
ATOM      5  C   UNL     1      22.126  34.103  -0.947  0.00  0.00    +0.155 A 
ATOM      6  C   UNL     1      22.432  34.150   0.382  0.00  0.00    +0.035 A 
ATOM     14  C   UNL     1      22.911  35.398   0.686  0.00  0.00    -0.010 A 
ATOM     15  C   UNL     1      23.316  35.940   1.828  0.00  0.00    -0.019 A 
ATOM     16  C   UNL     1      23.792  37.251   1.939  0.00  0.00    -0.026 A 
ATOM     17  C   UNL     1      23.798  38.008   0.736  0.00  0.00    -0.022 A 
ENDROOT
BRANCH   6   7
ATOM      7  C   UNL     1      22.317  33.101   1.261  0.00  0.00    +0.157 C 
ATOM     13  O   UNL     1      22.597  33.189   2.479  0.00  0.00    -0.394 OA
BRANCH   7   8
ATOM      8  C   UNL     1      21.929  31.902   0.769  0.00  0.00    +0.162 A 
ATOM      9  C   UNL     1      21.851  31.564  -0.509  0.00  0.00    -0.002 A 
ATOM     10  C   UNL     1      21.420  30.313  -0.561  0.00  0.00    -0.019 A 
ATOM     11  C   UNL     1      21.177  29.826   0.664  0.00  0.00    +0.191 A 
ATOM     12  O   UNL     1      21.478  30.827   1.599  0.00  0.00    -0.253 OA
ENDBRANCH   7   8
ENDBRANCH   6   7
TORSDOF 2
