REMARK  Name = 4ZZO
REMARK  6 active torsions:
REMARK  status: ('A' for Active; 'I' for Inactive)
REMARK    1  A    between atoms: C_1  and  C_5
REMARK    2  A    between atoms: N_2  and  C_10
REMARK    3  A    between atoms: C_5  and  C_8
REMARK    4  A    between atoms: N_6  and  C_17
REMARK    5  A    between atoms: N_6  and  C_18
REMARK    6  A    between atoms: N_13  and  C_22
REMARK                            x       y       z     vdW  Elec       q    Type
REMARK                         _______ _______ _______ _____ _____    ______ ____
ROOT
ATOM     14  C   UNL     1     -16.073  13.436  41.271  0.00  0.00    +0.147 A 
ATOM     15  C   UNL     1     -16.290  12.136  40.795  0.00  0.00    +0.097 A 
ATOM     16  C   UNL     1     -17.506  11.521  41.052  0.00  0.00    +0.109 A 
ATOM     17  N   UNL     1     -18.457  12.138  41.760  0.00  0.00    -0.329 N 
ATOM     18  H   UNL     1     -19.405  11.681  41.954  0.00  0.00    +0.168 HD
ATOM     19  C   UNL     1     -18.153  13.371  42.216  0.00  0.00    +0.225 A 
ATOM     20  N   UNL     1     -19.042  13.947  43.042  0.00  0.00    -0.247 NA
ATOM     27 CL   UNL     1     -15.086  11.321  39.873  0.00  0.00    -0.079 Cl
ATOM     28  N   UNL     1     -17.022  14.057  41.984  0.00  0.00    -0.196 NA
ENDROOT
BRANCH  20  21
ATOM     21  C   UNL     1     -18.879  15.249  43.687  0.00  0.00    +0.113 C 
ATOM     22  C   UNL     1     -17.925  15.138  44.872  0.00  0.00    +0.055 C 
ATOM     23  C   UNL     1     -17.829  16.479  45.559  0.00  0.00    +0.162 C 
ATOM     24  O   UNL     1     -19.116  16.917  46.003  0.00  0.00    -0.380 OA
ATOM     25  C   UNL     1     -19.994  17.100  44.879  0.00  0.00    +0.162 C 
ATOM     26  C   UNL     1     -20.225  15.805  44.139  0.00  0.00    +0.055 C 
ENDBRANCH  20  21
BRANCH  14  12
ATOM     12  N   UNL     1     -14.902  14.110  41.050  0.00  0.00    -0.297 N 
ATOM     13  H   UNL     1     -14.100  13.560  40.602  0.00  0.00    +0.154 HD
BRANCH  12   8
ATOM      7  C   UNL     1     -13.470  15.856  42.023  0.00  0.00    +0.055 A 
ATOM      8  C   UNL     1     -14.656  15.475  41.362  0.00  0.00    +0.054 A 
ATOM      9  C   UNL     1     -15.585  16.459  41.008  0.00  0.00    +0.025 A 
ATOM     10  C   UNL     1     -15.314  17.796  41.264  0.00  0.00    +0.002 A 
ATOM     11  C   UNL     1     -14.122  18.171  41.855  0.00  0.00    +0.002 A 
ATOM     29  C   UNL     1     -13.200  17.213  42.239  0.00  0.00    +0.025 A 
BRANCH   7   5
ATOM      3  C   UNL     1     -12.024  13.848  41.981  0.00  0.00    +0.217 C 
ATOM      4  O   UNL     1     -12.145  13.596  40.783  0.00  0.00    -0.276 OA
ATOM      5  N   UNL     1     -12.619  14.879  42.591  0.00  0.00    -0.284 N 
ATOM      6  H   UNL     1     -12.428  14.977  43.639  0.00  0.00    +0.155 HD
BRANCH   3   2
ATOM      1  C   UNL     1     -11.078  11.573  42.477  0.00  0.00    +0.013 C 
ATOM      2  C   UNL     1     -11.179  13.012  42.908  0.00  0.00    +0.093 C 
ENDBRANCH   3   2
ENDBRANCH   7   5
ENDBRANCH  12   8
ENDBRANCH  14  12
TORSDOF 5
