REMARK  Name = 3ral_ligand
REMARK  9 active torsions:
REMARK  status: ('A' for Active; 'I' for Inactive)
REMARK    1  A    between atoms: C2_5  and  O6_15
REMARK    2  A    between atoms: N2_6  and  C13_20
REMARK    3  A    between atoms: S2_8  and  N4_13
REMARK    4  A    between atoms: S2_8  and  C18_25
REMARK    5  A    between atoms: N3_10  and  C15_22
REMARK    6  A    between atoms: O3_11  and  C11_18
REMARK    7  A    between atoms: O6_15  and  C7_16
REMARK    8  A    between atoms: C10_17  and  C11_18
REMARK    9  A    between atoms: C11_18  and  C12_19
REMARK                            x       y       z     vdW  Elec       q    Type
REMARK                         _______ _______ _______ _____ _____    ______ ____
ROOT
ATOM      6  C   UNL     1      93.716  80.674 -50.086  0.00  0.00    +0.058 A 
ATOM      7  C   UNL     1      93.233  81.443 -51.127  0.00  0.00    +0.054 A 
ATOM     11  N   UNL     1      92.183  82.225 -50.791  0.00  0.00    -0.302 NA
ATOM     12  C   UNL     1      91.854  82.073 -49.503  0.00  0.00    +0.188 A 
ATOM     13  N   UNL     1      90.808  82.804 -48.998  0.00  0.00    -0.242 N 
ATOM     14  H   UNL     1      90.587  83.669 -49.512  0.00  0.00    +0.219 HD
ATOM     27  S   UNL     1      92.839  80.939 -48.646  0.00  0.00    +0.002 S 
ENDROOT
BRANCH  13  15
ATOM     15  C   UNL     1      90.008  82.548 -47.900  0.00  0.00    +0.066 A 
ATOM     16  C   UNL     1      88.958  83.507 -47.596  0.00  0.00    +0.017 A 
ATOM     17  C   UNL     1      88.095  83.294 -46.487  0.00  0.00    +0.016 A 
ATOM     18  C   UNL     1      88.249  82.115 -45.642  0.00  0.00    +0.096 A 
ATOM     19  C   UNL     1      89.291  81.152 -45.922  0.00  0.00    +0.016 A 
ATOM     26  C   UNL     1      90.152  81.360 -47.021  0.00  0.00    +0.017 A 
BRANCH  18  20
ATOM     20  S   UNL     1      87.254  81.879 -44.408  0.00  0.00    +0.061 S 
ATOM     24  O   UNL     1      86.720  83.322 -43.858  0.00  0.00    -0.152 OA
ATOM     25  O   UNL     1      86.032  80.982 -44.952  0.00  0.00    -0.152 OA
BRANCH  20  21
ATOM     21  N   UNL     1      87.983  81.102 -43.273  0.00  0.00    -0.262 NA
ATOM     22  H   UNL     1      88.066  81.508 -42.363  0.00  0.00    +0.163 HD
ATOM     23  H   UNL     1      88.368  80.197 -43.454  0.00  0.00    +0.163 HD
ENDBRANCH  20  21
ENDBRANCH  18  20
ENDBRANCH  13  15
BRANCH   7   8
ATOM      8  N   UNL     1      93.736  81.427 -52.376  0.00  0.00    -0.352 N 
ATOM      9  H   UNL     1      93.320  82.022 -53.107  0.00  0.00    +0.162 HD
ATOM     10  H   UNL     1      94.537  80.820 -52.601  0.00  0.00    +0.162 HD
ENDBRANCH   7   8
BRANCH   6   5
ATOM      5  C   UNL     1      94.861  79.712 -50.159  0.00  0.00    +0.198 C 
BRANCH   5   4
ATOM      1  C   UNL     1      95.908  77.367 -46.581  0.00  0.00    +0.008 A 
ATOM      2  C   UNL     1      94.562  77.271 -47.157  0.00  0.00    -0.020 A 
ATOM      3  C   UNL     1      94.249  78.042 -48.323  0.00  0.00    -0.022 A 
ATOM      4  C   UNL     1      95.244  78.919 -48.949  0.00  0.00    -0.018 A 
ATOM     30  C   UNL     1      96.582  79.004 -48.369  0.00  0.00    +0.019 A 
ATOM     31  C   UNL     1      96.910  78.236 -47.196  0.00  0.00    +0.084 A 
BRANCH  31  32
ATOM     32  O   UNL     1      98.200  78.350 -46.663  0.00  0.00    -0.323 OA
ATOM     33  C   UNL     1      98.620  77.697 -45.578  0.00  0.00    +0.232 C 
ENDBRANCH  31  32
ENDBRANCH   5   4
BRANCH   5  28
ATOM     28  O   UNL     1      95.522  79.568 -51.330  0.00  0.00    -0.373 OA
ATOM     29  H   UNL     1      95.142  80.148 -51.980  0.00  0.00    +0.215 HD
ENDBRANCH   5  28
ENDBRANCH   6   5
TORSDOF 8
