REMARK  Name = 4whz_ligand
REMARK  6 active torsions:
REMARK  status: ('A' for Active; 'I' for Inactive)
REMARK    1  A    between atoms: C26_3  and  N25_29
REMARK    2  A    between atoms: C31_4  and  N29_31
REMARK    3  A    between atoms: C23_5  and  C21_26
REMARK    4  A    between atoms: C07_14  and  N08_15
REMARK    5  A    between atoms: N11_18  and  C12_19
REMARK    6  A    between atoms: N15_21  and  C17_22
REMARK                            x       y       z     vdW  Elec       q    Type
REMARK                         _______ _______ _______ _____ _____    ______ ____
ROOT
ATOM     17  C   UNL     1       2.217 102.494 139.110  0.00  0.00    +0.049 A 
ATOM     18  C   UNL     1       3.324 101.805 139.606  0.00  0.00    +0.057 A 
ATOM     19  C   UNL     1       3.796 100.653 138.960  0.00  0.00    +0.111 A 
ATOM     20  C   UNL     1       3.092 100.152 137.847  0.00  0.00    +0.039 A 
ATOM     21  C   UNL     1       1.930 100.804 137.408  0.00  0.00    +0.000 A 
ATOM     40  C   UNL     1       1.519 102.002 137.998  0.00  0.00    +0.012 A 
ENDROOT
BRANCH  19  22
ATOM     22  N   UNL     1       4.838  99.967 139.501  0.00  0.00    -0.178 N 
ATOM     23  N   UNL     1       5.901 100.464 140.137  0.00  0.00    -0.211 NA
ATOM     24  C   UNL     1       6.666  99.452 140.577  0.00  0.00    +0.086 A 
ATOM     25  C   UNL     1       6.036  98.286 140.237  0.00  0.00    +0.078 A 
ATOM     39  C   UNL     1       4.844  98.636 139.611  0.00  0.00    +0.152 A 
BRANCH  25  26
ATOM     26  N   UNL     1       6.448  96.981 140.644  0.00  0.00    -0.233 N 
ATOM     27  H   UNL     1       7.294  96.921 141.174  0.00  0.00    +0.213 HD
ATOM     28  C   UNL     1       5.752  95.714 140.361  0.00  0.00    +0.307 C 
ATOM     29  O   UNL     1       4.773  95.680 139.600  0.00  0.00    -0.384 OA
ATOM     30  N   UNL     1       6.231  94.483 140.919  0.00  0.00    -0.215 N 
ATOM     31  H   UNL     1       5.892  93.622 140.541  0.00  0.00    +0.226 HD
BRANCH  30  32
ATOM     32  C   UNL     1       7.166  94.436 141.986  0.00  0.00    +0.081 A 
ATOM     33  C   UNL     1       6.906  95.228 143.169  0.00  0.00    +0.009 A 
ATOM     34  C   UNL     1       7.801  95.181 144.220  0.00  0.00    -0.018 A 
ATOM     35  C   UNL     1       8.847  94.258 144.226  0.00  0.00    -0.028 A 
ATOM     36  C   UNL     1       9.014  93.369 143.126  0.00  0.00    -0.003 A 
ATOM     37  C   UNL     1       8.151  93.485 142.037  0.00  0.00    +0.059 A 
ATOM     38 CL   UNL     1       8.350  92.432 140.622  0.00  0.00    -0.083 Cl
ENDBRANCH  30  32
ENDBRANCH  25  26
ENDBRANCH  19  22
BRANCH  17  15
ATOM     13  N   UNL     1       2.688 104.544 140.446  0.00  0.00    -0.253 N 
ATOM     14  H   UNL     1       3.645 104.275 140.340  0.00  0.00    +0.212 HD
ATOM     15  C   UNL     1       1.721 103.740 139.851  0.00  0.00    +0.220 C 
ATOM     16  O   UNL     1       0.535 103.968 139.919  0.00  0.00    -0.379 OA
BRANCH  13  12
ATOM      1  C   UNL     1       3.252 106.838 141.297  0.00  0.00    +0.137 A 
ATOM      2  N   UNL     1       2.700 107.719 142.176  0.00  0.00    -0.214 N 
ATOM      3  N   UNL     1       1.531 107.195 142.628  0.00  0.00    -0.225 NA
ATOM      4  C   UNL     1       1.346 105.977 142.084  0.00  0.00    +0.082 A 
ATOM     12  C   UNL     1       2.408 105.742 141.207  0.00  0.00    +0.073 A 
BRANCH   2   5
ATOM      5  C   UNL     1       3.245 109.039 142.532  0.00  0.00    +0.192 C 
ATOM      6  C   UNL     1       3.348 109.207 144.079  0.00  0.00    +0.168 C 
ATOM      7  N   UNL     1       3.165 110.489 144.297  0.00  0.00    +0.229 N 
ATOM      8  H   UNL     1       4.035 110.991 144.208  0.00  0.00    +0.202 HD
ATOM      9  H   UNL     1       2.783 110.640 145.218  0.00  0.00    +0.202 HD
ATOM     10  C   UNL     1       2.120 110.964 143.167  0.00  0.00    +0.133 C 
ATOM     11  C   UNL     1       2.381 110.232 142.080  0.00  0.00    +0.094 C 
ENDBRANCH   2   5
ENDBRANCH  13  12
ENDBRANCH  17  15
TORSDOF 6
