REMARK  Name = BNK
REMARK  4 active torsions:
REMARK  status: ('A' for Active; 'I' for Inactive)
REMARK    1  A    between atoms: CAU_5  and  NAM_6
REMARK    2  A    between atoms: NAM_6  and  SAV_7
REMARK    3  A    between atoms: SAV_7  and  CAS_10
REMARK    4  A    between atoms: CAQ_16  and  CAR_17
REMARK                            x       y       z     vdW  Elec       q    Type
REMARK                         _______ _______ _______ _____ _____    ______ ____
ROOT
ATOM      8  C   UNL     1       8.210  -7.703  -1.923  0.00  0.00    +0.134 A 
ATOM      9  C   UNL     1       9.095  -6.949  -1.159  0.00  0.00    +0.022 A 
ATOM     10  C   UNL     1       8.813  -6.613   0.161  0.00  0.00    +0.014 A 
ATOM     17  C   UNL     1       7.616  -7.006   0.738  0.00  0.00    +0.002 A 
ATOM     18  C   UNL     1       6.727  -7.759  -0.013  0.00  0.00    +0.013 A 
ATOM     19  C   UNL     1       7.007  -8.112  -1.331  0.00  0.00    +0.076 A 
ATOM     20 CL   UNL     1       5.818  -9.051  -2.176  0.00  0.00    -0.081 Cl
ENDROOT
BRANCH  10  11
ATOM     11  C   UNL     1       9.805  -5.776   0.896  0.00  0.00    +0.063 C 
ATOM     12  C   UNL     1       9.516  -4.933   1.991  0.00  0.00    +0.110 C 
ATOM     13  S   UNL     1      10.971  -4.173   2.409  0.00  0.00    -0.049 S 
ATOM     14  C   UNL     1      11.903  -4.883   1.192  0.00  0.00    +0.296 C 
ATOM     15  O   UNL     1      13.230  -4.699   0.960  0.00  0.00    -0.261 OA
ATOM     16  N   UNL     1      11.117  -5.715   0.490  0.00  0.00    -0.173 NA
ENDBRANCH  10  11
BRANCH   8   7
ATOM      7  S   UNL     1       8.686  -8.084  -3.591  0.00  0.00    +0.078 S 
ATOM     21  O   UNL     1       9.741  -7.132  -3.956  0.00  0.00    -0.152 OA
ATOM     22  O   UNL     1       7.521  -7.999  -4.478  0.00  0.00    -0.152 OA
BRANCH   7   6
ATOM      6  N   UNL     1       9.360  -9.574  -3.644  0.00  0.00    -0.079 NA
BRANCH   6   5
ATOM      1  C   UNL     1       8.943 -11.794  -4.453  0.00  0.00    +0.019 C 
ATOM      2  C   UNL     1       9.419 -12.891  -3.529  0.00  0.00    +0.002 C 
ATOM      3  C   UNL     1       9.443 -12.297  -2.180  0.00  0.00    +0.002 C 
ATOM      4  C   UNL     1       8.485 -11.193  -2.197  0.00  0.00    +0.019 C 
ATOM      5  C   UNL     1       8.471 -10.664  -3.573  0.00  0.00    +0.098 C 
ENDBRANCH   6   5
ENDBRANCH   7   6
ENDBRANCH   8   7
TORSDOF 4
