REMARK  Name = 2bu5_ligand
REMARK  8 active torsions:
REMARK  status: ('A' for Active; 'I' for Inactive)
REMARK    1  A    between atoms: C1_2  and  C4_5
REMARK    2  A    between atoms: C2_3  and  C6_8
REMARK    3  A    between atoms: C4_5  and  C8_10
REMARK    4  A    between atoms: C4_5  and  C9_11
REMARK    5  A    between atoms: C4_5  and  O2_12
REMARK    6  A    between atoms: C7_9  and  C10_14
REMARK    7  A    between atoms: C11_18  and  C12_19
REMARK    8  A    between atoms: C17_25  and  C18_26
REMARK                            x       y       z     vdW  Elec       q    Type
REMARK                         _______ _______ _______ _____ _____    ______ ____
ROOT
ATOM      1  N   UNL     1      57.059  60.193  76.826  0.00  0.00    -0.263 N 
ATOM      2  C   UNL     1      56.948  60.120  78.328  0.00  0.00    +0.167 C 
ATOM      3  C   UNL     1      57.282  61.443  79.041  0.00  0.00    +0.120 C 
ATOM      4  C   UNL     1      58.803  61.750  79.112  0.00  0.00    +0.036 C 
ATOM      5  N   UNL     1      56.563  62.526  78.304  0.00  0.00    -0.264 N 
ATOM      6  C   UNL     1      55.679  63.433  78.896  0.00  0.00    +0.213 C 
ATOM      7  O   UNL     1      55.145  64.286  78.196  0.00  0.00    -0.381 OA
ATOM     16  C   UNL     1      56.831  62.647  76.842  0.00  0.00    +0.166 C 
ATOM     17  C   UNL     1      56.393  61.342  76.139  0.00  0.00    +0.120 C 
ATOM     18  C   UNL     1      54.859  61.118  76.129  0.00  0.00    +0.036 C 
ATOM     19  C   UNL     1      57.674  59.296  75.919  0.00  0.00    +0.239 C 
ATOM     20  O   UNL     1      57.633  59.510  74.701  0.00  0.00    -0.341 OA
ENDROOT
BRANCH   6   8
ATOM      8  C   UNL     1      55.372  63.397  80.336  0.00  0.00    +0.058 A 
ATOM      9  C   UNL     1      54.101  62.906  80.745  0.00  0.00    +0.038 A 
ATOM     10  C   UNL     1      53.761  62.915  82.134  0.00  0.00    +0.051 A 
ATOM     11  C   UNL     1      54.709  63.414  83.088  0.00  0.00    +0.099 A 
ATOM     14  C   UNL     1      55.998  63.909  82.687  0.00  0.00    +0.051 A 
ATOM     15  C   UNL     1      56.336  63.899  81.296  0.00  0.00    +0.038 A 
BRANCH  11  12
ATOM     12  C   UNL     1      54.357  63.393  84.472  0.00  0.00    +0.103 C 
ATOM     13  N   UNL     1      54.062  63.367  85.592  0.00  0.00    -0.326 NA
ENDBRANCH  11  12
ENDBRANCH   6   8
BRANCH  19  21
ATOM     21  C   UNL     1      58.419  57.997  76.457  0.00  0.00    +0.238 C 
ATOM     24  C   UNL     1      59.169  57.421  75.214  0.00  0.00    +0.054 C 
BRANCH  21  25
ATOM     25  C   UNL     1      57.448  56.839  76.971  0.00  0.00    +0.425 C 
ATOM     26  F   UNL     1      56.591  57.229  77.900  0.00  0.00    -0.169 F 
ATOM     27  F   UNL     1      58.133  55.815  77.443  0.00  0.00    -0.169 F 
ATOM     28  F   UNL     1      56.727  56.351  75.969  0.00  0.00    -0.169 F 
ENDBRANCH  21  25
BRANCH  21  22
ATOM     22  O   UNL     1      59.374  58.294  77.342  0.00  0.00    -0.377 OA
ATOM     23  H   UNL     1      59.924  58.985  76.993  0.00  0.00    +0.208 HD
ENDBRANCH  21  22
ENDBRANCH  19  21
TORSDOF 5
