REMARK  Name = 6MNH
REMARK  3 active torsions:
REMARK  status: ('A' for Active; 'I' for Inactive)
REMARK    1  A    between atoms: C4_4  and  C7_7
REMARK    2  A    between atoms: C11_11  and  C12_12
REMARK    3  A    between atoms: C12_12  and  N16_16
REMARK                            x       y       z     vdW  Elec       q    Type
REMARK                         _______ _______ _______ _____ _____    ______ ____
ROOT
ATOM      1  C   UNL     1      11.530   7.649  26.814  0.00  0.00    -0.130 A 
ATOM      2  C   UNL     1      10.329   7.309  26.162  0.00  0.00    +0.000 A 
ATOM     11  C   UNL     1       9.168   8.092  26.319  0.00  0.00    -0.130 A 
ATOM     12  C   UNL     1       9.295   9.212  27.162  0.00  0.00    +0.200 A 
ATOM     13  N   UNL     1       8.422  10.187  27.550  0.00  0.00    -0.200 NA
ATOM     14  N   UNL     1       9.002  11.079  28.393  0.00  0.00    +0.000 NA
ATOM     15  N   UNL     1      10.281  10.725  28.549  0.00  0.00    -0.500 NA
ATOM     16  C   UNL     1      10.472   9.574  27.818  0.00  0.00    +0.200 A 
ATOM     17  C   UNL     1      11.615   8.775  27.648  0.00  0.00    -0.130 A 
ENDROOT
BRANCH   2   3
ATOM      3  C   UNL     1      10.386   6.108  25.292  0.00  0.00    +0.600 C 
ATOM      4  O   UNL     1      11.448   5.474  25.214  0.00  0.00    -0.550 OA
ATOM      5  N   UNL     1       9.272   5.775  24.561  0.00  0.00    -0.400 NA
BRANCH   5   6
ATOM      6  C   UNL     1       9.417   4.598  23.704  0.00  0.00    +0.050 C 
ATOM     10  C   UNL     1       9.100   4.976  22.262  0.00  0.00    -0.150 C 
BRANCH   6   7
ATOM      7  C   UNL     1       8.624   3.371  24.239  0.00  0.00    -0.050 C 
ATOM      8  C   UNL     1       8.823   2.140  23.347  0.00  0.00    -0.150 C 
ATOM      9  C   UNL     1       7.137   3.635  24.445  0.00  0.00    -0.150 C 
ENDBRANCH   6   7
ENDBRANCH   5   6
ENDBRANCH   2   3
TORSDOF 3
