REMARK  Name = 2c69_ligand
REMARK  3 active torsions:
REMARK  status: ('A' for Active; 'I' for Inactive)
REMARK    1  A    between atoms: C3_4  and  C7_8
REMARK    2  A    between atoms: N4_16  and  C13_17
REMARK    3  A    between atoms: C13_17  and  C14_18
REMARK                            x       y       z     vdW  Elec       q    Type
REMARK                         _______ _______ _______ _____ _____    ______ ____
ROOT
ATOM      7  C   UNL     1      13.020  -8.665  10.884  0.00  0.00    +0.120 A 
ATOM      8  N   UNL     1      13.692  -8.741  12.068  0.00  0.00    -0.185 NA
ATOM      9  C   UNL     1      13.239  -9.556  13.051  0.00  0.00    +0.247 A 
ATOM     10  N   UNL     1      13.744  -9.765  14.266  0.00  0.00    -0.216 NA
ATOM     11  C   UNL     1      12.897 -10.618  14.897  0.00  0.00    +0.327 A 
ATOM     12  N   UNL     1      11.901 -10.924  14.023  0.00  0.00    -0.149 N 
ATOM     13  H   UNL     1      11.116 -11.569  14.194  0.00  0.00    +0.300 HD
ATOM     14  N   UNL     1      12.124 -10.248  12.923  0.00  0.00    -0.123 N 
ATOM     15  C   UNL     1      11.390 -10.206  11.789  0.00  0.00    +0.222 A 
ATOM     16  N   UNL     1      10.194 -10.947  11.697  0.00  0.00    -0.247 N 
ATOM     17  H   UNL     1      10.099 -11.835  12.211  0.00  0.00    +0.228 HD
ATOM     25  C   UNL     1      11.840  -9.409  10.712  0.00  0.00    +0.150 A 
ENDROOT
BRANCH   7   6
ATOM      1 BR   UNL     1      14.422  -8.189   5.756  0.00  0.00    -0.046 Br
ATOM      2  C   UNL     1      14.199  -7.473   7.494  0.00  0.00    +0.025 A 
ATOM      3  C   UNL     1      14.545  -6.138   7.761  0.00  0.00    +0.033 A 
ATOM      4  C   UNL     1      14.390  -5.615   9.057  0.00  0.00    +0.019 A 
ATOM      5  C   UNL     1      13.883  -6.434  10.080  0.00  0.00    +0.037 A 
ATOM      6  C   UNL     1      13.535  -7.779   9.796  0.00  0.00    +0.030 A 
ATOM     26  C   UNL     1      13.709  -8.287   8.509  0.00  0.00    +0.045 A 
ENDBRANCH   7   6
BRANCH  16  18
ATOM     18  C   UNL     1       9.092 -10.461  10.878  0.00  0.00    +0.247 C 
BRANCH  18  19
ATOM     19  C   UNL     1       8.827 -11.459   9.779  0.00  0.00    +0.005 A 
ATOM     20  C   UNL     1       8.600 -11.027   8.487  0.00  0.00    +0.035 A 
ATOM     21  C   UNL     1       8.365 -11.966   7.489  0.00  0.00    +0.083 A 
ATOM     22  N   UNL     1       8.386 -13.302   7.777  0.00  0.00    -0.307 NA
ATOM     23  C   UNL     1       8.609 -13.735   9.040  0.00  0.00    +0.083 A 
ATOM     24  C   UNL     1       8.829 -12.820  10.059  0.00  0.00    +0.035 A 
ENDBRANCH  18  19
ENDBRANCH  16  18
TORSDOF 3
