REMARK  Name = 2brb_ligand
REMARK  5 active torsions:
REMARK  status: ('A' for Active; 'I' for Inactive)
REMARK    1  A    between atoms: C10_2  and  C11_3
REMARK    2  A    between atoms: N9_17  and  C8_24
REMARK    3  A    between atoms: C1_21  and  C18_22
REMARK    4  A    between atoms: C23_23  and  C8_24
REMARK    5  A    between atoms: C23_23  and  O24_25
REMARK                            x       y       z     vdW  Elec       q    Type
REMARK                         _______ _______ _______ _____ _____    ______ ____
ROOT
ATOM      1  C   UNL     1      14.311   0.260   9.651  0.00  0.00    +0.155 A 
ATOM      2  N   UNL     1      14.020  -0.821  10.351  0.00  0.00    -0.269 NA
ATOM      3  C   UNL     1      14.918  -1.799  10.569  0.00  0.00    +0.126 A 
ATOM      4  N   UNL     1      14.552  -2.861  11.295  0.00  0.00    -0.298 N 
ATOM      5  H   UNL     1      15.272  -3.490  11.678  0.00  0.00    +0.187 HD
ATOM     10  C   UNL     1      16.203  -1.663  10.032  0.00  0.00    +0.076 A 
ATOM     11  C   UNL     1      17.379  -2.423  10.034  0.00  0.00    +0.022 A 
ATOM     18  C   UNL     1      18.322  -1.700   9.293  0.00  0.00    +0.144 A 
ATOM     19  O   UNL     1      17.752  -0.545   8.863  0.00  0.00    -0.228 OA
ATOM     26  C   UNL     1      16.465  -0.507   9.298  0.00  0.00    +0.201 A 
ATOM     27  N   UNL     1      15.515   0.424   9.127  0.00  0.00    -0.262 NA
ENDROOT
BRANCH  11  12
ATOM     12  C   UNL     1      17.500  -3.666  10.677  0.00  0.00    -0.031 A 
ATOM     13  C   UNL     1      18.103  -3.774  11.932  0.00  0.00    -0.003 A 
ATOM     14  C   UNL     1      18.174  -5.027  12.549  0.00  0.00    -0.005 A 
ATOM     15  C   UNL     1      17.645  -6.178  11.936  0.00  0.00    -0.008 A 
ATOM     16  C   UNL     1      17.035  -6.067  10.685  0.00  0.00    -0.005 A 
ATOM     17  C   UNL     1      16.969  -4.812  10.074  0.00  0.00    -0.003 A 
ENDBRANCH  11  12
BRANCH  18  20
ATOM     20  C   UNL     1      19.647  -1.952   8.949  0.00  0.00    +0.019 A 
ATOM     21  C   UNL     1      20.291  -0.940   8.241  0.00  0.00    +0.011 A 
ATOM     22  C   UNL     1      21.614  -1.056   7.847  0.00  0.00    +0.000 A 
ATOM     23  C   UNL     1      22.290  -2.242   8.138  0.00  0.00    -0.001 A 
ATOM     24  C   UNL     1      21.653  -3.269   8.836  0.00  0.00    +0.000 A 
ATOM     25  C   UNL     1      20.324  -3.134   9.243  0.00  0.00    +0.011 A 
ENDBRANCH  18  20
BRANCH   4   6
ATOM      6  C   UNL     1      13.125  -3.139  11.552  0.00  0.00    +0.163 C 
BRANCH   6   7
ATOM      7  C   UNL     1      12.690  -2.501  12.880  0.00  0.00    +0.180 C 
BRANCH   7   8
ATOM      8  O   UNL     1      12.185  -1.180  12.645  0.00  0.00    -0.393 OA
ATOM      9  H   UNL     1      12.865  -0.648  12.249  0.00  0.00    +0.209 HD
ENDBRANCH   7   8
ENDBRANCH   6   7
ENDBRANCH   4   6
TORSDOF 5
