REMARK  Name = 5E8Y
REMARK  5 active torsions:
REMARK  status: ('A' for Active; 'I' for Inactive)
REMARK    1  A    between atoms: C_4  and  N_34
REMARK    2  A    between atoms: C_5  and  O_32
REMARK    3  A    between atoms: C_6  and  C_7
REMARK    4  A    between atoms: O_32  and  C_33
REMARK    5  A    between atoms: N_34  and  C_35
REMARK                            x       y       z     vdW  Elec       q    Type
REMARK                         _______ _______ _______ _____ _____    ______ ____
ROOT
ATOM      1  O   UNL     1      17.674  -2.151   5.211  0.00  0.00    -0.328 OA
ATOM      2  C   UNL     1      18.220  -1.534   6.375  0.00  0.00    +0.174 C 
ATOM      3  N   UNL     1      17.288  -1.853   7.481  0.00  0.00    -0.307 N 
ATOM      4  C   UNL     1      17.568  -2.032   8.855  0.00  0.00    +0.053 A 
ATOM      5  C   UNL     1      18.744  -1.827   9.570  0.00  0.00    +0.026 A 
ATOM      6  C   UNL     1      18.709  -1.987  10.945  0.00  0.00    +0.002 A 
ATOM      7  C   UNL     1      17.556  -2.409  11.593  0.00  0.00    +0.001 A 
ATOM      8  C   UNL     1      16.394  -2.635  10.885  0.00  0.00    +0.010 A 
ATOM      9  C   UNL     1      16.376  -2.408   9.511  0.00  0.00    +0.008 A 
ATOM     10  C   UNL     1      15.336  -2.406   8.522  0.00  0.00    +0.015 A 
ATOM     11  C   UNL     1      13.973  -2.587   8.599  0.00  0.00    -0.008 A 
ATOM     12  C   UNL     1      13.151  -3.004   9.779  0.00  0.00    +0.141 C 
ATOM     13  N   UNL     1      11.807  -2.899   9.242  0.00  0.00    -0.307 N 
ATOM     14  H   UNL     1      10.989  -3.072   9.817  0.00  0.00    +0.149 HD
ATOM     15  C   UNL     1      11.762  -2.557   7.935  0.00  0.00    +0.245 C 
ATOM     16  O   UNL     1      10.753  -2.450   7.271  0.00  0.00    -0.270 OA
ATOM     17  C   UNL     1      13.151  -2.391   7.491  0.00  0.00    +0.052 A 
ATOM     18  C   UNL     1      13.685  -2.046   6.236  0.00  0.00    +0.022 A 
ATOM     19  C   UNL     1      13.153  -1.732   4.910  0.00  0.00    +0.009 A 
ATOM     20  C   UNL     1      11.872  -1.707   4.346  0.00  0.00    +0.010 A 
ATOM     21  C   UNL     1      11.715  -1.384   2.996  0.00  0.00    +0.001 A 
ATOM     22  C   UNL     1      12.819  -1.069   2.212  0.00  0.00    +0.002 A 
ATOM     23  C   UNL     1      14.105  -1.083   2.751  0.00  0.00    +0.026 A 
ATOM     24  C   UNL     1      14.262  -1.424   4.092  0.00  0.00    +0.052 A 
ATOM     25  N   UNL     1      15.439  -1.552   4.835  0.00  0.00    -0.312 N 
ATOM     26  C   UNL     1      15.092  -1.903   6.136  0.00  0.00    +0.077 A 
ATOM     27  C   UNL     1      15.923  -2.062   7.290  0.00  0.00    +0.077 A 
ATOM     28  C   UNL     1      19.557  -2.229   6.554  0.00  0.00    +0.069 C 
ATOM     29  C   UNL     1      18.360   0.008   6.131  0.00  0.00    +0.187 C 
ATOM     32  C   UNL     1      18.588   0.240   4.639  0.00  0.00    +0.091 C 
ATOM     36  C   UNL     1      17.276  -0.061   3.891  0.00  0.00    +0.076 C 
ATOM     37  C   UNL     1      16.787  -1.443   4.308  0.00  0.00    +0.224 C 
ENDROOT
BRANCH  32  33
ATOM     33  N   UNL     1      19.169   1.558   4.386  0.00  0.00    -0.314 NA
ATOM     34  H   UNL     1      18.959   1.907   3.456  0.00  0.00    +0.122 HD
ATOM     35  C   UNL     1      20.622   1.634   4.603  0.00  0.00    +0.101 C 
ENDBRANCH  32  33
BRANCH  29  30
ATOM     30  O   UNL     1      17.164   0.725   6.486  0.00  0.00    -0.374 OA
ATOM     31  C   UNL     1      17.112   1.214   7.838  0.00  0.00    +0.194 C 
ENDBRANCH  29  30
TORSDOF 2
