REMARK  Name = 3rvg_ligand
REMARK  5 active torsions:
REMARK  status: ('A' for Active; 'I' for Inactive)
REMARK    1  A    between atoms: C4_6  and  C12_14
REMARK    2  A    between atoms: C7_9  and  N13_15
REMARK    3  A    between atoms: C10_12  and  C21_24
REMARK    4  A    between atoms: N13_15  and  C14_16
REMARK    5  A    between atoms: N23_26  and  C26_29
REMARK                            x       y       z     vdW  Elec       q    Type
REMARK                         _______ _______ _______ _____ _____    ______ ____
ROOT
ATOM      1  C   UNL     1     -24.433 -35.363   6.077  0.00  0.00    +0.057 C 
ATOM      2  C   UNL     1     -23.734 -34.320   6.943  0.00  0.00    +0.010 C 
ATOM      3  C   UNL     1     -22.243 -34.523   7.155  0.00  0.00    +0.004 C 
ATOM      4  C   UNL     1     -21.390 -35.023   5.988  0.00  0.00    +0.001 C 
ATOM     13  C   UNL     1     -22.006 -36.164   5.184  0.00  0.00    +0.058 C 
ATOM     14  C   UNL     1     -25.851 -35.938   5.992  0.00  0.00    +0.147 C 
ATOM     15  C   UNL     1     -27.218 -35.465   6.442  0.00  0.00    +0.150 C 
ATOM     25  N   UNL     1     -28.408 -36.032   5.766  0.00  0.00    +0.265 N 
ATOM     26  H   UNL     1     -28.602 -35.375   5.010  0.00  0.00    +0.207 HD
ATOM     27  H   UNL     1     -29.080 -36.172   6.520  0.00  0.00    +0.207 HD
ATOM     28  C   UNL     1     -28.341 -37.336   5.099  0.00  0.00    +0.166 C 
ATOM     29  C   UNL     1     -27.007 -37.913   4.681  0.00  0.00    +0.196 C 
ATOM     35  C   UNL     1     -25.832 -36.983   4.894  0.00  0.00    +0.106 C 
ATOM     36  N   UNL     1     -24.423 -37.167   4.492  0.00  0.00    +0.234 N 
ATOM     37  H   UNL     1     -24.322 -36.882   3.518  0.00  0.00    +0.202 HD
ATOM     38  H   UNL     1     -24.174 -38.148   4.616  0.00  0.00    +0.202 HD
ATOM     39  C   UNL     1     -23.517 -36.340   5.324  0.00  0.00    +0.067 C 
ENDROOT
BRANCH   4   5
ATOM      5  C   UNL     1     -19.869 -34.952   6.117  0.00  0.00    +0.027 C 
ATOM      6  C   UNL     1     -18.747 -35.140   5.117  0.00  0.00    +0.130 C 
ATOM      7  N   UNL     1     -17.437 -35.382   5.776  0.00  0.00    +0.178 N 
ATOM      8  H   UNL     1     -16.748 -34.673   5.525  0.00  0.00    +0.200 HD
ATOM      9  H   UNL     1     -17.020 -36.265   5.481  0.00  0.00    +0.200 HD
ATOM     10  N   UNL     1     -17.728 -35.371   7.185  0.00  0.00    +0.315 NA
ATOM     11  C   UNL     1     -16.608 -35.269   8.194  0.00  0.00    -0.037 C 
ATOM     12  C   UNL     1     -19.157 -35.070   7.454  0.00  0.00    -0.018 C 
ENDBRANCH   4   5
BRANCH  29  30
ATOM     30  C   UNL     1     -26.850 -39.021   3.683  0.00  0.00    +0.187 C 
ATOM     31  O   UNL     1     -25.604 -39.708   3.724  0.00  0.00    -0.397 OA
ATOM     32  N   UNL     1     -28.124 -39.570   3.156  0.00  0.00    -0.300 N 
ATOM     33  H   UNL     1     -28.969 -38.999   3.169  0.00  0.00    +0.181 HD
ATOM     34  H   UNL     1     -28.154 -40.518   2.781  0.00  0.00    +0.181 HD
ENDBRANCH  29  30
BRANCH  15  16
ATOM     16  N   UNL     1     -27.379 -34.190   7.168  0.00  0.00    +0.265 N 
ATOM     17  H   UNL     1     -26.829 -34.298   8.020  0.00  0.00    +0.207 HD
ATOM     18  H   UNL     1     -27.109 -33.468   6.500  0.00  0.00    +0.207 HD
BRANCH  16  19
ATOM     19  C   UNL     1     -28.724 -33.804   7.627  0.00  0.00    +0.068 C 
ATOM     20  C   UNL     1     -29.384 -32.941   6.556  0.00  0.00    +0.055 C 
ATOM     21  C   UNL     1     -30.731 -32.408   7.039  0.00  0.00    +0.005 C 
ATOM     22  C   UNL     1     -30.537 -31.616   8.325  0.00  0.00    +0.000 C 
ATOM     23  C   UNL     1     -29.974 -32.532   9.423  0.00  0.00    +0.005 C 
ATOM     24  C   UNL     1     -28.639 -33.141   9.010  0.00  0.00    +0.055 C 
ENDBRANCH  16  19
ENDBRANCH  15  16
TORSDOF 4
