REMARK  Name = FEW
REMARK  8 active torsions:
REMARK  status: ('A' for Active; 'I' for Inactive)
REMARK    1  A    between atoms: C13_1  and  C14_18
REMARK    2  A    between atoms: C24_6  and  C23_21
REMARK    3  A    between atoms: C02_9  and  C04_11
REMARK    4  A    between atoms: C07_14  and  C08_15
REMARK    5  A    between atoms: C11_16  and  N10_35
REMARK    6  A    between atoms: C14_18  and  N15_36
REMARK    7  A    between atoms: C30_23  and  C31_24
REMARK    8  A    between atoms: C32_25  and  C33_26
REMARK                            x       y       z     vdW  Elec       q    Type
REMARK                         _______ _______ _______ _____ _____    ______ ____
ROOT
ATOM      4  N   UNL     1      -3.643  18.236   0.588  0.00  0.00    -0.175 NA
ATOM      5  C   UNL     1      -3.414  17.767   1.953  0.00  0.00    +0.269 C 
ATOM      6  O   UNL     1      -2.775  18.364   2.725  0.00  0.00    -0.268 OA
ENDROOT
BRANCH   4   3
ATOM      1  C   UNL     1      -3.319  21.415  -1.393  0.00  0.00    -0.005 A 
ATOM      2  C   UNL     1      -3.826  20.228  -0.878  0.00  0.00    +0.014 A 
ATOM      3  C   UNL     1      -3.101  19.507   0.056  0.00  0.00    +0.073 A 
ATOM     27  C   UNL     1      -1.806  19.947   0.453  0.00  0.00    +0.020 A 
ATOM     28  C   UNL     1      -1.297  21.093  -0.049  0.00  0.00    +0.072 A 
ATOM     33  C   UNL     1      -2.049  21.846  -0.988  0.00  0.00    +0.001 A 
BRANCH  28  29
ATOM     29  C   UNL     1       0.060  21.552   0.399  0.00  0.00    +0.419 C 
ATOM     30  F   UNL     1      -0.018  22.187   1.591  0.00  0.00    -0.166 F 
ATOM     31  F   UNL     1       0.880  20.430   0.536  0.00  0.00    -0.166 F 
ATOM     32  F   UNL     1       0.615  22.422  -0.558  0.00  0.00    -0.166 F 
ENDBRANCH  28  29
BRANCH   1  34
ATOM     34  C   UNL     1      -4.120  22.251  -2.444  0.00  0.00    +0.099 C 
BRANCH  34  35
ATOM     35  N   UNL     1      -5.289  22.695  -2.078  0.00  0.00    -0.267 NA
ATOM     36  C   UNL     1      -5.375  23.063  -0.787  0.00  0.00    +0.090 C 
ATOM     37  C   UNL     1      -6.837  23.411  -0.313  0.00  0.00    +0.090 C 
ATOM     38  N   UNL     1      -7.812  23.481  -1.284  0.00  0.00    -0.269 NA
ATOM     39  C   UNL     1      -8.964  23.292  -0.766  0.00  0.00    +0.090 C 
ATOM     40  C   UNL     1      -7.669  22.710  -2.392  0.00  0.00    +0.090 C 
ATOM     41  C   UNL     1      -6.328  21.901  -2.470  0.00  0.00    +0.090 C 
ENDBRANCH  34  35
ENDBRANCH   1  34
ENDBRANCH   4   3
BRANCH   5   7
ATOM      7  C   UNL     1      -4.006  16.387   2.353  0.00  0.00    +0.056 A 
ATOM      8  C   UNL     1      -3.616  15.851   3.506  0.00  0.00    +0.013 A 
ATOM      9  C   UNL     1      -4.103  14.607   3.882  0.00  0.00    +0.038 A 
ATOM     21  C   UNL     1      -4.988  13.923   3.063  0.00  0.00    -0.015 A 
ATOM     25  C   UNL     1      -5.379  14.465   1.880  0.00  0.00    -0.004 A 
ATOM     26  C   UNL     1      -4.892  15.699   1.499  0.00  0.00    +0.004 A 
BRANCH  21  22
ATOM     22  C   UNL     1      -5.520  12.505   3.517  0.00  0.00    +0.023 C 
ATOM     23  C   UNL     1      -6.894  12.580   4.256  0.00  0.00    +0.005 C 
ATOM     24  C   UNL     1      -5.559  11.525   2.311  0.00  0.00    +0.005 C 
ENDBRANCH  21  22
BRANCH   9  10
ATOM     10  C   UNL     1      -3.639  14.036   5.199  0.00  0.00    -0.059 C 
ATOM     11  C   UNL     1      -3.226  13.588   6.310  0.00  0.00    -0.040 C 
BRANCH  11  12
ATOM     12  C   UNL     1      -2.687  13.032   7.643  0.00  0.00    +0.127 A 
ATOM     13  N   UNL     1      -3.327  13.040   8.841  0.00  0.00    -0.280 N 
ATOM     14  C   UNL     1      -2.530  12.481   9.723  0.00  0.00    +0.168 A 
ATOM     15  C   UNL     1      -2.926  12.353  11.009  0.00  0.00    +0.136 A 
ATOM     16  N   UNL     1      -4.199  12.826  11.397  0.00  0.00    -0.238 NA
ATOM     17  C   UNL     1      -4.998  13.391  10.505  0.00  0.00    +0.118 A 
ATOM     18  N   UNL     1      -1.340  12.099   9.108  0.00  0.00    -0.223 NA
ATOM     19  C   UNL     1      -4.610  13.519   9.222  0.00  0.00    +0.103 A 
ATOM     20  C   UNL     1      -1.407  12.425   7.841  0.00  0.00    +0.127 A 
ENDBRANCH  11  12
ENDBRANCH   9  10
ENDBRANCH   5   7
TORSDOF 8
