REMARK  Name = 3w55_ligand
REMARK  5 active torsions:
REMARK  status: ('A' for Active; 'I' for Inactive)
REMARK    1  A    between atoms: C15_5  and  O48_24
REMARK    2  A    between atoms: C24_11  and  O42_21
REMARK    3  A    between atoms: C31_13  and  C62_26
REMARK    4  A    between atoms: C39_16  and  O44_22
REMARK    5  A    between atoms: O48_24  and  C59_25
REMARK                            x       y       z     vdW  Elec       q    Type
REMARK                         _______ _______ _______ _____ _____    ______ ____
ROOT
ATOM      1  C   UNL     1      17.578  38.005  45.232  0.00  0.00    +0.068 C 
ATOM      2  C   UNL     1      16.549  37.375  46.140  0.00  0.00    +0.225 C 
ATOM      3  O   UNL     1      16.831  36.516  46.981  0.00  0.00    -0.389 OA
ATOM      4  O   UNL     1      15.273  37.842  45.985  0.00  0.00    -0.284 OA
ATOM      5  C   UNL     1      13.973  37.670  46.710  0.00  0.00    +0.147 C 
ATOM      6  C   UNL     1      13.933  38.337  48.083  0.00  0.00    +0.043 C 
ATOM      7  C   UNL     1      12.928  38.182  45.723  0.00  0.00    +0.038 C 
ATOM      8  C   UNL     1      11.471  37.774  45.710  0.00  0.00    +0.024 C 
ATOM      9  C   UNL     1      10.666  38.516  44.640  0.00  0.00    +0.123 C 
ATOM     10  C   UNL     1      11.410  38.500  43.341  0.00  0.00    +0.136 C 
ATOM     11  O   UNL     1      11.954  37.475  42.985  0.00  0.00    -0.389 OA
ATOM     12  C   UNL     1      11.456  39.764  42.515  0.00  0.00    +0.242 C 
ATOM     15  C   UNL     1      12.924  39.498  42.405  0.00  0.00    +0.179 C 
ATOM     18  C   UNL     1      13.897  40.368  43.148  0.00  0.00    +0.127 C 
ATOM     19  C   UNL     1      15.338  39.854  43.108  0.00  0.00    +0.035 C 
ATOM     20  C   UNL     1      16.074  39.807  44.240  0.00  0.00    -0.007 C 
ATOM     21  C   UNL     1      18.855  37.420  45.268  0.00  0.00    +0.114 C 
ATOM     22  O   UNL     1      19.129  36.461  45.973  0.00  0.00    -0.420 OA
ATOM     23  C   UNL     1      19.896  37.916  44.500  0.00  0.00    +0.252 C 
ATOM     24  C   UNL     1      19.695  39.009  43.667  0.00  0.00    +0.127 C 
ATOM     27  C   UNL     1      18.434  39.599  43.597  0.00  0.00    +0.011 C 
ATOM     28  C   UNL     1      17.367  39.116  44.365  0.00  0.00    -0.040 C 
ENDROOT
BRANCH  12  13
ATOM     13  O   UNL     1      10.898  40.931  43.071  0.00  0.00    -0.370 OA
ATOM     14  H   UNL     1      10.991  41.649  42.456  0.00  0.00    +0.214 HD
ENDBRANCH  12  13
BRANCH  15  16
ATOM     16  O   UNL     1      13.305  38.991  41.207  0.00  0.00    -0.384 OA
ATOM     17  H   UNL     1      12.858  38.166  41.057  0.00  0.00    +0.210 HD
ENDBRANCH  15  16
BRANCH  24  25
ATOM     25  O   UNL     1      20.728  39.514  42.900  0.00  0.00    -0.287 OA
ATOM     26  C   UNL     1      21.981  39.570  43.577  0.00  0.00    +0.255 C 
ENDBRANCH  24  25
TORSDOF 3
