REMARK  Name = 5UT1
REMARK  5 active torsions:
REMARK  status: ('A' for Active; 'I' for Inactive)
REMARK    1  A    between atoms: C_1  and  N_21
REMARK    2  A    between atoms: C_4  and  O_13
REMARK    3  A    between atoms: C_8  and  N_20
REMARK    4  A    between atoms: C_9  and  N_23
REMARK    5  A    between atoms: C_16  and  C_24
REMARK                            x       y       z     vdW  Elec       q    Type
REMARK                         _______ _______ _______ _____ _____    ______ ____
ROOT
ATOM      1  C   UNL     1      -5.586  17.039  17.841  0.00  0.00    +0.138 C 
ATOM      2  N   UNL     1      -6.102  15.823  18.433  0.00  0.00    -0.269 N 
ATOM      3  C   UNL     1      -5.233  14.697  18.728  0.00  0.00    +0.240 C 
ATOM      4  O   UNL     1      -4.080  14.733  18.483  0.00  0.00    -0.273 OA
ATOM      5  C   UNL     1      -5.906  13.424  19.415  0.00  0.00    +0.158 C 
ATOM      6  C   UNL     1      -5.524  12.227  18.517  0.00  0.00    +0.038 C 
ATOM      7  N   UNL     1      -7.331  13.399  19.637  0.00  0.00    -0.305 N 
ATOM      8  C   UNL     1      -8.138  14.610  19.357  0.00  0.00    +0.148 A 
ATOM      9  N   UNL     1      -9.472  14.652  19.642  0.00  0.00    -0.197 NA
ATOM     10  C   UNL     1     -10.162  15.758  19.382  0.00  0.00    +0.221 A 
ATOM     11  N   UNL     1     -11.566  15.846  19.625  0.00  0.00    -0.283 N 
ATOM     12  H   UNL     1     -12.090  16.577  19.045  0.00  0.00    +0.155 HD
ATOM     23  N   UNL     1      -9.624  16.864  18.833  0.00  0.00    -0.221 NA
ATOM     24  C   UNL     1      -8.342  16.918  18.519  0.00  0.00    +0.141 A 
ATOM     25  C   UNL     1      -7.814  12.489  20.669  0.00  0.00    +0.131 C 
ATOM     26  C   UNL     1      -7.555  15.763  18.778  0.00  0.00    +0.095 A 
ENDROOT
BRANCH  11  13
ATOM     13  C   UNL     1     -12.373  15.088  20.542  0.00  0.00    +0.039 A 
ATOM     14  C   UNL     1     -11.902  14.004  21.263  0.00  0.00    +0.065 A 
ATOM     15  C   UNL     1     -12.779  13.356  22.132  0.00  0.00    +0.169 A 
ATOM     16  F   UNL     1     -12.334  12.287  22.866  0.00  0.00    -0.202 F 
ATOM     17  C   UNL     1     -14.097  13.784  22.256  0.00  0.00    +0.188 A 
ATOM     20  C   UNL     1     -14.546  14.860  21.517  0.00  0.00    +0.169 A 
ATOM     21  F   UNL     1     -15.825  15.299  21.635  0.00  0.00    -0.202 F 
ATOM     22  C   UNL     1     -13.687  15.510  20.667  0.00  0.00    +0.065 A 
BRANCH  17  18
ATOM     18  O   UNL     1     -14.989  13.140  23.133  0.00  0.00    -0.502 OA
ATOM     19  H   UNL     1     -15.333  13.826  23.849  0.00  0.00    +0.292 HD
ENDBRANCH  17  18
ENDBRANCH  11  13
TORSDOF 2
