REMARK  Name = 8NM
REMARK  5 active torsions:
REMARK  status: ('A' for Active; 'I' for Inactive)
REMARK    1  A    between atoms: C13_7  and  N24_24
REMARK    2  A    between atoms: C15_8  and  O28_28
REMARK    3  A    between atoms: C12_17  and  C18_20
REMARK    4  A    between atoms: C14_18  and  O28_28
REMARK    5  A    between atoms: N24_24  and  S29_29
REMARK                            x       y       z     vdW  Elec       q    Type
REMARK                         _______ _______ _______ _____ _____    ______ ____
ROOT
ATOM      1  C   UNL     1      -0.977   7.103  12.708  0.00  0.00    +0.021 A 
ATOM      2  C   UNL     1       0.297   7.245  12.207  0.00  0.00    +0.091 A 
ATOM      8  C   UNL     1       0.542   8.139  11.173  0.00  0.00    +0.021 A 
ATOM      9  C   UNL     1      -0.481   8.879  10.612  0.00  0.00    +0.037 A 
ATOM     10  C   UNL     1      -1.753   8.725  11.138  0.00  0.00    +0.145 A 
ATOM     29  C   UNL     1      -2.005   7.840  12.174  0.00  0.00    +0.039 A 
ENDROOT
BRANCH   9  18
ATOM     18  C   UNL     1      -0.197   9.777   9.472  0.00  0.00    +0.022 C 
ATOM     19  C   UNL     1       0.895  10.557   9.530  0.00  0.00    +0.079 C 
ATOM     20  N   UNL     1       1.270  11.447   8.542  0.00  0.00    -0.291 N 
ATOM     21  C   UNL     1       2.439  12.281   8.796  0.00  0.00    +0.134 C 
ATOM     22  C   UNL     1       0.569  11.627   7.366  0.00  0.00    +0.279 C 
ATOM     23  C   UNL     1      -0.596  10.776   7.298  0.00  0.00    +0.137 A 
ATOM     24  N   UNL     1      -1.512  10.706   6.283  0.00  0.00    -0.239 NA
ATOM     25  C   UNL     1      -2.459   9.775   6.607  0.00  0.00    +0.099 A 
ATOM     26  C   UNL     1      -2.166   9.262   7.839  0.00  0.00    +0.022 A 
ATOM     27  O   UNL     1       0.869  12.399   6.459  0.00  0.00    -0.265 OA
ATOM     28  C   UNL     1      -0.978   9.901   8.293  0.00  0.00    +0.025 A 
ENDBRANCH   9  18
BRANCH   2   3
ATOM      3  N   UNL     1       1.278   6.432  12.847  0.00  0.00    -0.101 NA
BRANCH   3   4
ATOM      4  S   UNL     1       2.769   6.114  12.103  0.00  0.00    +0.075 S 
ATOM      5  O   UNL     1       3.438   5.059  12.850  0.00  0.00    -0.153 OA
ATOM      6  C   UNL     1       3.690   7.588  12.503  0.00  0.00    +0.202 C 
ATOM      7  O   UNL     1       2.550   6.032  10.674  0.00  0.00    -0.153 OA
ENDBRANCH   3   4
ENDBRANCH   2   3
BRANCH  10  11
ATOM     11  O   UNL     1      -2.844   9.368  10.581  0.00  0.00    -0.454 OA
BRANCH  11  12
ATOM     12  C   UNL     1      -3.482  10.394  11.249  0.00  0.00    +0.145 A 
ATOM     13  C   UNL     1      -2.946  11.024  12.343  0.00  0.00    +0.037 A 
ATOM     14  C   UNL     1      -3.643  12.052  12.922  0.00  0.00    +0.003 A 
ATOM     15  C   UNL     1      -4.863  12.448  12.428  0.00  0.00    +0.000 A 
ATOM     16  C   UNL     1      -5.394  11.822  11.323  0.00  0.00    +0.003 A 
ATOM     17  C   UNL     1      -4.695  10.797  10.726  0.00  0.00    +0.037 A 
ENDBRANCH  11  12
ENDBRANCH  10  11
TORSDOF 5
