REMARK  Name = 3f9n_ligand
REMARK  8 active torsions:
REMARK  status: ('A' for Active; 'I' for Inactive)
REMARK    1  A    between atoms: N_9  and  C9_31
REMARK    2  A    between atoms: C8_11  and  S_12
REMARK    3  A    between atoms: S_12  and  C15_13
REMARK    4  A    between atoms: C15_13  and  C16_14
REMARK    5  A    between atoms: C15_13  and  C17_15
REMARK    6  A    between atoms: C17_15  and  C20_18
REMARK    7  A    between atoms: C20_18  and  C21_19
REMARK    8  A    between atoms: C21_19  and  C22_20
REMARK                            x       y       z     vdW  Elec       q    Type
REMARK                         _______ _______ _______ _____ _____    ______ ____
ROOT
ATOM     14  S   UNL     1      27.724  -6.665  26.131  0.00  0.00    +0.043 S 
ENDROOT
BRANCH  14  13
ATOM      1  C   UNL     1      21.915 -10.020  26.579  0.00  0.00    +0.020 A 
ATOM      2  C   UNL     1      22.345  -9.115  25.614  0.00  0.00    +0.038 A 
ATOM      3  C   UNL     1      23.652  -8.559  25.745  0.00  0.00    +0.101 A 
ATOM      4  C   UNL     1      24.137  -7.553  24.772  0.00  0.00    +0.244 A 
ATOM      5  N   UNL     1      25.408  -7.015  24.970  0.00  0.00    -0.183 N 
ATOM     13  C   UNL     1      26.161  -7.412  25.981  0.00  0.00    +0.291 A 
ATOM     35  N   UNL     1      25.740  -8.366  26.855  0.00  0.00    -0.175 N 
ATOM     36  H   UNL     1      26.371  -8.675  27.608  0.00  0.00    +0.276 HD
ATOM     37  O   UNL     1      23.392  -7.188  23.896  0.00  0.00    -0.337 OA
ATOM     38  C   UNL     1      24.475  -8.932  26.752  0.00  0.00    +0.141 A 
ATOM     39  C   UNL     1      24.058  -9.879  27.679  0.00  0.00    +0.065 A 
ATOM     40  C   UNL     1      22.772 -10.402  27.614  0.00  0.00    +0.020 A 
BRANCH   5   6
ATOM      6  C   UNL     1      25.818  -6.045  24.103  0.00  0.00    +0.090 A 
ATOM      7  C   UNL     1      25.079  -4.866  24.064  0.00  0.00    +0.084 A 
ATOM      8  C   UNL     1      25.475  -3.843  23.174  0.00  0.00    +0.069 A 
ATOM      9 CL   UNL     1      24.544  -2.391  23.188  0.00  0.00    -0.061 Cl
ATOM     10  C   UNL     1      26.552  -3.964  22.313  0.00  0.00    +0.064 A 
ATOM     11  C   UNL     1      27.275  -5.164  22.342  0.00  0.00    +0.038 A 
ATOM     12  C   UNL     1      26.919  -6.185  23.233  0.00  0.00    +0.071 A 
ENDBRANCH   5   6
ENDBRANCH  14  13
BRANCH  14  15
ATOM     15  C   UNL     1      28.669  -7.512  27.314  0.00  0.00    +0.198 C 
BRANCH  15  20
ATOM     20  C   UNL     1      27.960  -7.431  28.690  0.00  0.00    +0.196 C 
ATOM     21  N   UNL     1      27.742  -8.572  29.440  0.00  0.00    -0.271 N 
ATOM     22  C   UNL     1      27.081  -8.555  30.781  0.00  0.00    +0.150 C 
ATOM     23  C   UNL     1      28.128  -8.939  31.826  0.00  0.00    +0.031 C 
ATOM     24  C   UNL     1      27.437  -9.258  33.192  0.00  0.00    +0.019 C 
ATOM     25  C   UNL     1      26.843  -8.012  33.800  0.00  0.00    +0.052 C 
ATOM     26  C   UNL     1      27.992  -7.072  34.161  0.00  0.00    +0.129 C 
ATOM     27  N   UNL     1      28.657  -6.658  32.855  0.00  0.00    +0.227 N 
ATOM     28  H   UNL     1      29.438  -6.056  33.063  0.00  0.00    +0.201 HD
ATOM     29  H   UNL     1      27.987  -6.157  32.293  0.00  0.00    +0.201 HD
ATOM     30  C   UNL     1      29.146  -7.831  32.088  0.00  0.00    +0.138 C 
ATOM     31  C   UNL     1      28.965 -10.170  31.408  0.00  0.00    +0.016 C 
ATOM     32  C   UNL     1      29.332 -10.309  29.903  0.00  0.00    +0.025 C 
ATOM     33  C   UNL     1      28.192  -9.876  28.943  0.00  0.00    +0.138 C 
ATOM     34  O   UNL     1      27.600  -6.354  29.127  0.00  0.00    -0.395 OA
ENDBRANCH  15  20
BRANCH  15  16
ATOM     16  C   UNL     1      29.963  -6.713  27.278  0.00  0.00    +0.041 C 
BRANCH  16  17
ATOM     17  C   UNL     1      31.122  -7.469  27.867  0.00  0.00    +0.004 C 
BRANCH  17  18
ATOM     18  C   UNL     1      32.424  -6.646  27.749  0.00  0.00    -0.003 C 
ATOM     19  C   UNL     1      32.676  -5.845  29.035  0.00  0.00    +0.004 C 
ENDBRANCH  17  18
ENDBRANCH  16  17
ENDBRANCH  15  16
ENDBRANCH  14  15
TORSDOF 7
