REMARK  Name = 4AXA
REMARK  4 active torsions:
REMARK  status: ('A' for Active; 'I' for Inactive)
REMARK    1  A    between atoms: C2_2  and  C60_22
REMARK    2  A    between atoms: C4_3  and  C60_22
REMARK    3  A    between atoms: C11_11  and  C60_22
REMARK    4  A    between atoms: C14_14  and  C17_17
REMARK                            x       y       z     vdW  Elec       q    Type
REMARK                         _______ _______ _______ _____ _____    ______ ____
ROOT
ATOM      3  C   UNL     1      10.782   9.660   3.271  0.00  0.00    +0.145 C 
ATOM     15  O   UNL     1      11.270   9.932   4.583  0.00  0.00    -0.377 OA
ENDROOT
BRANCH   3  16
ATOM     16  C   UNL     1      11.451  10.579   2.247  0.00  0.00    -0.008 A 
ATOM     17  C   UNL     1      11.630  10.175   0.929  0.00  0.00    -0.054 A 
ATOM     18  C   UNL     1      12.236  11.015   0.016  0.00  0.00    -0.043 A 
ATOM     19  C   UNL     1      12.661  12.255   0.418  0.00  0.00    +0.041 A 
ATOM     20 CL   UNL     1      13.424  13.315  -0.732  0.00  0.00    -0.084 Cl
ATOM     21  C   UNL     1      12.495  12.672   1.707  0.00  0.00    -0.043 A 
ATOM     22  C   UNL     1      11.894  11.841   2.619  0.00  0.00    -0.054 A 
ENDBRANCH   3  16
BRANCH   3   4
ATOM      4  C   UNL     1       9.245   9.741   3.255  0.00  0.00    -0.009 A 
ATOM      5  C   UNL     1       8.536  10.117   4.392  0.00  0.00    -0.055 A 
ATOM      6  C   UNL     1       7.157  10.189   4.381  0.00  0.00    -0.054 A 
ATOM      7  C   UNL     1       6.436   9.888   3.229  0.00  0.00    -0.020 A 
ATOM     13  C   UNL     1       7.147   9.510   2.091  0.00  0.00    -0.054 A 
ATOM     14  C   UNL     1       8.530   9.439   2.105  0.00  0.00    -0.055 A 
BRANCH   7   8
ATOM      8  C   UNL     1       4.957   9.960   3.207  0.00  0.00    -0.008 C 
ATOM      9  C   UNL     1       4.125   9.970   2.120  0.00  0.00    +0.092 C 
ATOM     10  N   UNL     1       2.871  10.041   2.584  0.00  0.00    -0.233 NA
ATOM     11  N   UNL     1       2.835  10.077   3.934  0.00  0.00    -0.147 NA
ATOM     12  C   UNL     1       4.110  10.026   4.300  0.00  0.00    +0.018 C 
ENDBRANCH   7   8
ENDBRANCH   3   4
BRANCH   3   2
ATOM      1  N   UNL     1      10.367   7.205   3.854  0.00  0.00    +0.117 NA
ATOM      2  C   UNL     1      11.095   8.163   2.980  0.00  0.00    +0.069 C 
ENDBRANCH   3   2
TORSDOF 4
