REMARK  Name = 3NG
REMARK  2 active torsions:
REMARK  status: ('A' for Active; 'I' for Inactive)
REMARK    1  A    between atoms: C5_5  and  C23_23
REMARK    2  A    between atoms: N15_15  and  C16_16
REMARK                            x       y       z     vdW  Elec       q    Type
REMARK                         _______ _______ _______ _____ _____    ______ ____
ROOT
ATOM      1  C   UNL     1      -8.493 -16.982  15.817  0.00  0.00    +0.057 A 
ATOM      2  C   UNL     1      -8.472 -18.078  16.688  0.00  0.00    +0.057 C 
ATOM      3  C   UNL     1      -8.195 -19.362  16.205  0.00  0.00    +0.110 C 
ATOM      7  C   UNL     1      -7.953 -19.535  14.826  0.00  0.00    +0.016 C 
ATOM      8  C   UNL     1      -7.972 -18.431  13.956  0.00  0.00    +0.028 C 
ATOM      9  N   UNL     1      -8.770 -15.776  16.364  0.00  0.00    -0.234 NA
ATOM     10  C   UNL     1      -8.824 -14.637  15.629  0.00  0.00    +0.151 A 
ATOM     11  N   UNL     1      -9.108 -13.459  16.259  0.00  0.00    -0.194 NA
ATOM     18  C   UNL     1      -8.582 -14.698  14.242  0.00  0.00    +0.036 A 
ATOM     19  C   UNL     1      -8.295 -15.943  13.633  0.00  0.00    +0.019 A 
ATOM     20  C   UNL     1      -8.087 -15.928  12.232  0.00  0.00    +0.099 A 
ATOM     21  N   UNL     1      -8.128 -14.803  11.490  0.00  0.00    -0.242 NA
ATOM     22  C   UNL     1      -8.391 -13.611  12.065  0.00  0.00    +0.099 A 
ATOM     23  C   UNL     1      -8.627 -13.538  13.446  0.00  0.00    +0.024 A 
ATOM     24  C   UNL     1      -8.249 -17.120  14.431  0.00  0.00    -0.007 A 
ENDROOT
BRANCH  11  12
ATOM     12  C   UNL     1      -9.212 -13.252  17.603  0.00  0.00    +0.072 A 
ATOM     13  C   UNL     1      -8.338 -13.851  18.521  0.00  0.00    +0.017 A 
ATOM     14  C   UNL     1      -8.456 -13.615  19.894  0.00  0.00    +0.001 A 
ATOM     15  C   UNL     1      -9.459 -12.755  20.378  0.00  0.00    +0.000 A 
ATOM     16  C   UNL     1     -10.337 -12.143  19.474  0.00  0.00    +0.001 A 
ATOM     17  C   UNL     1     -10.215 -12.395  18.098  0.00  0.00    +0.017 A 
ENDBRANCH  11  12
BRANCH   3   4
ATOM      4  C   UNL     1      -8.207 -20.558  17.133  0.00  0.00    +0.365 C 
ATOM      5  O   UNL     1      -7.954 -20.443  18.326  0.00  0.00    -0.246 OA
ATOM      6  O   UNL     1      -8.594 -21.736  16.623  0.00  0.00    -0.246 OA
ENDBRANCH   3   4
TORSDOF 2
