REMARK  Name = 5UKL
REMARK  9 active torsions:
REMARK  status: ('A' for Active; 'I' for Inactive)
REMARK    1  A    between atoms: C_2  and  C_11
REMARK    2  A    between atoms: N_3  and  C_4
REMARK    3  A    between atoms: C_4  and  C_5
REMARK    4  A    between atoms: C_5  and  C_6
REMARK    5  A    between atoms: C_11  and  C_12
REMARK    6  A    between atoms: C_16  and  C_19
REMARK    7  A    between atoms: C_20  and  C_25
REMARK    8  A    between atoms: C_25  and  O_26
REMARK    9  A    between atoms: O_26  and  C_27
REMARK                            x       y       z     vdW  Elec       q    Type
REMARK                         _______ _______ _______ _____ _____    ______ ____
ROOT
ATOM      4  C   UNL     1      14.294  -0.793  49.577  0.00  0.00    -0.003 A 
ATOM      5  C   UNL     1      14.572  -0.890  50.939  0.00  0.00    +0.010 A 
ATOM      6  C   UNL     1      15.734  -0.322  51.495  0.00  0.00    -0.043 A 
ATOM     25  C   UNL     1      16.629   0.358  50.669  0.00  0.00    +0.007 A 
ATOM     26  C   UNL     1      16.358   0.467  49.291  0.00  0.00    +0.039 A 
ATOM     27  C   UNL     1      15.204  -0.107  48.759  0.00  0.00    +0.127 A 
ATOM     28  F   UNL     1      14.942   0.001  47.458  0.00  0.00    -0.205 F 
ENDROOT
BRANCH   6   7
ATOM      7  C   UNL     1      15.997  -0.462  52.943  0.00  0.00    +0.027 C 
ATOM      8  C   UNL     1      16.135  -1.950  53.289  0.00  0.00    +0.023 C 
ATOM      9  C   UNL     1      16.502  -2.061  54.769  0.00  0.00    +0.081 C 
ATOM     10  N   UNL     1      15.366  -1.540  55.553  0.00  0.00    -0.316 NA
ATOM     11  H   UNL     1      14.474  -2.058  55.268  0.00  0.00    +0.122 HD
ATOM     12  C   UNL     1      15.188  -0.081  55.304  0.00  0.00    +0.087 C 
ATOM     13  C   UNL     1      14.871   0.127  53.826  0.00  0.00    +0.036 C 
BRANCH  13  14
ATOM     14  C   UNL     1      14.585   1.585  53.606  0.00  0.00    +0.166 C 
BRANCH  14  15
ATOM     15  O   UNL     1      15.797   2.341  53.500  0.00  0.00    -0.370 OA
BRANCH  15  16
ATOM     16  C   UNL     1      15.731   3.735  53.506  0.00  0.00    +0.108 C 
ATOM     17  C   UNL     1      16.885   4.475  53.793  0.00  0.00    +0.037 C 
ATOM     18  C   UNL     1      16.879   5.881  53.841  0.00  0.00    +0.040 C 
ATOM     19  C   UNL     1      15.683   6.528  53.559  0.00  0.00    +0.140 C 
ATOM     20  O   UNL     1      15.410   7.862  53.556  0.00  0.00    -0.334 OA
ATOM     21  C   UNL     1      13.984   7.972  53.415  0.00  0.00    +0.309 C 
ATOM     22  O   UNL     1      13.499   6.677  53.074  0.00  0.00    -0.334 OA
ATOM     23  C   UNL     1      14.551   5.822  53.288  0.00  0.00    +0.142 C 
ATOM     24  C   UNL     1      14.538   4.442  53.264  0.00  0.00    +0.071 C 
ENDBRANCH  15  16
ENDBRANCH  14  15
ENDBRANCH  13  14
ENDBRANCH   6   7
BRANCH   4   3
ATOM      3  C   UNL     1      13.007  -1.417  49.016  0.00  0.00    +0.133 C 
BRANCH   3   2
ATOM      1  O   UNL     1      14.298  -3.133  47.962  0.00  0.00    -0.276 OA
ATOM      2  C   UNL     1      13.250  -2.831  48.533  0.00  0.00    +0.218 C 
ATOM     29  N   UNL     1      12.271  -3.697  48.805  0.00  0.00    -0.315 N 
ATOM     30  H   UNL     1      11.376  -3.325  49.259  0.00  0.00    +0.149 HD
BRANCH  29  31
ATOM     31  C   UNL     1      12.359  -5.135  48.513  0.00  0.00    +0.109 C 
BRANCH  31  32
ATOM     32  C   UNL     1      11.106  -5.949  48.898  0.00  0.00    +0.057 C 
BRANCH  32  33
ATOM     33  C   UNL     1      11.233  -7.355  48.368  0.00  0.00    -0.009 A 
ATOM     34  C   UNL     1      12.318  -8.213  48.590  0.00  0.00    +0.137 A 
ATOM     35  N   UNL     1      12.076  -9.373  47.939  0.00  0.00    -0.182 NA
ATOM     36  N   UNL     1      10.835  -9.227  47.288  0.00  0.00    -0.284 N 
ATOM     37  H   UNL     1      10.377  -9.971  46.671  0.00  0.00    +0.188 HD
ATOM     38  C   UNL     1      10.310  -8.020  47.553  0.00  0.00    +0.108 A 
ENDBRANCH  32  33
ENDBRANCH  31  32
ENDBRANCH  29  31
ENDBRANCH   3   2
ENDBRANCH   4   3
TORSDOF 9
