REMARK  Name = 4ark_ligand
REMARK  10 active torsions:
REMARK  status: ('A' for Active; 'I' for Inactive)
REMARK    1  A    between atoms: C01_1  and  N07_7
REMARK    2  A    between atoms: N07_7  and  C08_8
REMARK    3  A    between atoms: C09_9  and  C14_14
REMARK    4  A    between atoms: C10_10  and  O1_26
REMARK    5  A    between atoms: C18_17  and  C19_18
REMARK    6  A    between atoms: C18_17  and  C15_23
REMARK    7  A    between atoms: C19_18  and  C20_19
REMARK    8  A    between atoms: C19_18  and  O21_20
REMARK    9  A    between atoms: C20_19  and  O22_21
REMARK   10  A    between atoms: C15_23  and  O1_26
REMARK                            x       y       z     vdW  Elec       q    Type
REMARK                         _______ _______ _______ _____ _____    ______ ____
ROOT
ATOM      4  C   UNL     1      32.205  26.488  41.041  0.00  0.00    +0.069 A 
ATOM      5  C   UNL     1      32.435  25.151  40.842  0.00  0.00    +0.032 A 
ATOM      6  C   UNL     1      31.764  24.457  39.871  0.00  0.00    +0.119 A 
ATOM      7  F   UNL     1      32.001  23.184  39.683  0.00  0.00    -0.186 F 
ATOM      8  C   UNL     1      30.850  25.086  39.084  0.00  0.00    +0.038 A 
ATOM      9  C   UNL     1      30.610  26.414  39.276  0.00  0.00    +0.101 A 
ATOM     19  C   UNL     1      31.273  27.103  40.243  0.00  0.00    +0.095 A 
ENDROOT
BRANCH  19  20
ATOM     20  C   UNL     1      30.943  28.512  40.368  0.00  0.00    +0.187 C 
ATOM     21  O   UNL     1      31.281  29.119  41.322  0.00  0.00    -0.400 OA
ATOM     22  N   UNL     1      30.256  29.146  39.382  0.00  0.00    -0.305 N 
ATOM     23  H   UNL     1      29.975  28.642  38.565  0.00  0.00    +0.180 HD
ATOM     24  H   UNL     1      30.032  30.116  39.473  0.00  0.00    +0.180 HD
ENDBRANCH  19  20
BRANCH   4   2
ATOM      2  N   UNL     1      32.885  27.224  42.041  0.00  0.00    -0.272 N 
ATOM      3  H   UNL     1      32.282  27.864  42.578  0.00  0.00    +0.210 HD
BRANCH   2   1
ATOM      1  C   UNL     1      34.247  27.239  42.437  0.00  0.00    +0.097 A 
ATOM     25  C   UNL     1      34.627  28.104  43.420  0.00  0.00    +0.156 A 
ATOM     26  F   UNL     1      33.726  28.883  43.951  0.00  0.00    -0.191 F 
ATOM     27  C   UNL     1      35.932  28.177  43.851  0.00  0.00    +0.033 A 
ATOM     28  C   UNL     1      36.905  27.375  43.309  0.00  0.00    -0.005 A 
ATOM     29  I   UNL     1      38.851  27.448  43.928  0.00  0.00    -0.061 I 
ATOM     30  C   UNL     1      36.518  26.504  42.320  0.00  0.00    -0.007 A 
ATOM     31  C   UNL     1      35.213  26.438  41.889  0.00  0.00    +0.015 A 
ENDBRANCH   2   1
ENDBRANCH   4   2
BRANCH   9  10
ATOM     10  O   UNL     1      29.713  27.079  38.531  0.00  0.00    -0.316 OA
BRANCH  10  11
ATOM     11  C   UNL     1      29.105  26.497  37.405  0.00  0.00    +0.198 C 
BRANCH  11  12
ATOM     12  C   UNL     1      28.396  27.567  36.594  0.00  0.00    +0.067 C 
BRANCH  12  13
ATOM     13  C   UNL     1      29.383  28.167  35.607  0.00  0.00    +0.142 C 
BRANCH  13  14
ATOM     14  O   UNL     1      29.901  27.147  34.784  0.00  0.00    -0.389 OA
ATOM     15  H   UNL     1      30.348  26.504  35.322  0.00  0.00    +0.210 HD
ENDBRANCH  13  14
BRANCH  13  16
ATOM     16  C   UNL     1      28.678  29.174  34.717  0.00  0.00    +0.187 C 
BRANCH  16  17
ATOM     17  O   UNL     1      28.087  30.151  35.547  0.00  0.00    -0.393 OA
ATOM     18  H   UNL     1      27.639  30.793  35.009  0.00  0.00    +0.209 HD
ENDBRANCH  16  17
ENDBRANCH  13  16
ENDBRANCH  12  13
ENDBRANCH  11  12
ENDBRANCH  10  11
ENDBRANCH   9  10
TORSDOF 10
