REMARK  Name = 6GVA
REMARK  7 active torsions:
REMARK  status: ('A' for Active; 'I' for Inactive)
REMARK    1  A    between atoms: C4_1  and  C2_17
REMARK    2  A    between atoms: C11_5  and  C12_10
REMARK    3  A    between atoms: C11_5  and  N6_21
REMARK    4  A    between atoms: C7_6  and  S1_18
REMARK    5  A    between atoms: C8_7  and  C9_8
REMARK    6  A    between atoms: C8_7  and  S1_18
REMARK    7  A    between atoms: C15_22  and  C18_25
REMARK                            x       y       z     vdW  Elec       q    Type
REMARK                         _______ _______ _______ _____ _____    ______ ____
ROOT
ATOM      1  C   UNL     1      19.236  24.859 -24.940  0.00  0.00    +0.050 A 
ATOM      5  N   UNL     1      18.388  24.298 -25.797  0.00  0.00    -0.100 NA
ATOM      6  N   UNL     1      17.148  24.705 -25.448  0.00  0.00    -0.500 NA
ATOM      7  C   UNL     1      17.192  25.521 -24.378  0.00  0.00    +0.200 A 
ATOM      8  C   UNL     1      16.259  26.201 -23.584  0.00  0.00    +0.430 A 
ATOM      9  N   UNL     1      14.909  26.125 -23.800  0.00  0.00    -0.400 NA
ATOM     23  N   UNL     1      16.697  26.919 -22.531  0.00  0.00    -0.760 NA
ATOM     24  C   UNL     1      18.028  26.968 -22.290  0.00  0.00    +0.820 A 
ATOM     29  N   UNL     1      18.980  26.348 -22.993  0.00  0.00    -0.730 NA
ATOM     30  C   UNL     1      18.540  25.611 -24.042  0.00  0.00    +0.400 A 
ENDROOT
BRANCH   1   2
ATOM      2  C   UNL     1      20.716  24.597 -25.001  0.00  0.00    -0.050 C 
ATOM      3  C   UNL     1      21.114  23.497 -24.012  0.00  0.00    -0.150 C 
ATOM      4  C   UNL     1      21.539  25.867 -24.797  0.00  0.00    -0.150 C 
ENDBRANCH   1   2
BRANCH   9  10
ATOM     10  C   UNL     1      13.918  26.470 -22.780  0.00  0.00    +0.000 C 
BRANCH  10  11
ATOM     11  C   UNL     1      13.458  27.896 -22.961  0.00  0.00    +0.000 A 
ATOM     12  C   UNL     1      12.961  28.296 -24.187  0.00  0.00    -0.130 A 
ATOM     13  C   UNL     1      12.515  29.584 -24.390  0.00  0.00    -0.130 A 
ATOM     14  C   UNL     1      12.531  30.513 -23.352  0.00  0.00    +0.000 A 
ATOM     21  C   UNL     1      13.040  30.109 -22.119  0.00  0.00    -0.130 A 
ATOM     22  C   UNL     1      13.498  28.817 -21.928  0.00  0.00    -0.130 A 
BRANCH  14  15
ATOM     15  C   UNL     1      12.116  31.918 -23.584  0.00  0.00    +0.100 A 
ATOM     16  C   UNL     1      11.326  32.290 -24.654  0.00  0.00    -0.130 A 
ATOM     17  C   UNL     1      11.019  33.623 -24.832  0.00  0.00    -0.130 A 
ATOM     18  C   UNL     1      11.523  34.562 -23.961  0.00  0.00    -0.130 A 
ATOM     19  C   UNL     1      12.328  34.131 -22.937  0.00  0.00    +0.250 A 
ATOM     20  N   UNL     1      12.646  32.841 -22.745  0.00  0.00    -0.480 NA
ENDBRANCH  14  15
ENDBRANCH  10  11
ENDBRANCH   9  10
BRANCH  24  25
ATOM     25  S   UNL     1      18.527  27.970 -20.942  0.00  0.00    -0.110 S 
BRANCH  25  26
ATOM     26  C   UNL     1      16.957  28.323 -20.096  0.00  0.00    -0.050 C 
BRANCH  26  27
ATOM     27  C   UNL     1      16.540  27.174 -19.206  0.00  0.00    +0.100 C 
ATOM     28  N   UNL     1      17.235  27.159 -17.906  0.00  0.00    -0.900 NA
ENDBRANCH  26  27
ENDBRANCH  25  26
ENDBRANCH  24  25
TORSDOF 7
