REMARK  Name = 3nzs_ligand
REMARK  4 active torsions:
REMARK  status: ('A' for Active; 'I' for Inactive)
REMARK    1  A    between atoms: O1_3  and  C9_19
REMARK    2  A    between atoms: O1_3  and  C13_23
REMARK    3  A    between atoms: N4_12  and  C6_15
REMARK    4  A    between atoms: N5_14  and  C7_17
REMARK                            x       y       z     vdW  Elec       q    Type
REMARK                         _______ _______ _______ _____ _____    ______ ____
ROOT
ATOM      1  C   UNL     1      20.229  13.320  22.930  0.00  0.00    +0.071 A 
ATOM      2  C   UNL     1      18.994  12.787  23.433  0.00  0.00    +0.094 A 
ATOM      3  N   UNL     1      19.371  11.773  24.250  0.00  0.00    -0.209 NA
ATOM      4  N   UNL     1      20.779  11.711  24.230  0.00  0.00    -0.194 N 
ATOM      5  C   UNL     1      21.375  10.648  25.077  0.00  0.00    +0.232 C 
ATOM      6  C   UNL     1      20.476  14.370  22.054  0.00  0.00    +0.138 A 
ATOM      7  N   UNL     1      19.437  15.068  21.527  0.00  0.00    -0.255 N 
ATOM      8  H   UNL     1      18.634  14.561  21.156  0.00  0.00    +0.219 HD
ATOM     17  N   UNL     1      21.752  14.677  21.725  0.00  0.00    -0.248 NA
ATOM     18  C   UNL     1      22.798  13.993  22.241  0.00  0.00    +0.161 A 
ATOM     19  N   UNL     1      24.119  14.345  21.887  0.00  0.00    -0.278 N 
ATOM     20  C   UNL     1      24.147  15.306  20.762  0.00  0.00    +0.161 C 
ATOM     21  C   UNL     1      23.774  14.682  19.419  0.00  0.00    +0.190 C 
ATOM     22  S   UNL     1      24.748  13.374  19.117  0.00  0.00    -0.027 S 
ATOM     23  C   UNL     1      24.642  12.371  20.433  0.00  0.00    +0.190 C 
ATOM     24  O   UNL     1      24.284  12.681  17.947  0.00  0.00    -0.174 OA
ATOM     25  O   UNL     1      26.104  13.803  18.924  0.00  0.00    -0.174 OA
ATOM     26  C   UNL     1      24.985  13.164  21.688  0.00  0.00    +0.161 C 
ATOM     27  N   UNL     1      22.585  12.971  23.097  0.00  0.00    -0.261 NA
ATOM     28  C   UNL     1      21.318  12.639  23.436  0.00  0.00    +0.145 A 
ENDROOT
BRANCH   7   9
ATOM      9  C   UNL     1      19.442  16.426  21.482  0.00  0.00    +0.057 A 
ATOM     10  C   UNL     1      18.370  17.075  20.878  0.00  0.00    -0.004 A 
ATOM     11  C   UNL     1      18.509  18.375  20.403  0.00  0.00    -0.023 A 
ATOM     12  C   UNL     1      19.723  19.040  20.530  0.00  0.00    +0.001 A 
ATOM     13  C   UNL     1      20.797  18.400  21.136  0.00  0.00    +0.082 A 
ATOM     16  C   UNL     1      20.650  17.103  21.610  0.00  0.00    +0.036 A 
BRANCH  13  14
ATOM     14  O   UNL     1      22.002  19.040  21.269  0.00  0.00    -0.324 OA
ATOM     15  C   UNL     1      22.207  20.317  20.669  0.00  0.00    +0.232 C 
ENDBRANCH  13  14
ENDBRANCH   7   9
TORSDOF 2
