REMARK  Name = 3R8P
REMARK  5 active torsions:
REMARK  status: ('A' for Active; 'I' for Inactive)
REMARK    1  A    between atoms: C_5  and  C_6
REMARK    2  A    between atoms: C_6  and  N_7
REMARK    3  A    between atoms: C_12  and  C_14
REMARK    4  A    between atoms: C_14  and  C_15
REMARK    5  A    between atoms: C_15  and  C_16
REMARK                            x       y       z     vdW  Elec       q    Type
REMARK                         _______ _______ _______ _____ _____    ______ ____
ROOT
ATOM      1  N   UNL     1     -77.834 137.292 -65.017  0.00  0.00    -0.169 NA
ATOM      2  C   UNL     1     -78.075 136.038 -64.544  0.00  0.00    +0.154 A 
ATOM      8  C   UNL     1     -79.152 136.091 -63.649  0.00  0.00    +0.006 A 
ATOM      9  C   UNL     1     -79.861 135.013 -62.823  0.00  0.00    +0.042 C 
ATOM     10  C   UNL     1     -80.690 135.671 -61.659  0.00  0.00    -0.006 C 
ATOM     14  C   UNL     1     -81.488 136.922 -62.183  0.00  0.00    +0.010 C 
ATOM     15  C   UNL     1     -80.552 137.996 -62.856  0.00  0.00    +0.055 C 
ATOM     16  C   UNL     1     -79.516 137.442 -63.625  0.00  0.00    +0.040 A 
ATOM     17  N   UNL     1     -78.702 138.128 -64.459  0.00  0.00    -0.281 N 
ATOM     18  H   UNL     1     -78.750 139.181 -64.641  0.00  0.00    +0.189 HD
ENDROOT
BRANCH   2   3
ATOM      3  C   UNL     1     -77.279 134.852 -64.953  0.00  0.00    +0.305 C 
ATOM      4  O   UNL     1     -77.576 133.642 -64.435  0.00  0.00    -0.265 OA
BRANCH   3   5
ATOM      5  N   UNL     1     -76.254 134.997 -65.841  0.00  0.00    -0.082 NA
ATOM      6  N   UNL     1     -75.454 133.870 -66.081  0.00  0.00    -0.211 NA
ATOM      7  H   UNL     1     -74.637 133.931 -66.769  0.00  0.00    +0.209 HD
ENDBRANCH   3   5
ENDBRANCH   2   3
BRANCH  10  11
ATOM     11  C   UNL     1     -81.666 134.629 -61.016  0.00  0.00    +0.004 C 
BRANCH  11  12
ATOM     12  C   UNL     1     -80.946 133.540 -60.205  0.00  0.00    -0.003 C 
ATOM     13  C   UNL     1     -80.406 134.114 -58.909  0.00  0.00    +0.004 C 
ENDBRANCH  11  12
ENDBRANCH  10  11
TORSDOF 4
