REMARK  Name = 2WKM
REMARK  10 active torsions:
REMARK  status: ('A' for Active; 'I' for Inactive)
REMARK    1  A    between atoms: C_2  and  C_14
REMARK    2  A    between atoms: C_4  and  C_5
REMARK    3  A    between atoms: C_5  and  N_6
REMARK    4  A    between atoms: C_15  and  C_16
REMARK    5  A    between atoms: C_17  and  C_18
REMARK    6  A    between atoms: C_20  and  C_21
REMARK    7  A    between atoms: C_21  and  C_22
REMARK    8  A    between atoms: C_31  and  S_32
REMARK    9  A    between atoms: S_32  and  C_35
REMARK   10  A    between atoms: C_35  and  C_36
REMARK                            x       y       z     vdW  Elec       q    Type
REMARK                         _______ _______ _______ _____ _____    ______ ____
ROOT
ATOM      8  C   UNL     1      16.451   9.895   5.593  0.00  0.00    +0.031 C 
ATOM      9  C   UNL     1      17.398   9.916   6.739  0.00  0.00    +0.008 A 
ATOM     10  C   UNL     1      18.658  10.559   6.894  0.00  0.00    +0.037 A 
ATOM     11  C   UNL     1      19.396  10.396   8.127  0.00  0.00    +0.089 A 
ATOM     24  C   UNL     1      18.819   9.593   9.176  0.00  0.00    +0.029 A 
ATOM     25  C   UNL     1      17.547   8.958   9.016  0.00  0.00    +0.028 A 
ATOM     26  C   UNL     1      16.853   9.132   7.778  0.00  0.00    +0.065 A 
ATOM     27  N   UNL     1      15.629   8.617   7.369  0.00  0.00    -0.176 NA
ATOM     28  C   UNL     1      15.335   9.028   6.080  0.00  0.00    +0.265 C 
ATOM     29  O   UNL     1      14.312   8.716   5.462  0.00  0.00    -0.268 OA
ENDROOT
BRANCH  11  12
ATOM     12  S   UNL     1      20.993  11.141   8.343  0.00  0.00    +0.001 S 
ATOM     22  O   UNL     1      20.878  12.549   8.013  0.00  0.00    -0.169 OA
ATOM     23  O   UNL     1      21.429  10.901   9.710  0.00  0.00    -0.169 OA
BRANCH  12  13
ATOM     13  C   UNL     1      22.200  10.325   7.231  0.00  0.00    +0.209 C 
BRANCH  13  14
ATOM     14  C   UNL     1      21.810  10.385   5.728  0.00  0.00    +0.011 A 
ATOM     15  C   UNL     1      22.097  11.549   4.918  0.00  0.00    +0.047 A 
ATOM     16  C   UNL     1      21.717  11.573   3.533  0.00  0.00    +0.020 A 
ATOM     17  C   UNL     1      21.059  10.461   2.933  0.00  0.00    +0.003 A 
ATOM     18  C   UNL     1      20.776   9.310   3.722  0.00  0.00    +0.020 A 
ATOM     19 CL   UNL     1      22.894  12.948   5.562  0.00  0.00    -0.083 Cl
ATOM     20  C   UNL     1      21.146   9.261   5.106  0.00  0.00    +0.047 A 
ATOM     21 CL   UNL     1      20.768   7.835   6.013  0.00  0.00    -0.083 Cl
ENDBRANCH  13  14
ENDBRANCH  12  13
ENDBRANCH  11  12
BRANCH   8   7
ATOM      7  C   UNL     1      16.639  10.567   4.349  0.00  0.00    +0.096 C 
BRANCH   7   6
ATOM      3  C   UNL     1      14.812  10.976   1.132  0.00  0.00    +0.062 A 
ATOM      4  C   UNL     1      13.978  10.132   1.866  0.00  0.00    +0.051 A 
ATOM      5  N   UNL     1      14.532   9.899   3.083  0.00  0.00    -0.255 NA
ATOM      6  C   UNL     1      15.725  10.571   3.172  0.00  0.00    +0.050 A 
ATOM     30  C   UNL     1      12.659   9.544   1.419  0.00  0.00    +0.066 C 
ATOM     31  C   UNL     1      15.945  11.258   1.972  0.00  0.00    -0.015 A 
ATOM     32  C   UNL     1      17.150  12.133   1.638  0.00  0.00    +0.046 C 
BRANCH   3   2
ATOM      1  O   UNL     1      15.336  11.065  -1.107  0.00  0.00    -0.270 OA
ATOM      2  C   UNL     1      14.546  11.452  -0.255  0.00  0.00    +0.249 C 
ATOM     33  N   UNL     1      13.493  12.261  -0.622  0.00  0.00    -0.293 N 
ATOM     34  C   UNL     1      12.504  12.869   0.286  0.00  0.00    +0.108 C 
ATOM     35  C   UNL     1      12.009  14.112  -0.437  0.00  0.00    +0.021 C 
ATOM     36  C   UNL     1      11.963  13.621  -1.883  0.00  0.00    +0.025 C 
ATOM     37  C   UNL     1      13.181  12.699  -1.990  0.00  0.00    +0.090 C 
BRANCH  37  38
ATOM     38  C   UNL     1      14.314  13.322  -2.821  0.00  0.00    +0.107 C 
BRANCH  38  39
ATOM     39  N   UNL     1      15.185  12.271  -3.417  0.00  0.00    -0.301 NA
ATOM     40  C   UNL     1      14.510  11.200  -4.179  0.00  0.00    +0.084 C 
ATOM     41  C   UNL     1      15.612  10.474  -4.956  0.00  0.00    +0.017 C 
ATOM     42  C   UNL     1      16.716  11.534  -5.114  0.00  0.00    +0.017 C 
ATOM     43  C   UNL     1      16.146  12.775  -4.406  0.00  0.00    +0.084 C 
ENDBRANCH  38  39
ENDBRANCH  37  38
ENDBRANCH   3   2
ENDBRANCH   7   6
ENDBRANCH   8   7
TORSDOF 8
