REMARK  Name = 3jxw_ligand
REMARK  6 active torsions:
REMARK  status: ('A' for Active; 'I' for Inactive)
REMARK    1  A    between atoms: C1_1  and  N1_2
REMARK    2  A    between atoms: N1_2  and  C2_5
REMARK    3  A    between atoms: N1_2  and  C3_7
REMARK    4  A    between atoms: C3_7  and  C4_9
REMARK    5  A    between atoms: C8_13  and  C9_14
REMARK    6  A    between atoms: C10_15  and  C11_16
REMARK                            x       y       z     vdW  Elec       q    Type
REMARK                         _______ _______ _______ _____ _____    ______ ____
ROOT
ATOM      5  C   UNL     1     -21.828 -32.344  -0.861  0.00  0.00    +0.187 A 
ATOM      6  N   UNL     1     -21.790 -31.627   0.290  0.00  0.00    -0.194 N 
ATOM      7  H   UNL     1     -21.466 -30.681   0.269  0.00  0.00    +0.254 HD
ATOM      8  C   UNL     1     -22.191 -32.180   1.491  0.00  0.00    +0.230 A 
ATOM      9  C   UNL     1     -22.596 -33.539   1.338  0.00  0.00    +0.105 A 
ATOM     10  C   UNL     1     -22.599 -34.213   0.153  0.00  0.00    +0.020 A 
ATOM     11  C   UNL     1     -23.035 -35.572   0.234  0.00  0.00    -0.006 A 
ATOM     12  C   UNL     1     -23.381 -35.929   1.536  0.00  0.00    +0.036 A 
ATOM     13  C   UNL     1     -23.842 -37.170   1.908  0.00  0.00    +0.007 A 
ATOM     14  C   UNL     1     -23.948 -38.073   0.864  0.00  0.00    -0.009 A 
ATOM     15  C   UNL     1     -23.616 -37.774  -0.454  0.00  0.00    -0.046 A 
ATOM     21  C   UNL     1     -23.146 -36.507  -0.779  0.00  0.00    -0.003 A 
ATOM     22  S   UNL     1     -23.144 -34.591   2.586  0.00  0.00    -0.041 S 
ATOM     23  O   UNL     1     -22.193 -31.569   2.544  0.00  0.00    -0.404 OA
ATOM     24  N   UNL     1     -22.186 -33.570  -1.031  0.00  0.00    -0.308 NA
ENDROOT
BRANCH  15  16
ATOM     16  C   UNL     1     -23.764 -38.804  -1.542  0.00  0.00    -0.029 C 
ATOM     17  C   UNL     1     -24.197 -38.398  -2.760  0.00  0.00    -0.004 C 
BRANCH  17  18
ATOM     18  C   UNL     1     -24.462 -39.082  -4.039  0.00  0.00    +0.039 C 
ATOM     19  C   UNL     1     -23.773 -38.616  -5.298  0.00  0.00    +0.023 C 
ATOM     20  C   UNL     1     -25.241 -38.380  -5.144  0.00  0.00    +0.023 C 
ENDBRANCH  17  18
ENDBRANCH  15  16
BRANCH   5   4
ATOM      4  C   UNL     1     -21.375 -31.606  -2.038  0.00  0.00    +0.280 C 
BRANCH   4   2
ATOM      1  C   UNL     1     -23.804 -30.781  -2.215  0.00  0.00    +0.192 C 
ATOM      2  N   UNL     1     -22.386 -30.745  -2.691  0.00  0.00    +0.252 N 
ATOM      3  H   UNL     1     -22.484 -31.203  -3.584  0.00  0.00    +0.205 HD
ATOM     25  C   UNL     1     -21.833 -29.413  -3.094  0.00  0.00    +0.192 C 
ENDBRANCH   4   2
ENDBRANCH   5   4
TORSDOF 4
