REMARK  Name = 5CAL
REMARK  10 active torsions:
REMARK  status: ('A' for Active; 'I' for Inactive)
REMARK    1  A    between atoms: C_3  and  C_7
REMARK    2  A    between atoms: C_3  and  C_8
REMARK    3  A    between atoms: C_3  and  N_13
REMARK    4  A    between atoms: C_10  and  C_11
REMARK    5  A    between atoms: N_14  and  C_15
REMARK    6  A    between atoms: N_21  and  C_22
REMARK    7  A    between atoms: C_22  and  C_23
REMARK    8  A    between atoms: C_23  and  C_24
REMARK    9  A    between atoms: C_23  and  C_25
REMARK   10  A    between atoms: C_23  and  C_26
REMARK                            x       y       z     vdW  Elec       q    Type
REMARK                         _______ _______ _______ _____ _____    ______ ____
ROOT
ATOM     14  C   UNL     1     -54.527   1.119 -24.256  0.00  0.00    +0.129 A 
ATOM     15  N   UNL     1     -53.510   0.302 -24.550  0.00  0.00    -0.199 NA
ATOM     16  C   UNL     1     -53.543  -0.494 -25.607  0.00  0.00    +0.217 A 
ATOM     17  N   UNL     1     -52.441  -1.284 -25.861  0.00  0.00    -0.312 N 
ATOM     18  H   UNL     1     -51.729  -0.965 -26.593  0.00  0.00    +0.149 HD
ATOM     28  N   UNL     1     -54.570  -0.465 -26.454  0.00  0.00    -0.223 NA
ATOM     29  C   UNL     1     -55.620   0.333 -26.240  0.00  0.00    +0.118 A 
ATOM     30  C   UNL     1     -55.633   1.162 -25.124  0.00  0.00    +0.063 A 
ENDROOT
BRANCH  14  12
ATOM      1  C   UNL     1     -52.784   1.537 -19.362  0.00  0.00    +0.107 A 
ATOM      2  N   UNL     1     -52.106   1.247 -18.223  0.00  0.00    -0.231 NA
ATOM      3  C   UNL     1     -51.296   0.252 -18.433  0.00  0.00    +0.108 A 
ATOM      4  N   UNL     1     -51.391  -0.180 -19.736  0.00  0.00    -0.325 N 
ATOM      8  C   UNL     1     -50.398  -0.309 -17.357  0.00  0.00    +0.086 C 
ATOM      9  C   UNL     1     -52.336   0.632 -20.364  0.00  0.00    +0.074 A 
ATOM     10  C   UNL     1     -52.893   0.750 -21.651  0.00  0.00    +0.071 A 
ATOM     11  C   UNL     1     -53.873   1.724 -21.893  0.00  0.00    +0.126 A 
ATOM     12  N   UNL     1     -54.500   1.938 -23.131  0.00  0.00    -0.284 N 
ATOM     13  H   UNL     1     -55.032   2.862 -23.223  0.00  0.00    +0.155 HD
ATOM     31  N   UNL     1     -54.256   2.544 -20.914  0.00  0.00    -0.238 NA
ATOM     32  C   UNL     1     -53.748   2.497 -19.695  0.00  0.00    +0.142 A 
BRANCH   4   5
ATOM      5  C   UNL     1     -50.589  -1.276 -20.325  0.00  0.00    +0.083 C 
ATOM      6  C   UNL     1     -49.508  -0.745 -21.271  0.00  0.00    +0.030 C 
ATOM      7  C   UNL     1     -51.430  -2.386 -20.968  0.00  0.00    +0.030 C 
ENDBRANCH   4   5
ENDBRANCH  14  12
BRANCH  17  19
ATOM     19  C   UNL     1     -52.218  -2.552 -25.153  0.00  0.00    +0.120 C 
BRANCH  19  20
ATOM     20  C   UNL     1     -50.928  -3.270 -25.605  0.00  0.00    +0.057 C 
ATOM     26  C   UNL     1     -49.745  -2.601 -24.902  0.00  0.00    +0.022 C 
ATOM     27  C   UNL     1     -50.737  -3.155 -27.129  0.00  0.00    +0.022 C 
BRANCH  20  21
ATOM     21  C   UNL     1     -50.965  -4.732 -25.181  0.00  0.00    +0.218 C 
ATOM     22  N   UNL     1     -50.447  -5.708 -25.966  0.00  0.00    -0.329 N 
ATOM     23  H   UNL     1     -50.485  -6.728 -25.646  0.00  0.00    +0.145 HD
ATOM     24  H   UNL     1     -50.000  -5.458 -26.906  0.00  0.00    +0.145 HD
ATOM     25  O   UNL     1     -51.446  -5.058 -24.106  0.00  0.00    -0.275 OA
ENDBRANCH  20  21
ENDBRANCH  19  20
ENDBRANCH  17  19
TORSDOF 5
