REMARK  Name = 4pmp_ligand
REMARK  7 active torsions:
REMARK  status: ('A' for Active; 'I' for Inactive)
REMARK    1  A    between atoms: C5_3  and  C4_26
REMARK    2  A    between atoms: C7_4  and  C8_28
REMARK    3  A    between atoms: C18_11  and  O_19
REMARK    4  A    between atoms: N2_15  and  C14_16
REMARK    5  A    between atoms: C17_18  and  O_19
REMARK    6  A    between atoms: N_24  and  C1_25
REMARK    7  A    between atoms: N_24  and  C4_26
REMARK                            x       y       z     vdW  Elec       q    Type
REMARK                         _______ _______ _______ _____ _____    ______ ____
ROOT
ATOM      3  N   UNL     1      32.710 -33.302  -8.119  0.00  0.00    -0.240 N 
ATOM     16  C   UNL     1      33.869 -32.517  -8.085  0.00  0.00    +0.289 C 
ATOM     17  N   UNL     1      34.916 -32.931  -8.854  0.00  0.00    -0.226 N 
ATOM     18  H   UNL     1      34.770 -33.736  -9.428  0.00  0.00    +0.222 HD
ATOM     30  O   UNL     1      33.924 -31.513  -7.388  0.00  0.00    -0.391 OA
ENDROOT
BRANCH  17  19
ATOM     19  C   UNL     1      36.197 -32.318  -8.911  0.00  0.00    +0.056 A 
ATOM     20  C   UNL     1      36.729 -31.853 -10.110  0.00  0.00    -0.002 A 
ATOM     21  C   UNL     1      37.943 -31.184 -10.126  0.00  0.00    +0.005 A 
ATOM     22  C   UNL     1      38.639 -30.983  -8.938  0.00  0.00    +0.085 A 
ATOM     23  C   UNL     1      38.130 -31.470  -7.744  0.00  0.00    +0.005 A 
ATOM     29  C   UNL     1      36.915 -32.135  -7.733  0.00  0.00    -0.002 A 
BRANCH  22  24
ATOM     24  O   UNL     1      39.863 -30.280  -8.880  0.00  0.00    -0.236 OA
BRANCH  24  25
ATOM     25  C   UNL     1      39.826 -28.936  -8.845  0.00  0.00    +0.544 C 
ATOM     26  F   UNL     1      41.026 -28.422  -8.686  0.00  0.00    -0.140 F 
ATOM     27  F   UNL     1      39.092 -28.478  -7.845  0.00  0.00    -0.140 F 
ATOM     28  F   UNL     1      39.355 -28.412  -9.959  0.00  0.00    -0.140 F 
ENDBRANCH  24  25
ENDBRANCH  22  24
ENDBRANCH  17  19
BRANCH   3   2
ATOM      1  C   UNL     1      31.422 -34.656  -9.874  0.00  0.00    +0.030 C 
ATOM      2  C   UNL     1      32.666 -34.429  -9.083  0.00  0.00    +0.104 C 
ATOM     31  C   UNL     1      31.812 -35.616  -8.792  0.00  0.00    +0.030 C 
ENDBRANCH   3   2
BRANCH   3   4
ATOM      4  C   UNL     1      31.585 -32.956  -7.241  0.00  0.00    +0.206 C 
BRANCH   4   5
ATOM      5  C   UNL     1      31.545 -33.688  -5.917  0.00  0.00    -0.017 A 
ATOM      6  C   UNL     1      30.371 -33.684  -5.165  0.00  0.00    +0.015 A 
ATOM      7  C   UNL     1      30.342 -34.218  -3.878  0.00  0.00    +0.013 A 
ATOM     13  C   UNL     1      31.503 -34.779  -3.345  0.00  0.00    +0.006 A 
ATOM     14  C   UNL     1      32.663 -34.823  -4.101  0.00  0.00    -0.003 A 
ATOM     15  C   UNL     1      32.681 -34.284  -5.379  0.00  0.00    +0.003 A 
BRANCH   7   8
ATOM      8  C   UNL     1      29.090 -34.185  -3.098  0.00  0.00    +0.111 A 
ATOM      9  N   UNL     1      28.984 -34.588  -1.863  0.00  0.00    -0.311 NA
ATOM     10  C   UNL     1      27.692 -34.409  -1.421  0.00  0.00    +0.044 A 
ATOM     11  C   UNL     1      26.832 -33.882  -2.303  0.00  0.00    +0.088 A 
ATOM     12  S   UNL     1      27.620 -33.572  -3.779  0.00  0.00    -0.005 S 
ENDBRANCH   7   8
ENDBRANCH   4   5
ENDBRANCH   3   4
TORSDOF 7
