REMARK  Name = 2wtc_ligand
REMARK  6 active torsions:
REMARK  status: ('A' for Active; 'I' for Inactive)
REMARK    1  A    between atoms: C01_1  and  O02_2
REMARK    2  A    between atoms: O02_2  and  C03_3
REMARK    3  A    between atoms: C05_5  and  C06_6
REMARK    4  A    between atoms: C11_11  and  C12_12
REMARK    5  A    between atoms: C15_15  and  C16_16
REMARK    6  A    between atoms: C24_24  and  O25_25
REMARK                            x       y       z     vdW  Elec       q    Type
REMARK                         _______ _______ _______ _____ _____    ______ ____
ROOT
ATOM     10  C   UNL     1      -9.106  49.662   9.537  0.00  0.00    -0.012 A 
ATOM     11  C   UNL     1      -9.444  49.147   8.194  0.00  0.00    +0.031 A 
ATOM     12  C   UNL     1     -10.848  48.892   7.821  0.00  0.00    +0.031 A 
ATOM     24  C   UNL     1     -11.905  49.120   8.771  0.00  0.00    +0.120 A 
ATOM     25  N   UNL     1     -13.278  48.878   8.442  0.00  0.00    -0.320 N 
ATOM     26  H   UNL     1     -14.014  49.058   9.140  0.00  0.00    +0.179 HD
ATOM     27  H   UNL     1     -13.529  48.524   7.508  0.00  0.00    +0.179 HD
ATOM     28  N   UNL     1     -11.576  49.616  10.086  0.00  0.00    -0.283 NA
ATOM     29  C   UNL     1     -10.158  49.893  10.453  0.00  0.00    +0.081 A 
ENDROOT
BRANCH  10   9
ATOM      3  C   UNL     1      -6.049  50.429  11.742  0.00  0.00    +0.120 A 
ATOM      4  C   UNL     1      -4.959  50.139  10.828  0.00  0.00    +0.117 A 
ATOM      7  C   UNL     1      -5.239  49.701   9.499  0.00  0.00    +0.011 A 
ATOM      8  C   UNL     1      -6.650  49.547   9.045  0.00  0.00    -0.024 A 
ATOM      9  C   UNL     1      -7.748  49.856   9.951  0.00  0.00    -0.038 A 
ATOM     30  C   UNL     1      -7.464  50.272  11.289  0.00  0.00    +0.016 A 
BRANCH   3   2
ATOM      1  C   UNL     1      -4.963  50.007  13.956  0.00  0.00    +0.229 C 
ATOM      2  O   UNL     1      -5.734  50.849  13.088  0.00  0.00    -0.325 OA
ENDBRANCH   3   2
BRANCH   4   5
ATOM      5  O   UNL     1      -3.629  50.316  11.262  0.00  0.00    -0.336 OA
ATOM      6  H   UNL     1      -3.627  50.609  12.166  0.00  0.00    +0.245 HD
ENDBRANCH   4   5
ENDBRANCH  10   9
BRANCH  12  13
ATOM     13  C   UNL     1     -11.151  48.371   6.527  0.00  0.00    -0.013 A 
ATOM     14  C   UNL     1     -12.296  48.845   5.731  0.00  0.00    +0.012 A 
ATOM     15  C   UNL     1     -12.534  48.273   4.386  0.00  0.00    +0.023 A 
ATOM     16  C   UNL     1     -11.634  47.227   3.830  0.00  0.00    +0.048 A 
ATOM     22  C   UNL     1     -10.502  46.763   4.631  0.00  0.00    +0.023 A 
ATOM     23  C   UNL     1     -10.258  47.331   5.977  0.00  0.00    +0.012 A 
BRANCH  16  17
ATOM     17  C   UNL     1     -11.839  46.616   2.400  0.00  0.00    +0.201 C 
ATOM     18  O   UNL     1     -12.808  46.833   1.736  0.00  0.00    -0.386 OA
ATOM     19  N   UNL     1     -10.731  45.954   1.773  0.00  0.00    -0.300 N 
ATOM     20  H   UNL     1      -9.853  45.890   2.248  0.00  0.00    +0.181 HD
ATOM     21  H   UNL     1     -10.837  45.556   0.862  0.00  0.00    +0.181 HD
ENDBRANCH  16  17
ENDBRANCH  12  13
TORSDOF 5
