REMARK  Name = 3ORX
REMARK  5 active torsions:
REMARK  status: ('A' for Active; 'I' for Inactive)
REMARK    1  A    between atoms: S_1  and  C_2
REMARK    2  A    between atoms: C_2  and  C_3
REMARK    3  A    between atoms: C_3  and  N_4
REMARK    4  A    between atoms: C_5  and  C_7
REMARK    5  A    between atoms: C_11  and  C_16
REMARK                            x       y       z     vdW  Elec       q    Type
REMARK                         _______ _______ _______ _____ _____    ______ ____
ROOT
ATOM      8  C   UNL     1       6.010  18.242  73.210  0.00  0.00    +0.085 A 
ATOM      9  C   UNL     1       7.202  17.556  72.646  0.00  0.00    +0.115 A 
ATOM     10  C   UNL     1       8.358  16.761  73.197  0.00  0.00    +0.087 C 
ATOM     11  O   UNL     1       7.129  17.744  71.290  0.00  0.00    -0.459 OA
ATOM     12  C   UNL     1       6.045  18.461  70.981  0.00  0.00    +0.136 A 
ATOM     13  C   UNL     1       5.677  18.832  69.694  0.00  0.00    +0.047 A 
ATOM     14  C   UNL     1       4.518  19.585  69.523  0.00  0.00    +0.004 A 
ATOM     15  C   UNL     1       3.750  19.955  70.627  0.00  0.00    +0.001 A 
ATOM     16  C   UNL     1       4.120  19.586  71.919  0.00  0.00    +0.012 A 
ATOM     17  C   UNL     1       5.272  18.836  72.065  0.00  0.00    +0.033 A 
ENDROOT
BRANCH   8   7
ATOM      5  N   UNL     1       5.720  17.250  75.365  0.00  0.00    -0.311 N 
ATOM      6  H   UNL     1       6.095  16.393  74.845  0.00  0.00    +0.149 HD
ATOM      7  C   UNL     1       5.595  18.353  74.635  0.00  0.00    +0.248 C 
ATOM     18  O   UNL     1       5.168  19.402  75.086  0.00  0.00    -0.270 OA
BRANCH   5   4
ATOM      4  C   UNL     1       5.419  17.047  76.765  0.00  0.00    +0.115 C 
BRANCH   4   3
ATOM      3  C   UNL     1       5.494  15.537  76.940  0.00  0.00    +0.084 C 
BRANCH   3   1
ATOM      1  S   UNL     1       3.865  14.875  76.797  0.00  0.00    -0.177 S 
ATOM      2  H   UNL     1       3.081  15.406  77.745  0.00  0.00    +0.102 HD
ENDBRANCH   3   1
ENDBRANCH   4   3
ENDBRANCH   5   4
ENDBRANCH   8   7
TORSDOF 4
