REMARK  Name = 6NSP
REMARK  4 active torsions:
REMARK  status: ('A' for Active; 'I' for Inactive)
REMARK    1  A    between atoms: C16_10  and  N17_22
REMARK    2  A    between atoms: C18_11  and  C20_24
REMARK    3  A    between atoms: C9_18  and  C10_19
REMARK    4  A    between atoms: C20_24  and  N21_25
REMARK                            x       y       z     vdW  Elec       q    Type
REMARK                         _______ _______ _______ _____ _____    ______ ____
ROOT
ATOM      1  C   UNL     1       6.066  14.691  26.330  0.00  0.00    -0.150 C 
ATOM      2  C   UNL     1       7.051  13.562  26.181  0.00  0.00    +0.000 A 
ATOM      3  C   UNL     1       8.272  13.741  25.540  0.00  0.00    +0.300 A 
ATOM      4  N   UNL     1       8.810  14.841  25.012  0.00  0.00    -0.300 NA
ATOM      5  C   UNL     1      10.022  14.473  24.497  0.00  0.00    +0.150 A 
ATOM     12  C   UNL     1      10.258  13.150  24.735  0.00  0.00    +0.100 A 
ATOM     28  N   UNL     1       9.132  12.661  25.381  0.00  0.00    -0.300 N 
ATOM     29  C   UNL     1       8.815  11.398  25.833  0.00  0.00    -0.030 A 
ATOM     30  C   UNL     1       7.622  11.198  26.424  0.00  0.00    -0.130 A 
ATOM     31  C   UNL     1       6.728  12.272  26.584  0.00  0.00    -0.130 A 
ENDROOT
BRANCH   5   6
ATOM      6  C   UNL     1      10.856  15.406  23.745  0.00  0.00    +0.000 A 
ATOM      7  C   UNL     1      10.785  16.770  23.973  0.00  0.00    -0.130 A 
ATOM      8  C   UNL     1      11.560  17.640  23.232  0.00  0.00    -0.130 A 
ATOM      9  C   UNL     1      12.351  17.151  22.211  0.00  0.00    -0.130 A 
ATOM     10  C   UNL     1      12.386  15.801  21.934  0.00  0.00    -0.130 A 
ATOM     11  C   UNL     1      11.643  14.931  22.707  0.00  0.00    -0.130 A 
ENDBRANCH   5   6
BRANCH  12  13
ATOM     13  N   UNL     1      11.313  12.384  24.278  0.00  0.00    -0.350 NA
ATOM     14  C   UNL     1      12.473  12.081  24.831  0.00  0.00    +0.600 C 
ATOM     27  O   UNL     1      13.017  12.764  25.677  0.00  0.00    -0.550 OA
BRANCH  14  15
ATOM     15  C   UNL     1      13.128  10.839  24.258  0.00  0.00    +0.000 C 
BRANCH  15  16
ATOM     16  N   UNL     1      14.577  10.982  24.333  0.00  0.00    -0.200 N 
ATOM     17  C   UNL     1      15.227  11.668  23.279  0.00  0.00    +0.050 A 
ATOM     18  C   UNL     1      16.536  11.303  22.951  0.00  0.00    +0.060 A 
ATOM     19  S   UNL     1      17.322  10.038  23.886  0.00  0.00    -0.110 S 
ATOM     20  C   UNL     1      16.704  10.550  25.479  0.00  0.00    -0.050 C 
ATOM     21  C   UNL     1      17.175  11.932  21.878  0.00  0.00    -0.130 A 
ATOM     22  C   UNL     1      16.523  12.910  21.140  0.00  0.00    -0.130 A 
ATOM     23  C   UNL     1      15.209  13.235  21.446  0.00  0.00    -0.130 A 
ATOM     24  C   UNL     1      14.556  12.616  22.511  0.00  0.00    -0.130 A 
ATOM     25  C   UNL     1      15.208  10.494  25.454  0.00  0.00    +0.600 C 
ATOM     26  O   UNL     1      14.585  10.079  26.414  0.00  0.00    -0.550 OA
ENDBRANCH  15  16
ENDBRANCH  14  15
ENDBRANCH  12  13
TORSDOF 4
