REMARK  Name = 3bym_ligand
REMARK  8 active torsions:
REMARK  status: ('A' for Active; 'I' for Inactive)
REMARK    1  A    between atoms: N2_7  and  C13_9
REMARK    2  A    between atoms: C15_11  and  O3_27
REMARK    3  A    between atoms: C16_12  and  O1_14
REMARK    4  A    between atoms: C17_13  and  O2_15
REMARK    5  A    between atoms: O1_14  and  C9_16
REMARK    6  A    between atoms: O2_15  and  C18_28
REMARK    7  A    between atoms: N1_26  and  C24_34
REMARK    8  A    between atoms: O3_27  and  C19_29
REMARK                            x       y       z     vdW  Elec       q    Type
REMARK                         _______ _______ _______ _____ _____    ______ ____
ROOT
ATOM      1  N   UNL     1      25.065  34.894  81.762  0.00  0.00    -0.234 NA
ATOM      2  C   UNL     1      25.974  35.670  82.424  0.00  0.00    +0.212 A 
ATOM      3  N   UNL     1      27.306  35.627  82.025  0.00  0.00    -0.248 N 
ATOM      4  H   UNL     1      27.570  34.840  81.416  0.00  0.00    +0.218 HD
ATOM     17  N   UNL     1      25.594  36.496  83.451  0.00  0.00    -0.198 NA
ATOM     18  C   UNL     1      24.258  36.581  83.856  0.00  0.00    +0.248 A 
ATOM     19  N   UNL     1      23.936  37.528  84.876  0.00  0.00    -0.129 N 
ATOM     20  C   UNL     1      22.655  37.791  85.188  0.00  0.00    +0.262 A 
ATOM     21  N   UNL     1      21.466  37.138  84.592  0.00  0.00    -0.223 N 
ATOM     22  H   UNL     1      21.621  36.340  83.960  0.00  0.00    +0.222 HD
ATOM     29  N   UNL     1      22.573  38.725  86.142  0.00  0.00    -0.300 NA
ATOM     30  C   UNL     1      23.854  39.137  86.523  0.00  0.00    +0.021 A 
ATOM     31  C   UNL     1      24.393  40.098  87.496  0.00  0.00    -0.014 A 
ATOM     32  C   UNL     1      25.831  40.269  87.643  0.00  0.00    -0.027 A 
ATOM     33  C   UNL     1      26.781  39.504  86.841  0.00  0.00    -0.025 A 
ATOM     34  C   UNL     1      26.252  38.553  85.871  0.00  0.00    +0.016 A 
ATOM     35  C   UNL     1      24.791  38.350  85.692  0.00  0.00    +0.105 A 
ATOM     36  N   UNL     1      23.340  35.746  83.142  0.00  0.00    -0.228 NA
ATOM     37  C   UNL     1      23.758  34.942  82.133  0.00  0.00    +0.194 A 
ENDROOT
BRANCH   3   5
ATOM      5  C   UNL     1      28.328  36.521  82.350  0.00  0.00    +0.041 A 
ATOM      6  C   UNL     1      28.148  37.881  82.823  0.00  0.00    +0.007 A 
ATOM      7  C   UNL     1      29.273  38.678  83.150  0.00  0.00    +0.103 A 
ATOM     10  C   UNL     1      30.546  38.068  82.976  0.00  0.00    +0.136 A 
ATOM     13  C   UNL     1      30.743  36.739  82.514  0.00  0.00    +0.103 A 
ATOM     16  C   UNL     1      29.600  35.963  82.198  0.00  0.00    +0.007 A 
BRANCH   7   8
ATOM      8  O   UNL     1      29.213  39.990  83.654  0.00  0.00    -0.331 OA
ATOM      9  C   UNL     1      28.019  40.803  83.544  0.00  0.00    +0.228 C 
ENDBRANCH   7   8
BRANCH  10  11
ATOM     11  O   UNL     1      31.605  38.885  83.277  0.00  0.00    -0.337 OA
ATOM     12  C   UNL     1      32.114  38.653  84.586  0.00  0.00    +0.221 C 
ENDBRANCH  10  11
BRANCH  13  14
ATOM     14  O   UNL     1      32.048  36.284  82.422  0.00  0.00    -0.331 OA
ATOM     15  C   UNL     1      32.313  34.940  81.981  0.00  0.00    +0.228 C 
ENDBRANCH  13  14
ENDBRANCH   3   5
BRANCH  21  23
ATOM     23  C   UNL     1      20.168  37.529  84.828  0.00  0.00    +0.069 A 
ATOM     24  C   UNL     1      19.618  37.687  86.192  0.00  0.00    +0.016 A 
ATOM     25  C   UNL     1      18.239  38.056  86.349  0.00  0.00    -0.013 A 
ATOM     26  C   UNL     1      17.490  38.246  85.115  0.00  0.00    -0.021 A 
ATOM     27  C   UNL     1      17.992  38.107  83.768  0.00  0.00    -0.013 A 
ATOM     28  C   UNL     1      19.369  37.740  83.639  0.00  0.00    +0.016 A 
ENDBRANCH  21  23
TORSDOF 5
