REMARK  Name = 4acg_ligand
REMARK  9 active torsions:
REMARK  status: ('A' for Active; 'I' for Inactive)
REMARK    1  A    between atoms: C1_1  and  N2_2
REMARK    2  A    between atoms: N5_5  and  S8_8
REMARK    3  A    between atoms: S8_8  and  C11_11
REMARK    4  A    between atoms: C14_14  and  C17_17
REMARK    5  A    between atoms: C19_19  and  C24_24
REMARK    6  A    between atoms: C20_20  and  N23_23
REMARK    7  A    between atoms: N26_26  and  C27_27
REMARK    8  A    between atoms: C32_32  and  C33_33
REMARK    9  A    between atoms: C33_33  and  N34_34
REMARK                            x       y       z     vdW  Elec       q    Type
REMARK                         _______ _______ _______ _____ _____    ______ ____
ROOT
ATOM     11  C   UNL     1      24.381  19.679   8.535  0.00  0.00    +0.002 A 
ATOM     12  C   UNL     1      24.747  20.149   7.266  0.00  0.00    +0.092 A 
ATOM     13  N   UNL     1      25.934  19.885   6.758  0.00  0.00    -0.277 NA
ATOM     14  C   UNL     1      26.817  19.146   7.394  0.00  0.00    +0.132 A 
ATOM     18  C   UNL     1      26.557  18.636   8.701  0.00  0.00    +0.102 A 
ATOM     35  C   UNL     1      25.299  18.907   9.275  0.00  0.00    +0.050 A 
ENDROOT
BRANCH  11  10
ATOM      7  C   UNL     1      20.437  20.317   9.977  0.00  0.00    +0.107 A 
ATOM      8  C   UNL     1      21.508  20.366  10.870  0.00  0.00    +0.028 A 
ATOM      9  C   UNL     1      22.794  20.186  10.414  0.00  0.00    +0.008 A 
ATOM     10  C   UNL     1      23.013  19.957   9.050  0.00  0.00    -0.018 A 
ATOM     36  C   UNL     1      21.925  19.885   8.160  0.00  0.00    +0.008 A 
ATOM     37  C   UNL     1      20.642  20.093   8.617  0.00  0.00    +0.028 A 
BRANCH   7   6
ATOM      6  S   UNL     1      18.800  20.595  10.572  0.00  0.00    +0.070 S 
ATOM     38  O   UNL     1      18.007  19.858   9.648  0.00  0.00    -0.150 OA
ATOM     39  O   UNL     1      18.807  20.324  11.961  0.00  0.00    -0.150 OA
BRANCH   6   5
ATOM      1  C   UNL     1      18.017  26.373   9.623  0.00  0.00    -0.131 C 
ATOM      2  N   UNL     1      18.037  24.936   9.938  0.00  0.00    +0.403 NA
ATOM      3  C   UNL     1      19.035  24.606  10.976  0.00  0.00    -0.089 C 
ATOM      4  C   UNL     1      18.858  23.151  11.450  0.00  0.00    +0.103 C 
ATOM      5  N   UNL     1      18.534  22.213  10.347  0.00  0.00    -0.238 NA
ATOM     40  C   UNL     1      17.970  22.650   9.038  0.00  0.00    +0.103 C 
ATOM     41  C   UNL     1      18.258  24.130   8.723  0.00  0.00    -0.089 C 
ENDBRANCH   6   5
ENDBRANCH   7   6
ENDBRANCH  11  10
BRANCH  18  19
ATOM     19  C   UNL     1      27.487  17.740   9.422  0.00  0.00    +0.233 C 
ATOM     20  N   UNL     1      27.024  17.138  10.545  0.00  0.00    -0.230 N 
ATOM     21  H   UNL     1      26.060  17.360  10.793  0.00  0.00    +0.225 HD
ATOM     34  O   UNL     1      28.595  17.493   8.963  0.00  0.00    -0.377 OA
BRANCH  20  22
ATOM     22  C   UNL     1      27.677  16.256  11.413  0.00  0.00    +0.094 A 
ATOM     23  C   UNL     1      26.945  15.239  12.045  0.00  0.00    -0.021 A 
ATOM     30  C   UNL     1      27.601  14.392  12.937  0.00  0.00    +0.012 A 
ATOM     31  C   UNL     1      28.957  14.582  13.180  0.00  0.00    +0.054 A 
ATOM     32  N   UNL     1      29.638  15.526  12.533  0.00  0.00    -0.323 NA
ATOM     33  C   UNL     1      29.037  16.381  11.713  0.00  0.00    +0.091 A 
BRANCH  23  24
ATOM     24  C   UNL     1      25.464  15.032  11.827  0.00  0.00    -0.037 C 
BRANCH  24  25
ATOM     25  N   UNL     1      24.689  16.288  11.803  0.00  0.00    +0.408 NA
ATOM     26  C   UNL     1      23.254  16.005  11.627  0.00  0.00    -0.106 C 
ATOM     27  C   UNL     1      22.604  16.538  12.912  0.00  0.00    -0.024 C 
ATOM     28  C   UNL     1      23.491  17.796  13.203  0.00  0.00    -0.024 C 
ATOM     29  C   UNL     1      24.899  17.220  12.958  0.00  0.00    -0.106 C 
ENDBRANCH  24  25
ENDBRANCH  23  24
ENDBRANCH  20  22
ENDBRANCH  18  19
BRANCH  14  15
ATOM     15  N   UNL     1      27.975  18.912   6.708  0.00  0.00    -0.317 N 
ATOM     16  H   UNL     1      28.103  19.304   5.775  0.00  0.00    +0.180 HD
ATOM     17  H   UNL     1      28.711  18.345   7.129  0.00  0.00    +0.180 HD
ENDBRANCH  14  15
TORSDOF 8
