REMARK  Name = 5TO8
REMARK  3 active torsions:
REMARK  status: ('A' for Active; 'I' for Inactive)
REMARK    1  A    between atoms: C_11  and  C_13
REMARK    2  A    between atoms: N_26  and  S_28
REMARK    3  A    between atoms: S_28  and  C_36
REMARK                            x       y       z     vdW  Elec       q    Type
REMARK                         _______ _______ _______ _____ _____    ______ ____
ROOT
ATOM      1  C   UNL     1      -2.061 -10.359  40.570  0.00  0.00    +0.025 A 
ATOM      2  C   UNL     1      -3.302 -10.967  40.424  0.00  0.00    +0.025 A 
ATOM      3  C   UNL     1      -3.829 -11.687  41.476  0.00  0.00    +0.040 A 
ATOM      4  N   UNL     1      -5.040 -12.413  41.584  0.00  0.00    -0.271 N 
ATOM      5  C   UNL     1      -5.967 -12.865  40.643  0.00  0.00    +0.220 C 
ATOM      6  C   UNL     1      -5.801 -12.620  39.151  0.00  0.00    +0.096 C 
ATOM      7  C   UNL     1      -4.620 -13.413  38.590  0.00  0.00    +0.011 C 
ATOM      8  C   UNL     1      -4.044 -12.731  37.348  0.00  0.00    +0.021 C 
ATOM      9  C   UNL     1      -2.568 -13.087  37.155  0.00  0.00    +0.133 C 
ATOM     10  N   UNL     1      -1.967 -12.341  35.995  0.00  0.00    -0.190 N 
ATOM     15  C   UNL     1      -1.821 -10.908  35.989  0.00  0.00    +0.145 A 
ATOM     16  N   UNL     1      -2.842 -10.220  35.405  0.00  0.00    -0.238 NA
ATOM     17  C   UNL     1      -2.736  -8.869  35.400  0.00  0.00    +0.113 A 
ATOM     18  C   UNL     1      -1.660  -8.194  35.953  0.00  0.00    +0.020 A 
ATOM     19  C   UNL     1      -0.624  -8.933  36.538  0.00  0.00    +0.010 A 
ATOM     20  C   UNL     1      -0.697 -10.329  36.575  0.00  0.00    +0.011 A 
ATOM     21  C   UNL     1       0.406 -11.143  37.209  0.00  0.00    +0.141 C 
ATOM     22  N   UNL     1       1.516 -10.293  37.549  0.00  0.00    -0.324 N 
ATOM     23  H   UNL     1       2.180  -9.993  36.766  0.00  0.00    +0.148 HD
ATOM     24  C   UNL     1       1.772  -9.843  38.830  0.00  0.00    +0.136 A 
ATOM     25  C   UNL     1       2.920  -9.193  39.233  0.00  0.00    +0.113 A 
ATOM     30  C   UNL     1       2.991  -8.802  40.558  0.00  0.00    +0.130 A 
ATOM     31  N   UNL     1       2.030  -9.034  41.465  0.00  0.00    -0.222 NA
ATOM     32  C   UNL     1       0.939  -9.668  41.012  0.00  0.00    +0.221 A 
ATOM     33  N   UNL     1      -0.083  -9.881  41.951  0.00  0.00    -0.284 N 
ATOM     34  H   UNL     1       0.131  -9.546  42.944  0.00  0.00    +0.155 HD
ATOM     35  N   UNL     1       0.798 -10.080  39.725  0.00  0.00    -0.199 NA
ATOM     36  O   UNL     1      -6.972 -13.505  40.969  0.00  0.00    -0.275 OA
ATOM     37  C   UNL     1      -5.246 -12.699  43.018  0.00  0.00    +0.118 C 
ATOM     38  C   UNL     1      -3.864 -12.610  43.680  0.00  0.00    +0.056 C 
ATOM     39  C   UNL     1      -3.117 -11.795  42.672  0.00  0.00    -0.023 A 
ATOM     40  C   UNL     1      -1.880 -11.195  42.837  0.00  0.00    +0.028 A 
ATOM     41  C   UNL     1      -1.338 -10.467  41.776  0.00  0.00    +0.034 A 
ENDROOT
BRANCH  10  11
ATOM     11  S   UNL     1      -1.469 -13.193  34.567  0.00  0.00    +0.044 S 
ATOM     12  C   UNL     1      -3.053 -13.214  33.759  0.00  0.00    +0.218 C 
ATOM     13  O   UNL     1      -1.143 -14.564  34.890  0.00  0.00    -0.155 OA
ATOM     14  O   UNL     1      -0.552 -12.369  33.794  0.00  0.00    -0.155 OA
ENDBRANCH  10  11
BRANCH  25  26
ATOM     26  C   UNL     1       4.034  -8.869  38.315  0.00  0.00    +0.422 C 
ATOM     27  F   UNL     1       3.535  -8.108  37.310  0.00  0.00    -0.166 F 
ATOM     28  F   UNL     1       4.612  -9.943  37.739  0.00  0.00    -0.166 F 
ATOM     29  F   UNL     1       5.049  -8.144  38.871  0.00  0.00    -0.166 F 
ENDBRANCH  25  26
TORSDOF 2
