REMARK  Name = 5G55
REMARK  7 active torsions:
REMARK  status: ('A' for Active; 'I' for Inactive)
REMARK    1  A    between atoms: C_1  and  C_11
REMARK    2  A    between atoms: C_9  and  C_13
REMARK    3  A    between atoms: C_10  and  N_21
REMARK    4  A    between atoms: C_16  and  C_17
REMARK    5  A    between atoms: C_17  and  C_20
REMARK    6  A    between atoms: C_17  and  N_21
REMARK    7  A    between atoms: C_24  and  C_25
REMARK                            x       y       z     vdW  Elec       q    Type
REMARK                         _______ _______ _______ _____ _____    ______ ____
ROOT
ATOM      1  C   UNL     1      43.481  13.073  30.055  0.00  0.00    +0.052 A 
ATOM      4  C   UNL     1      44.209  14.138  30.602  0.00  0.00    +0.030 A 
ATOM      5  C   UNL     1      45.616  14.214  30.463  0.00  0.00    +0.023 A 
ATOM      6  C   UNL     1      46.470  15.261  31.007  0.00  0.00    +0.051 A 
ATOM     18  C   UNL     1      47.865  15.150  30.796  0.00  0.00    +0.076 A 
ATOM     24  C   UNL     1      48.364  14.056  30.067  0.00  0.00    +0.126 A 
ATOM     25  N   UNL     1      47.578  13.129  29.568  0.00  0.00    -0.254 NA
ATOM     26  C   UNL     1      46.244  13.159  29.734  0.00  0.00    +0.073 A 
ATOM     27  C   UNL     1      45.485  12.123  29.190  0.00  0.00    +0.029 A 
ATOM     28  C   UNL     1      44.139  12.074  29.347  0.00  0.00    +0.021 A 
ENDROOT
BRANCH  18  19
ATOM     19  C   UNL     1      48.830  16.172  31.333  0.00  0.00    +0.245 C 
ATOM     20  O   UNL     1      48.522  16.873  32.289  0.00  0.00    -0.270 OA
ATOM     21  N   UNL     1      50.079  16.331  30.801  0.00  0.00    -0.325 N 
ATOM     22  H   UNL     1      50.743  17.067  31.205  0.00  0.00    +0.145 HD
ATOM     23  H   UNL     1      50.393  15.720  29.981  0.00  0.00    +0.145 HD
ENDBRANCH  18  19
BRANCH   1   2
ATOM      2  C   UNL     1      42.051  12.975  30.199  0.00  0.00    +0.099 C 
ATOM      3  N   UNL     1      40.917  12.907  30.343  0.00  0.00    -0.191 NA
ENDBRANCH   1   2
BRANCH   6   7
ATOM      7  N   UNL     1      46.113  16.367  31.755  0.00  0.00    -0.336 N 
ATOM      8  H   UNL     1      46.837  16.856  32.373  0.00  0.00    +0.147 HD
BRANCH   7   9
ATOM      9  C   UNL     1      44.740  16.864  31.697  0.00  0.00    +0.098 C 
ATOM     10  C   UNL     1      44.751  18.380  31.946  0.00  0.00    +0.033 C 
BRANCH   9  11
ATOM     11  C   UNL     1      43.965  16.209  32.812  0.00  0.00    -0.028 A 
ATOM     12  C   UNL     1      44.623  15.473  33.794  0.00  0.00    +0.006 A 
ATOM     13  C   UNL     1      43.904  14.850  34.809  0.00  0.00    +0.003 A 
ATOM     14  C   UNL     1      42.530  14.972  34.842  0.00  0.00    -0.050 A 
ATOM     15  C   UNL     1      41.737  14.306  35.924  0.00  0.00    +0.044 C 
ATOM     16  C   UNL     1      41.872  15.714  33.866  0.00  0.00    +0.003 A 
ATOM     17  C   UNL     1      42.590  16.332  32.854  0.00  0.00    +0.006 A 
ENDBRANCH   9  11
ENDBRANCH   7   9
ENDBRANCH   6   7
TORSDOF 5
