REMARK  Name = UL4
REMARK  6 active torsions:
REMARK  status: ('A' for Active; 'I' for Inactive)
REMARK    1  A    between atoms: C16_2  and  C15_4
REMARK    2  A    between atoms: C11_9  and  C10_10
REMARK    3  A    between atoms: N_12  and  C9_13
REMARK    4  A    between atoms: C5_15  and  C6_16
REMARK    5  A    between atoms: C2_21  and  O_22
REMARK    6  A    between atoms: O_22  and  C1_23
REMARK                            x       y       z     vdW  Elec       q    Type
REMARK                         _______ _______ _______ _____ _____    ______ ____
ROOT
ATOM      6  C   UNL     1     -15.453  -3.444  -3.236  0.00  0.00    +0.269 C 
ATOM      7  N   UNL     1     -15.250  -2.265  -2.636  0.00  0.00    -0.172 NA
ATOM     20  O   UNL     1     -14.761  -4.420  -3.043  0.00  0.00    -0.268 OA
ENDROOT
BRANCH   6   5
ATOM      3  C   UNL     1     -17.603  -4.885  -5.963  0.00  0.00    +0.080 A 
ATOM      4  C   UNL     1     -16.571  -4.705  -5.049  0.00  0.00    +0.011 A 
ATOM      5  C   UNL     1     -16.576  -3.596  -4.213  0.00  0.00    +0.056 A 
ATOM     21  C   UNL     1     -17.600  -2.662  -4.288  0.00  0.00    +0.005 A 
ATOM     22  C   UNL     1     -18.625  -2.851  -5.210  0.00  0.00    +0.000 A 
ATOM     23  C   UNL     1     -18.634  -3.956  -6.053  0.00  0.00    +0.007 A 
BRANCH   3   2
ATOM      1  O   UNL     1     -16.623  -6.818  -6.904  0.00  0.00    -0.241 OA
ATOM      2  C   UNL     1     -17.595  -6.083  -6.862  0.00  0.00    +0.388 C 
ATOM     24  O   UNL     1     -18.647  -6.337  -7.631  0.00  0.00    -0.241 OA
ENDBRANCH   3   2
ENDBRANCH   6   5
BRANCH   7   8
ATOM      8  C   UNL     1     -14.230  -2.060  -1.760  0.00  0.00    +0.108 A 
ATOM      9  C   UNL     1     -14.226  -2.706  -0.538  0.00  0.00    +0.154 A 
ATOM     10  C   UNL     1     -13.210  -2.512   0.384  0.00  0.00    +0.038 A 
ATOM     11  C   UNL     1     -12.169  -1.632   0.098  0.00  0.00    +0.006 A 
ATOM     12  C   UNL     1     -12.179  -0.970  -1.122  0.00  0.00    +0.036 A 
ATOM     19  C   UNL     1     -13.202  -1.173  -2.047  0.00  0.00    +0.022 A 
BRANCH  12  13
ATOM     13  C   UNL     1     -11.070  -0.040  -1.445  0.00  0.00    +0.173 C 
ATOM     14  O   UNL     1     -10.206   0.149  -0.601  0.00  0.00    -0.291 OA
ATOM     15  C   UNL     1     -11.031   0.588  -2.803  0.00  0.00    +0.077 C 
ENDBRANCH  12  13
BRANCH   9  16
ATOM     16  O   UNL     1     -15.242  -3.570  -0.266  0.00  0.00    -0.474 OA
BRANCH  16  17
ATOM     17  C   UNL     1     -15.158  -4.461   0.843  0.00  0.00    +0.206 C 
ATOM     18  C   UNL     1     -16.407  -5.307   0.798  0.00  0.00    +0.051 C 
ENDBRANCH  16  17
ENDBRANCH   9  16
ENDBRANCH   7   8
TORSDOF 6
