REMARK  Name = PAU
REMARK  6 active torsions:
REMARK  status: ('A' for Active; 'I' for Inactive)
REMARK    1  A    between atoms: C1_2  and  C2_3
REMARK    2  A    between atoms: C1_2  and  C5_6
REMARK    3  A    between atoms: C5_6  and  C6_8
REMARK    4  A    between atoms: N_10  and  C8_11
REMARK    5  A    between atoms: C8_11  and  C9_12
REMARK    6  A    between atoms: C9_12  and  C_13
REMARK                            x       y       z     vdW  Elec       q    Type
REMARK                         _______ _______ _______ _____ _____    ______ ____
ROOT
ATOM      7  C   UNL     1      26.729 -21.591 -17.862  0.00  0.00    +0.272 C 
ATOM      8  O   UNL     1      27.112 -22.750 -17.791  0.00  0.00    -0.271 OA
ATOM      9  N   UNL     1      25.798 -21.204 -18.906  0.00  0.00    -0.203 NA
ENDROOT
BRANCH   7   5
ATOM      5  C   UNL     1      27.191 -20.532 -16.867  0.00  0.00    +0.231 C 
ATOM      6  O   UNL     1      26.359 -19.427 -17.063  0.00  0.00    -0.213 OA
BRANCH   5   3
ATOM      3  C   UNL     1      28.671 -20.102 -16.943  0.00  0.00    +0.067 C 
ATOM      4  C   UNL     1      28.945 -19.021 -15.915  0.00  0.00    +0.006 C 
ATOM     15  C   UNL     1      28.976 -19.565 -18.314  0.00  0.00    +0.006 C 
BRANCH   3   2
ATOM      1  O   UNL     1      29.278 -21.884 -15.446  0.00  0.00    -0.220 OA
ATOM      2  C   UNL     1      29.592 -21.267 -16.656  0.00  0.00    +0.185 C 
ENDBRANCH   3   2
ENDBRANCH   5   3
ENDBRANCH   7   5
BRANCH   9  10
ATOM     10  C   UNL     1      25.328 -22.189 -19.885  0.00  0.00    +0.127 C 
BRANCH  10  11
ATOM     11  C   UNL     1      26.290 -22.272 -21.048  0.00  0.00    +0.137 C 
BRANCH  11  12
ATOM     12  C   UNL     1      25.856 -23.410 -21.939  0.00  0.00    +0.367 C 
ATOM     13  O   UNL     1      26.191 -24.585 -21.654  0.00  0.00    -0.246 OA
ATOM     14  O   UNL     1      25.156 -23.189 -22.969  0.00  0.00    -0.246 OA
ENDBRANCH  11  12
ENDBRANCH  10  11
ENDBRANCH   9  10
TORSDOF 6
