REMARK  Name = 3nnw_ligand
REMARK  9 active torsions:
REMARK  status: ('A' for Active; 'I' for Inactive)
REMARK    1  A    between atoms: C1_1  and  N21_11
REMARK    2  A    between atoms: C5_5  and  C13_7
REMARK    3  A    between atoms: C13_7  and  C14_8
REMARK    4  A    between atoms: C24_13  and  C32_16
REMARK    5  A    between atoms: C26_15  and  N40_20
REMARK    6  A    between atoms: C32_16  and  C34_17
REMARK    7  A    between atoms: C32_16  and  C36_18
REMARK    8  A    between atoms: C32_16  and  C38_19
REMARK    9  A    between atoms: N43_22  and  C44_23
REMARK                            x       y       z     vdW  Elec       q    Type
REMARK                         _______ _______ _______ _____ _____    ______ ____
ROOT
ATOM      2  N   UNL     1      15.407  16.257  25.414  0.00  0.00    -0.105 N 
ATOM      3  C   UNL     1      15.660  14.955  25.659  0.00  0.00    +0.220 A 
ATOM     18  C   UNL     1      15.820  14.336  24.436  0.00  0.00    +0.003 A 
ATOM     19  C   UNL     1      15.680  15.333  23.498  0.00  0.00    -0.002 A 
ATOM     24  N   UNL     1      15.424  16.525  24.033  0.00  0.00    -0.165 NA
ENDROOT
BRANCH   2   1
ATOM      1  C   UNL     1      15.184  17.274  26.283  0.00  0.00    +0.122 A 
ATOM     25  C   UNL     1      14.219  18.251  26.016  0.00  0.00    +0.037 A 
ATOM     26  C   UNL     1      13.951  19.307  26.874  0.00  0.00    -0.026 A 
ATOM     33  C   UNL     1      14.667  19.450  28.049  0.00  0.00    -0.010 A 
ATOM     34  C   UNL     1      15.639  18.520  28.348  0.00  0.00    -0.010 A 
ATOM     35  C   UNL     1      15.884  17.472  27.465  0.00  0.00    +0.028 A 
BRANCH  26  27
ATOM     27  C   UNL     1      12.905  20.329  26.526  0.00  0.00    +0.201 C 
BRANCH  27  28
ATOM     28  C   UNL     1      13.533  21.607  25.978  0.00  0.00    +0.185 C 
ATOM     29  O   UNL     1      13.170  22.688  26.399  0.00  0.00    -0.394 OA
ATOM     30  N   UNL     1      14.448  21.482  25.017  0.00  0.00    -0.299 N 
ATOM     31  H   UNL     1      14.700  20.574  24.681  0.00  0.00    +0.182 HD
ATOM     32  H   UNL     1      14.883  22.296  24.632  0.00  0.00    +0.182 HD
ENDBRANCH  27  28
ENDBRANCH  26  27
ENDBRANCH   2   1
BRANCH   3   4
ATOM      4  N   UNL     1      15.673  14.455  26.934  0.00  0.00    -0.179 N 
ATOM      5  H   UNL     1      15.024  14.843  27.588  0.00  0.00    +0.234 HD
ATOM      6  C   UNL     1      16.485  13.490  27.372  0.00  0.00    +0.324 C 
ATOM      7  O   UNL     1      17.296  12.929  26.623  0.00  0.00    -0.379 OA
ATOM      8  N   UNL     1      16.310  13.158  28.688  0.00  0.00    -0.212 N 
ATOM      9  H   UNL     1      15.547  13.595  29.163  0.00  0.00    +0.227 HD
BRANCH   8  10
ATOM     10  C   UNL     1      17.073  12.289  29.420  0.00  0.00    +0.082 A 
ATOM     11  C   UNL     1      16.468  11.498  30.403  0.00  0.00    +0.073 A 
ATOM     12 CL   UNL     1      14.698  11.590  30.656  0.00  0.00    -0.083 Cl
ATOM     13  C   UNL     1      17.191  10.595  31.179  0.00  0.00    +0.041 A 
ATOM     14 CL   UNL     1      16.274   9.639  32.403  0.00  0.00    -0.074 Cl
ATOM     15  C   UNL     1      18.556  10.459  31.016  0.00  0.00    -0.014 A 
ATOM     16  C   UNL     1      19.192  11.248  30.063  0.00  0.00    -0.017 A 
ATOM     17  C   UNL     1      18.463  12.143  29.264  0.00  0.00    +0.010 A 
ENDBRANCH   8  10
ENDBRANCH   3   4
BRANCH  19  20
ATOM     20  C   UNL     1      15.762  15.104  21.995  0.00  0.00    -0.045 C 
ATOM     21  C   UNL     1      16.972  14.238  21.645  0.00  0.00    -0.045 C 
ATOM     22  C   UNL     1      14.524  14.336  21.532  0.00  0.00    -0.045 C 
ATOM     23  C   UNL     1      15.807  16.490  21.321  0.00  0.00    -0.045 C 
ENDBRANCH  19  20
TORSDOF 6
