REMARK  Name = 3R8M
REMARK  2 active torsions:
REMARK  status: ('A' for Active; 'I' for Inactive)
REMARK    1  A    between atoms: C_5  and  C_6
REMARK    2  A    between atoms: C_6  and  N_7
REMARK                            x       y       z     vdW  Elec       q    Type
REMARK                         _______ _______ _______ _____ _____    ______ ____
ROOT
ATOM      1  N   UNL     1     -91.116 -82.003 -86.705  0.00  0.00    -0.168 NA
ATOM      2  C   UNL     1     -91.344 -81.439 -85.536  0.00  0.00    +0.158 A 
ATOM      8  C   UNL     1     -92.454 -80.507 -85.610  0.00  0.00    +0.032 A 
ATOM      9  C   UNL     1     -93.168 -79.614 -84.732  0.00  0.00    +0.012 A 
ATOM     10  C   UNL     1     -94.264 -78.821 -85.219  0.00  0.00    +0.001 A 
ATOM     11  C   UNL     1     -94.667 -78.904 -86.590  0.00  0.00    +0.002 A 
ATOM     12  C   UNL     1     -93.978 -79.784 -87.485  0.00  0.00    +0.028 A 
ATOM     13  C   UNL     1     -92.888 -80.568 -86.990  0.00  0.00    +0.067 A 
ATOM     14  N   UNL     1     -92.029 -81.486 -87.568  0.00  0.00    -0.276 N 
ATOM     15  H   UNL     1     -92.079 -81.763 -88.600  0.00  0.00    +0.189 HD
ENDROOT
BRANCH   2   3
ATOM      3  C   UNL     1     -90.582 -81.695 -84.268  0.00  0.00    +0.305 C 
ATOM      4  O   UNL     1     -90.866 -81.120 -83.211  0.00  0.00    -0.265 OA
BRANCH   3   5
ATOM      5  N   UNL     1     -89.593 -82.585 -84.370  0.00  0.00    -0.082 NA
ATOM      6  N   UNL     1     -88.818 -82.923 -83.268  0.00  0.00    -0.211 NA
ATOM      7  H   UNL     1     -88.029 -83.639 -83.368  0.00  0.00    +0.209 HD
ENDBRANCH   3   5
ENDBRANCH   2   3
TORSDOF 2
