REMARK  Name = 5XY1
REMARK  5 active torsions:
REMARK  status: ('A' for Active; 'I' for Inactive)
REMARK    1  A    between atoms: C_1  and  N_21
REMARK    2  A    between atoms: C_9  and  O_26
REMARK    3  A    between atoms: C_13  and  C_14
REMARK    4  A    between atoms: C_14  and  C_15
REMARK    5  A    between atoms: O_26  and  C_27
REMARK                            x       y       z     vdW  Elec       q    Type
REMARK                         _______ _______ _______ _____ _____    ______ ____
ROOT
ATOM      2  N   UNL     1     -17.211   9.775 -18.899  0.00  0.00    -0.282 N 
ATOM      3  H   UNL     1     -16.755   8.808 -18.853  0.00  0.00    +0.155 HD
ATOM      4  C   UNL     1     -16.873  10.618 -20.063  0.00  0.00    +0.221 A 
ATOM      5  N   UNL     1     -17.564  11.732 -20.416  0.00  0.00    -0.210 NA
ATOM      6  C   UNL     1     -17.243  12.519 -21.523  0.00  0.00    +0.119 A 
ATOM      7  C   UNL     1     -16.137  12.103 -22.306  0.00  0.00    +0.040 A 
ATOM      8  C   UNL     1     -15.414  10.895 -21.908  0.00  0.00    +0.103 A 
ATOM      9  C   UNL     1     -15.731  12.854 -23.471  0.00  0.00    -0.001 A 
ATOM     10  C   UNL     1     -16.452  14.032 -23.843  0.00  0.00    -0.019 A 
ATOM     11  C   UNL     1     -17.578  14.463 -23.053  0.00  0.00    +0.034 A 
ATOM     15  C   UNL     1     -17.976  13.744 -21.900  0.00  0.00    +0.156 A 
ATOM     24  N   UNL     1     -15.835  10.218 -20.799  0.00  0.00    -0.212 NA
ENDROOT
BRANCH   2   1
ATOM      1  C   UNL     1     -18.086  10.126 -17.832  0.00  0.00    +0.052 A 
ATOM     25  C   UNL     1     -18.851  11.333 -17.781  0.00  0.00    +0.015 A 
ATOM     26  C   UNL     1     -19.686  11.599 -16.689  0.00  0.00    +0.004 A 
ATOM     27  C   UNL     1     -19.778  10.655 -15.612  0.00  0.00    +0.038 A 
ATOM     28  C   UNL     1     -20.506  10.600 -14.365  0.00  0.00    +0.121 A 
ATOM     29  N   UNL     1     -20.183   9.443 -13.740  0.00  0.00    -0.171 NA
ATOM     30  N   UNL     1     -19.310   8.779 -14.503  0.00  0.00    -0.276 N 
ATOM     31  H   UNL     1     -18.885   7.830 -14.249  0.00  0.00    +0.189 HD
ATOM     32  C   UNL     1     -19.028   9.472 -15.656  0.00  0.00    +0.077 A 
ATOM     33  C   UNL     1     -18.184   9.204 -16.763  0.00  0.00    +0.033 A 
ENDBRANCH   2   1
BRANCH  10  12
ATOM     12  C   UNL     1     -16.022  14.833 -25.087  0.00  0.00    +0.026 C 
BRANCH  12  13
ATOM     13  C   UNL     1     -14.568  15.283 -25.015  0.00  0.00    +0.005 C 
ATOM     14  C   UNL     1     -14.201  16.268 -26.134  0.00  0.00    +0.000 C 
ENDBRANCH  12  13
ENDBRANCH  10  12
BRANCH  15  16
ATOM     16  O   UNL     1     -19.149  14.240 -21.183  0.00  0.00    -0.478 OA
BRANCH  16  17
ATOM     17  C   UNL     1     -18.960  14.668 -19.828  0.00  0.00    +0.169 C 
ATOM     18  C   UNL     1     -20.274  14.572 -19.167  0.00  0.00    +0.061 C 
ATOM     19  C   UNL     1     -20.243  15.105 -17.739  0.00  0.00    +0.072 C 
ATOM     20  N   UNL     1     -19.642  16.462 -17.651  0.00  0.00    -0.297 NA
ATOM     21  H   UNL     1     -19.470  16.690 -16.620  0.00  0.00    +0.123 HD
ATOM     22  C   UNL     1     -18.374  16.585 -18.371  0.00  0.00    +0.072 C 
ATOM     23  C   UNL     1     -18.444  16.042 -19.809  0.00  0.00    +0.061 C 
ENDBRANCH  16  17
ENDBRANCH  15  16
TORSDOF 5
