REMARK  Name = 2r3o_ligand
REMARK  6 active torsions:
REMARK  status: ('A' for Active; 'I' for Inactive)
REMARK    1  A    between atoms: C01_1  and  C24_24
REMARK    2  A    between atoms: C07_7  and  C11_11
REMARK    3  A    between atoms: C09_9  and  N10_10
REMARK    4  A    between atoms: N10_10  and  C12_12
REMARK    5  A    between atoms: C12_12  and  C13_13
REMARK    6  A    between atoms: C24_24  and  O25_25
REMARK                            x       y       z     vdW  Elec       q    Type
REMARK                         _______ _______ _______ _____ _____    ______ ____
ROOT
ATOM      1  C   UNL     1      -0.054  30.216   7.749  0.00  0.00    +0.001 A 
ATOM      5  C   UNL     1       0.822  30.985   6.958  0.00  0.00    +0.044 A 
ATOM      6  N   UNL     1       1.917  30.315   6.584  0.00  0.00    -0.220 NA
ATOM      7  N   UNL     1       1.778  29.084   7.177  0.00  0.00    -0.120 N 
ATOM      8  C   UNL     1       2.695  28.004   7.119  0.00  0.00    +0.218 A 
ATOM     18  C   UNL     1       2.378  26.869   7.773  0.00  0.00    +0.059 A 
ATOM     19  C   UNL     1       1.098  26.852   8.528  0.00  0.00    +0.025 A 
ATOM     26  N   UNL     1       0.248  27.856   8.587  0.00  0.00    -0.298 NA
ATOM     27  C   UNL     1       0.602  28.995   7.895  0.00  0.00    +0.150 A 
ENDROOT
BRANCH  19  20
ATOM     20  C   UNL     1       0.804  25.588   9.279  0.00  0.00    -0.001 A 
ATOM     21  C   UNL     1       1.835  24.747   9.738  0.00  0.00    +0.017 A 
ATOM     22  C   UNL     1       1.525  23.576  10.451  0.00  0.00    +0.005 A 
ATOM     23  C   UNL     1       0.186  23.252  10.707  0.00  0.00    +0.006 A 
ATOM     24  C   UNL     1      -0.838  24.087  10.248  0.00  0.00    +0.005 A 
ATOM     25  C   UNL     1      -0.529  25.259   9.536  0.00  0.00    +0.017 A 
ENDBRANCH  19  20
BRANCH   8   9
ATOM      9  N   UNL     1       3.844  28.205   6.385  0.00  0.00    -0.259 N 
ATOM     10  H   UNL     1       3.807  28.978   5.705  0.00  0.00    +0.197 HD
BRANCH   9  11
ATOM     11  C   UNL     1       5.090  27.483   6.437  0.00  0.00    +0.218 C 
BRANCH  11  12
ATOM     12  C   UNL     1       5.165  26.426   5.385  0.00  0.00    +0.008 A 
ATOM     13  C   UNL     1       5.000  25.071   5.670  0.00  0.00    +0.030 A 
ATOM     14  C   UNL     1       5.069  24.130   4.654  0.00  0.00    +0.029 A 
ATOM     15  C   UNL     1       5.349  24.576   3.365  0.00  0.00    +0.081 A 
ATOM     16  N   UNL     1       5.531  25.879   3.049  0.00  0.00    -0.304 NA
ATOM     17  C   UNL     1       5.421  26.771   4.064  0.00  0.00    +0.091 A 
ENDBRANCH  11  12
ENDBRANCH   9  11
ENDBRANCH   8   9
BRANCH   1   2
ATOM      2  C   UNL     1      -1.383  30.608   8.292  0.00  0.00    +0.183 C 
BRANCH   2   3
ATOM      3  O   UNL     1      -1.346  30.908   9.687  0.00  0.00    -0.391 OA
ATOM      4  H   UNL     1      -2.216  31.151   9.981  0.00  0.00    +0.211 HD
ENDBRANCH   2   3
ENDBRANCH   1   2
TORSDOF 6
