REMARK  Name = 5DOS
REMARK  3 active torsions:
REMARK  status: ('A' for Active; 'I' for Inactive)
REMARK    1  A    between atoms: O_1  and  C_2
REMARK    2  A    between atoms: C_2  and  C_4
REMARK    3  A    between atoms: C_6  and  C_7
REMARK                            x       y       z     vdW  Elec       q    Type
REMARK                         _______ _______ _______ _____ _____    ______ ____
ROOT
ATOM      4  C   UNL     1      -6.496  -9.035  13.052  0.00  0.00    +0.070 A 
ATOM      5  C   UNL     1      -7.221  -9.235  11.849  0.00  0.00    +0.017 A 
ATOM      6  C   UNL     1      -7.354  -8.243  10.849  0.00  0.00    +0.011 A 
ATOM      7  C   UNL     1      -8.070  -8.510   9.714  0.00  0.00    +0.004 A 
ATOM      8  C   UNL     1      -8.687  -9.764   9.515  0.00  0.00    +0.040 A 
ATOM      9  C   UNL     1      -8.568 -10.738  10.479  0.00  0.00    +0.149 A 
ATOM     10  F   UNL     1      -9.143 -11.915  10.299  0.00  0.00    -0.203 F 
ATOM     11  C   UNL     1      -7.824 -10.497  11.684  0.00  0.00    +0.108 A 
ATOM     12  N   UNL     1      -7.739 -11.512  12.613  0.00  0.00    -0.244 NA
ATOM     13  C   UNL     1      -7.047 -11.278  13.727  0.00  0.00    +0.073 A 
ATOM     21  C   UNL     1      -6.400 -10.026  13.984  0.00  0.00    +0.044 A 
ENDROOT
BRANCH  13  14
ATOM     14  C   UNL     1      -6.964 -12.368  14.711  0.00  0.00    +0.001 A 
ATOM     15  C   UNL     1      -7.594 -13.592  14.466  0.00  0.00    +0.025 A 
ATOM     16  C   UNL     1      -7.484 -14.582  15.424  0.00  0.00    +0.018 A 
ATOM     17 BR   UNL     1      -8.354 -16.281  15.090  0.00  0.00    -0.050 Br
ATOM     18  C   UNL     1      -6.788 -14.427  16.607  0.00  0.00    +0.015 A 
ATOM     19  C   UNL     1      -6.165 -13.204  16.838  0.00  0.00    +0.002 A 
ATOM     20  C   UNL     1      -6.253 -12.184  15.899  0.00  0.00    +0.010 A 
ENDBRANCH  13  14
BRANCH   4   3
ATOM      3  C   UNL     1      -5.832  -7.737  13.304  0.00  0.00    +0.338 C 
ATOM     22  O   UNL     1      -4.698  -7.443  12.984  0.00  0.00    -0.245 OA
BRANCH   3   1
ATOM      1  O   UNL     1      -6.535  -6.775  13.947  0.00  0.00    -0.477 OA
ATOM      2  H   UNL     1      -6.040  -6.514  14.835  0.00  0.00    +0.295 HD
ENDBRANCH   3   1
ENDBRANCH   4   3
TORSDOF 3
