REMARK  Name = ADZ
REMARK  0 active torsions:
REMARK  status: ('A' for Active; 'I' for Inactive)
REMARK                            x       y       z     vdW  Elec       q    Type
REMARK                         _______ _______ _______ _____ _____    ______ ____
ROOT
ATOM      1  N   UNL     1      -8.659  43.359 134.635  0.00  0.00    -0.292 N 
ATOM      2  C   UNL     1      -8.058  42.694 135.613  0.00  0.00    +0.168 A 
ATOM      3  N   UNL     1      -6.865  42.895 136.301  0.00  0.00    -0.205 NA
ATOM      4  C   UNL     1      -6.426  42.060 137.305  0.00  0.00    +0.202 A 
ATOM      5  N   UNL     1      -7.210  40.983 137.646  0.00  0.00    -0.204 NA
ATOM      6  C   UNL     1      -8.422  40.713 137.007  0.00  0.00    +0.192 A 
ATOM      7  N   UNL     1      -9.142  39.635 137.393  0.00  0.00    -0.105 NA
ATOM      8  C   UNL     1      -8.903  41.578 135.953  0.00  0.00    +0.152 A 
ATOM      9  N   UNL     1      -9.965  41.638 135.146  0.00  0.00    -0.219 NA
ATOM     10  C   UNL     1      -9.825  42.723 134.338  0.00  0.00    +0.180 A 
ATOM     11  C   UNL     1      -8.097  44.604 133.987  0.00  0.00    +0.134 C 
ENDROOT
TORSDOF 0
