REMARK  Name = 1py5_ligand
REMARK  2 active torsions:
REMARK  status: ('A' for Active; 'I' for Inactive)
REMARK    1  A    between atoms: C1_1  and  C8_6
REMARK    2  A    between atoms: C2_2  and  C10_7
REMARK                            x       y       z     vdW  Elec       q    Type
REMARK                         _______ _______ _______ _____ _____    ______ ____
ROOT
ATOM      1  C   UNL     1       4.609   8.328   5.571  0.00  0.00    +0.028 A 
ATOM     12  C   UNL     1       4.276   7.656   6.764  0.00  0.00    +0.185 A 
ATOM     13  N   UNL     1       4.778   8.432   7.805  0.00  0.00    -0.207 N 
ATOM     14  H   UNL     1       4.675   8.179   8.798  0.00  0.00    +0.265 HD
ATOM     15  N   UNL     1       5.432   9.582   7.376  0.00  0.00    -0.197 NA
ATOM     16  C   UNL     1       5.352   9.557   6.002  0.00  0.00    +0.074 A 
ENDROOT
BRANCH   1   2
ATOM      2  C   UNL     1       4.263   7.846   4.149  0.00  0.00    -0.006 A 
ATOM      3  C   UNL     1       5.366   7.776   3.188  0.00  0.00    +0.026 A 
ATOM      4  C   UNL     1       5.137   7.347   1.847  0.00  0.00    +0.082 A 
ATOM      5  N   UNL     1       3.877   7.014   1.448  0.00  0.00    -0.309 NA
ATOM      6  C   UNL     1       2.740   7.035   2.285  0.00  0.00    +0.038 A 
ATOM      7  C   UNL     1       1.447   6.657   1.766  0.00  0.00    +0.020 A 
ATOM      8  C   UNL     1       0.279   6.668   2.594  0.00  0.00    +0.007 A 
ATOM      9  C   UNL     1       0.378   7.075   3.955  0.00  0.00    +0.005 A 
ATOM     10  C   UNL     1       1.656   7.471   4.512  0.00  0.00    +0.017 A 
ATOM     11  C   UNL     1       2.886   7.478   3.698  0.00  0.00    +0.007 A 
ENDBRANCH   1   2
BRANCH  16  17
ATOM     17  C   UNL     1       5.958  10.629   5.176  0.00  0.00    +0.059 A 
ATOM     18  C   UNL     1       5.376  11.198   3.970  0.00  0.00    +0.043 A 
ATOM     19  C   UNL     1       6.161  12.199   3.327  0.00  0.00    +0.030 A 
ATOM     20  C   UNL     1       7.462  12.614   3.855  0.00  0.00    +0.035 A 
ATOM     21  C   UNL     1       7.962  12.011   5.035  0.00  0.00    +0.091 A 
ATOM     22  N   UNL     1       7.220  11.077   5.625  0.00  0.00    -0.293 NA
ENDBRANCH  16  17
TORSDOF 2
