REMARK  Name = 5LVL
REMARK  0 active torsions:
REMARK  status: ('A' for Active; 'I' for Inactive)
REMARK                            x       y       z     vdW  Elec       q    Type
REMARK                         _______ _______ _______ _____ _____    ______ ____
ROOT
ATOM      1  C   UNL     1     -14.378  -7.983  -9.363  0.00  0.00    +0.001 A 
ATOM      2  C   UNL     1     -15.657  -7.647  -9.726  0.00  0.00    +0.001 A 
ATOM      3  C   UNL     1     -16.199  -6.399  -9.504  0.00  0.00    +0.012 A 
ATOM      4  C   UNL     1     -15.445  -5.405  -8.899  0.00  0.00    +0.032 A 
ATOM      5  C   UNL     1     -15.983  -4.048  -8.639  0.00  0.00    +0.195 A 
ATOM      6  O   UNL     1     -17.152  -3.715  -8.989  0.00  0.00    -0.287 OA
ATOM      7  C   UNL     1     -15.130  -3.060  -7.988  0.00  0.00    +0.034 A 
ATOM      8  C   UNL     1     -15.489  -1.772  -7.664  0.00  0.00    +0.012 A 
ATOM      9  C   UNL     1     -14.600  -0.915  -7.018  0.00  0.00    +0.003 A 
ATOM     10  C   UNL     1     -13.289  -1.295  -6.639  0.00  0.00    +0.028 A 
ATOM     11  C   UNL     1     -12.929  -2.601  -6.980  0.00  0.00    +0.067 A 
ATOM     12  N   UNL     1     -11.870  -3.442  -6.815  0.00  0.00    -0.276 N 
ATOM     13  H   UNL     1     -10.972  -3.164  -6.303  0.00  0.00    +0.189 HD
ATOM     14  N   UNL     1     -12.077  -4.731  -7.393  0.00  0.00    -0.173 NA
ATOM     15  C   UNL     1     -13.334  -4.772  -7.897  0.00  0.00    +0.102 A 
ATOM     16  C   UNL     1     -13.861  -3.465  -7.646  0.00  0.00    +0.038 A 
ATOM     17  C   UNL     1     -14.067  -5.780  -8.511  0.00  0.00    +0.014 A 
ATOM     18  C   UNL     1     -13.578  -7.037  -8.746  0.00  0.00    +0.011 A 
ENDROOT
TORSDOF 0
