REMARK  Name = 3zxz_ligand
REMARK  6 active torsions:
REMARK  status: ('A' for Active; 'I' for Inactive)
REMARK    1  A    between atoms: O28_1  and  C27_2
REMARK    2  A    between atoms: C27_2  and  C26_3
REMARK    3  A    between atoms: C26_3  and  N12_4
REMARK    4  A    between atoms: C10_8  and  C1_9
REMARK    5  A    between atoms: N9_12  and  C_18
REMARK    6  A    between atoms: C_18  and  C16_19
REMARK                            x       y       z     vdW  Elec       q    Type
REMARK                         _______ _______ _______ _____ _____    ______ ____
ROOT
ATOM      9  C   UNL     1      18.110  82.221   4.632  0.00  0.00    +0.055 A 
ATOM     10  C   UNL     1      17.702  81.242   5.581  0.00  0.00    +0.114 A 
ATOM     11  N   UNL     1      17.650  81.503   6.929  0.00  0.00    -0.271 NA
ATOM     12  C   UNL     1      18.022  82.761   7.272  0.00  0.00    +0.169 A 
ATOM     13  N   UNL     1      18.091  83.365   8.554  0.00  0.00    -0.175 NA
ATOM     14  N   UNL     1      18.506  84.578   8.367  0.00  0.00    -0.061 NA
ATOM     15  N   UNL     1      18.710  84.824   7.114  0.00  0.00    -0.127 N 
ATOM     27  C   UNL     1      18.414  83.695   6.369  0.00  0.00    +0.206 A 
ATOM     28  N   UNL     1      18.476  83.488   5.031  0.00  0.00    -0.258 NA
ENDROOT
BRANCH   9   8
ATOM      5  N   UNL     1      18.088  81.021   1.156  0.00  0.00    -0.196 N 
ATOM      6  N   UNL     1      18.476  82.233   0.963  0.00  0.00    -0.210 NA
ATOM      7  C   UNL     1      18.550  82.841   2.099  0.00  0.00    +0.080 A 
ATOM      8  C   UNL     1      18.162  81.920   3.164  0.00  0.00    +0.025 A 
ATOM     29  C   UNL     1      17.861  80.728   2.506  0.00  0.00    +0.182 A 
BRANCH   5   4
ATOM      4  C   UNL     1      17.913  80.057   0.067  0.00  0.00    +0.230 C 
BRANCH   4   3
ATOM      3  C   UNL     1      16.442  79.681  -0.118  0.00  0.00    +0.192 C 
BRANCH   3   1
ATOM      1  O   UNL     1      16.311  78.753  -1.175  0.00  0.00    -0.392 OA
ATOM      2  H   UNL     1      15.395  78.525  -1.283  0.00  0.00    +0.209 HD
ENDBRANCH   3   1
ENDBRANCH   4   3
ENDBRANCH   5   4
ENDBRANCH   9   8
BRANCH  15  16
ATOM     16  C   UNL     1      19.185  86.105   6.572  0.00  0.00    +0.276 C 
BRANCH  16  17
ATOM     17  C   UNL     1      20.652  85.988   6.152  0.00  0.00    -0.005 A 
ATOM     18  C   UNL     1      21.699  86.096   7.124  0.00  0.00    +0.014 A 
ATOM     19  C   UNL     1      23.074  85.986   6.734  0.00  0.00    +0.022 A 
ATOM     20  C   UNL     1      23.438  85.766   5.364  0.00  0.00    +0.042 A 
ATOM     21  N   UNL     1      24.762  85.669   5.046  0.00  0.00    -0.298 NA
ATOM     22  C   UNL     1      25.106  85.456   3.737  0.00  0.00    +0.093 A 
ATOM     23  C   UNL     1      24.146  85.330   2.687  0.00  0.00    +0.035 A 
ATOM     24  C   UNL     1      22.760  85.432   3.016  0.00  0.00    +0.037 A 
ATOM     25  C   UNL     1      22.379  85.655   4.376  0.00  0.00    -0.001 A 
ATOM     26  C   UNL     1      21.008  85.766   4.775  0.00  0.00    +0.012 A 
ENDBRANCH  16  17
ENDBRANCH  15  16
TORSDOF 6
