REMARK  Name = 1E8Z
REMARK  5 active torsions:
REMARK  status: ('A' for Active; 'I' for Inactive)
REMARK    1  A    between atoms: C_4  and  N_34
REMARK    2  A    between atoms: C_5  and  O_32
REMARK    3  A    between atoms: C_6  and  C_7
REMARK    4  A    between atoms: O_32  and  C_33
REMARK    5  A    between atoms: N_34  and  C_35
REMARK                            x       y       z     vdW  Elec       q    Type
REMARK                         _______ _______ _______ _____ _____    ______ ____
ROOT
ATOM      1  O   UNL     1      44.231  16.652  34.175  0.00  0.00    -0.328 OA
ATOM      2  C   UNL     1      42.832  16.524  33.698  0.00  0.00    +0.174 C 
ATOM      3  N   UNL     1      42.712  15.389  32.610  0.00  0.00    -0.307 N 
ATOM      4  C   UNL     1      41.561  14.540  32.265  0.00  0.00    +0.053 A 
ATOM      5  C   UNL     1      40.167  14.499  32.776  0.00  0.00    +0.026 A 
ATOM      6  C   UNL     1      39.220  13.562  32.265  0.00  0.00    +0.002 A 
ATOM      7  C   UNL     1      39.595  12.642  31.257  0.00  0.00    +0.001 A 
ATOM      8  C   UNL     1      40.927  12.634  30.732  0.00  0.00    +0.010 A 
ATOM      9  C   UNL     1      41.923  13.597  31.248  0.00  0.00    +0.008 A 
ATOM     10  C   UNL     1      43.256  13.855  30.967  0.00  0.00    +0.015 A 
ATOM     11  C   UNL     1      44.165  13.182  30.002  0.00  0.00    -0.008 A 
ATOM     12  C   UNL     1      43.987  12.044  29.025  0.00  0.00    +0.141 C 
ATOM     13  N   UNL     1      45.298  11.917  28.421  0.00  0.00    -0.307 N 
ATOM     14  H   UNL     1      45.523  11.184  27.674  0.00  0.00    +0.149 HD
ATOM     15  C   UNL     1      46.183  12.772  28.864  0.00  0.00    +0.245 C 
ATOM     16  O   UNL     1      47.343  12.812  28.471  0.00  0.00    -0.270 OA
ATOM     17  C   UNL     1      45.524  13.624  29.879  0.00  0.00    +0.052 A 
ATOM     18  C   UNL     1      46.013  14.762  30.717  0.00  0.00    +0.022 A 
ATOM     19  C   UNL     1      47.262  15.392  30.783  0.00  0.00    +0.009 A 
ATOM     20  C   UNL     1      48.552  15.224  30.116  0.00  0.00    +0.010 A 
ATOM     21  C   UNL     1      49.629  16.087  30.451  0.00  0.00    +0.001 A 
ATOM     22  C   UNL     1      49.477  17.104  31.432  0.00  0.00    +0.002 A 
ATOM     23  C   UNL     1      48.228  17.285  32.105  0.00  0.00    +0.026 A 
ATOM     24  C   UNL     1      47.098  16.412  31.778  0.00  0.00    +0.052 A 
ATOM     25  N   UNL     1      45.771  16.406  32.305  0.00  0.00    -0.312 N 
ATOM     26  C   UNL     1      45.120  15.418  31.676  0.00  0.00    +0.077 A 
ATOM     27  C   UNL     1      43.711  14.958  31.805  0.00  0.00    +0.077 A 
ATOM     28  C   UNL     1      42.122  16.082  35.020  0.00  0.00    +0.069 C 
ATOM     29  C   UNL     1      42.344  17.983  33.194  0.00  0.00    +0.187 C 
ATOM     32  C   UNL     1      43.315  18.737  32.206  0.00  0.00    +0.091 C 
ATOM     36  C   UNL     1      44.755  18.737  32.801  0.00  0.00    +0.076 C 
ATOM     37  C   UNL     1      45.245  17.342  33.384  0.00  0.00    +0.224 C 
ENDROOT
BRANCH  32  33
ATOM     33  N   UNL     1      43.356  18.142  30.848  0.00  0.00    -0.314 NA
ATOM     34  H   UNL     1      42.339  17.938  30.586  0.00  0.00    +0.122 HD
ATOM     35  C   UNL     1      43.941  18.824  29.691  0.00  0.00    +0.101 C 
ENDBRANCH  32  33
BRANCH  29  30
ATOM     30  O   UNL     1      40.975  17.941  32.642  0.00  0.00    -0.374 OA
ATOM     31  C   UNL     1      40.059  18.989  33.033  0.00  0.00    +0.194 C 
ENDBRANCH  29  30
TORSDOF 2
