REMARK  Name = 1H3
REMARK  3 active torsions:
REMARK  status: ('A' for Active; 'I' for Inactive)
REMARK    1  A    between atoms: C5_3  and  C9_8
REMARK    2  A    between atoms: C9_8  and  C10_9
REMARK    3  A    between atoms: C3_12  and  C2_16
REMARK                            x       y       z     vdW  Elec       q    Type
REMARK                         _______ _______ _______ _____ _____    ______ ____
ROOT
ATOM      1  C   UNL     1      29.840  15.738  -1.026  0.00  0.00    -0.001 A 
ATOM      2  C   UNL     1      30.197  16.197   0.257  0.00  0.00    +0.007 A 
ATOM      3  C   UNL     1      29.302  16.055   1.333  0.00  0.00    +0.042 A 
ATOM      4  C   UNL     1      28.073  15.495   1.082  0.00  0.00    +0.196 A 
ATOM      5  O   UNL     1      27.199  15.393   2.069  0.00  0.00    -0.287 OA
ATOM      6  C   UNL     1      27.666  15.040  -0.224  0.00  0.00    +0.041 A 
ATOM     14  C   UNL     1      28.552  15.147  -1.252  0.00  0.00    +0.015 A 
ENDROOT
BRANCH   2   7
ATOM      7  C   UNL     1      31.505  16.739   0.461  0.00  0.00    +0.050 A 
ATOM      8  C   UNL     1      31.855  18.005   1.058  0.00  0.00    +0.101 A 
ATOM      9  C   UNL     1      30.966  18.957   1.803  0.00  0.00    +0.056 C 
ATOM     10  N   UNL     1      33.161  18.155   0.867  0.00  0.00    -0.082 NA
ATOM     11  O   UNL     1      33.702  17.033   0.201  0.00  0.00    -0.358 OA
ATOM     12  C   UNL     1      32.716  16.171  -0.005  0.00  0.00    +0.154 A 
ATOM     13  C   UNL     1      33.103  14.830  -0.566  0.00  0.00    +0.075 C 
ENDBRANCH   2   7
BRANCH  14  15
ATOM     15  C   UNL     1      28.180  14.645  -2.653  0.00  0.00    +0.197 C 
ATOM     16  O   UNL     1      27.222  13.604  -2.546  0.00  0.00    -0.213 OA
BRANCH  15  17
ATOM     17  C   UNL     1      27.711  15.791  -3.497  0.00  0.00    +0.012 A 
ATOM     18  C   UNL     1      26.809  16.690  -3.008  0.00  0.00    -0.002 A 
ATOM     19  C   UNL     1      26.394  17.779  -3.746  0.00  0.00    -0.000 A 
ATOM     20  C   UNL     1      26.880  17.951  -5.001  0.00  0.00    -0.000 A 
ATOM     21  C   UNL     1      27.769  17.061  -5.515  0.00  0.00    -0.000 A 
ATOM     22  C   UNL     1      28.209  15.972  -4.767  0.00  0.00    -0.002 A 
ENDBRANCH  15  17
ENDBRANCH  14  15
TORSDOF 3
