REMARK  Name = DWT
REMARK  5 active torsions:
REMARK  status: ('A' for Active; 'I' for Inactive)
REMARK    1  A    between atoms: CBH_2  and  CBF_5
REMARK    2  A    between atoms: CBB_10  and  NAZ_11
REMARK    3  A    between atoms: CAY_12  and  CAV_14
REMARK    4  A    between atoms: CAR_20  and  NAC_21
REMARK    5  A    between atoms: C2_31  and  CAL_32
REMARK                            x       y       z     vdW  Elec       q    Type
REMARK                         _______ _______ _______ _____ _____    ______ ____
ROOT
ATOM      8  C   UNL     1       2.150  11.633 106.253  0.00  0.00    +0.057 A 
ATOM      9  C   UNL     1       1.052  11.853 107.085  0.00  0.00    +0.021 A 
ATOM     10  C   UNL     1       1.203  12.145 108.438  0.00  0.00    +0.069 A 
ATOM     28  C   UNL     1       2.475  12.241 109.016  0.00  0.00    -0.006 A 
ATOM     29  C   UNL     1       2.628  12.539 110.412  0.00  0.00    +0.032 C 
ATOM     30  C   UNL     1       3.587  12.026 108.189  0.00  0.00    -0.003 A 
ATOM     31  C   UNL     1       3.428  11.730 106.819  0.00  0.00    +0.004 A 
ENDROOT
BRANCH  10  11
ATOM     11  N   UNL     1       0.146  12.366 109.243  0.00  0.00    -0.184 NA
ATOM     12  C   UNL     1      -0.643  11.402 109.774  0.00  0.00    +0.209 C 
ATOM     13  N   UNL     1      -1.800  11.798 110.300  0.00  0.00    -0.368 NA
ATOM     14  C   UNL     1      -2.641  10.924 110.857  0.00  0.00    +0.208 C 
ATOM     21  N   UNL     1      -2.325   9.629 110.877  0.00  0.00    -0.163 NA
ATOM     22  C   UNL     1      -1.165   9.225 110.340  0.00  0.00    +0.179 A 
ATOM     23  N   UNL     1      -0.642   8.006 110.239  0.00  0.00    -0.152 NA
ATOM     24  N   UNL     1       0.447   8.091 109.650  0.00  0.00    -0.246 N 
ATOM     25  C   UNL     1       1.317   6.930 109.359  0.00  0.00    +0.154 C 
ATOM     26  C   UNL     1       0.700   9.360 109.343  0.00  0.00    +0.102 A 
ATOM     27  C   UNL     1      -0.321  10.096 109.776  0.00  0.00    +0.100 A 
BRANCH  14  15
ATOM     15  C   UNL     1      -3.840  11.372 111.397  0.00  0.00    +0.065 A 
ATOM     16  C   UNL     1      -4.704  10.478 112.028  0.00  0.00    +0.007 A 
ATOM     17  C   UNL     1      -5.910  10.959 112.542  0.00  0.00    +0.021 A 
ATOM     18  C   UNL     1      -6.253  12.305 112.404  0.00  0.00    +0.099 A 
ATOM     19  N   UNL     1      -5.389  13.202 111.768  0.00  0.00    -0.242 NA
ATOM     20  C   UNL     1      -4.189  12.711 111.253  0.00  0.00    +0.103 A 
ENDBRANCH  14  15
ENDBRANCH  10  11
BRANCH   8   7
ATOM      6  N   UNL     1       2.989  11.355 104.051  0.00  0.00    -0.175 NA
ATOM      7  C   UNL     1       1.909  11.379 104.882  0.00  0.00    +0.269 C 
ATOM     32  O   UNL     1       0.742  11.298 104.502  0.00  0.00    -0.268 OA
BRANCH   6   5
ATOM      3  C   UNL     1       1.850  11.666 100.485  0.00  0.00    +0.073 A 
ATOM      4  C   UNL     1       1.866  11.779 101.894  0.00  0.00    +0.021 A 
ATOM      5  C   UNL     1       2.904  11.239 102.685  0.00  0.00    +0.074 A 
ATOM     33  C   UNL     1       3.965  10.600 102.054  0.00  0.00    +0.017 A 
ATOM     34  C   UNL     1       3.969  10.466 100.659  0.00  0.00    +0.001 A 
ATOM     35  C   UNL     1       2.920  10.993  99.897  0.00  0.00    +0.004 A 
BRANCH   3   2
ATOM      1  F   UNL     1       1.118  12.235  98.474  0.00  0.00    -0.166 F 
ATOM      2  C   UNL     1       0.758  12.201  99.702  0.00  0.00    +0.419 C 
ATOM     36  F   UNL     1       0.536  13.240 100.114  0.00  0.00    -0.166 F 
ATOM     37  F   UNL     1      -0.093  11.489  99.872  0.00  0.00    -0.166 F 
ENDBRANCH   3   2
ENDBRANCH   6   5
ENDBRANCH   8   7
TORSDOF 5
