REMARK  Name = 4jr3_ligand
REMARK  8 active torsions:
REMARK  status: ('A' for Active; 'I' for Inactive)
REMARK    1  A    between atoms: C24_1  and  C23_2
REMARK    2  A    between atoms: N22_4  and  C20_5
REMARK    3  A    between atoms: C16_10  and  C15_11
REMARK    4  A    between atoms: C14_13  and  C26_14
REMARK    5  A    between atoms: N_26  and  CA_27
REMARK    6  A    between atoms: CA_27  and  C_28
REMARK    7  A    between atoms: CA_27  and  C7_30
REMARK    8  A    between atoms: C_28  and  O_29
REMARK                            x       y       z     vdW  Elec       q    Type
REMARK                         _______ _______ _______ _____ _____    ______ ____
ROOT
ATOM     10  C   UNL     1      51.876  21.032   0.169  0.00  0.00    +0.018 A 
ATOM     11  C   UNL     1      52.260  19.817  -0.266  0.00  0.00    +0.143 A 
ATOM     12  O   UNL     1      53.346  19.976  -0.981  0.00  0.00    -0.228 OA
ATOM     13  C   UNL     1      53.673  21.264  -1.011  0.00  0.00    +0.201 A 
ATOM     14  N   UNL     1      54.708  21.869  -1.621  0.00  0.00    -0.262 NA
ATOM     15  C   UNL     1      54.870  23.249  -1.518  0.00  0.00    +0.155 A 
ATOM     16  N   UNL     1      53.938  23.955  -0.779  0.00  0.00    -0.269 NA
ATOM     17  C   UNL     1      52.928  23.300  -0.179  0.00  0.00    +0.128 A 
ATOM     18  N   UNL     1      52.021  24.009   0.500  0.00  0.00    -0.284 N 
ATOM     19  H   UNL     1      51.093  23.587   0.648  0.00  0.00    +0.190 HD
ATOM     36  C   UNL     1      52.767  21.952  -0.292  0.00  0.00    +0.075 A 
ENDROOT
BRANCH  10   9
ATOM      5  C   UNL     1      49.953  22.110   3.104  0.00  0.00    +0.062 A 
ATOM      6  C   UNL     1      48.645  21.885   2.652  0.00  0.00    +0.002 A 
ATOM      7  C   UNL     1      48.429  21.356   1.378  0.00  0.00    -0.022 A 
ATOM      8  C   UNL     1      49.499  21.066   0.528  0.00  0.00    -0.030 A 
ATOM      9  C   UNL     1      50.808  21.299   0.952  0.00  0.00    -0.045 A 
ATOM     37  C   UNL     1      51.013  21.817   2.240  0.00  0.00    +0.004 A 
BRANCH   5   3
ATOM      1  C   UNL     1      50.026  23.073   6.686  0.00  0.00    +0.173 C 
ATOM      2  C   UNL     1      49.543  22.348   5.426  0.00  0.00    +0.200 C 
ATOM      3  N   UNL     1      50.252  22.642   4.310  0.00  0.00    -0.235 N 
ATOM      4  H   UNL     1      51.023  23.275   4.381  0.00  0.00    +0.225 HD
ATOM     38  O   UNL     1      48.588  21.574   5.493  0.00  0.00    -0.385 OA
ENDBRANCH   5   3
ENDBRANCH  10   9
BRANCH  11  30
ATOM     30  C   UNL     1      51.717  18.595  -0.090  0.00  0.00    +0.019 A 
ATOM     31  C   UNL     1      51.975  17.619  -1.063  0.00  0.00    +0.011 A 
ATOM     32  C   UNL     1      51.457  16.329  -0.942  0.00  0.00    +0.000 A 
ATOM     33  C   UNL     1      50.675  15.990   0.157  0.00  0.00    -0.001 A 
ATOM     34  C   UNL     1      50.415  16.945   1.134  0.00  0.00    +0.000 A 
ATOM     35  C   UNL     1      50.934  18.236   1.018  0.00  0.00    +0.011 A 
ENDBRANCH  11  30
BRANCH  18  20
ATOM     20  CA  UNL     1      52.261  25.361   1.054  0.00  0.00    +0.173 C 
BRANCH  20  21
ATOM     21  C   UNL     1      52.281  26.351   0.041  0.00  0.00    -0.015 A 
ATOM     22  C   UNL     1      52.826  27.601   0.334  0.00  0.00    -0.002 A 
ATOM     23  C   UNL     1      52.868  28.600  -0.639  0.00  0.00    -0.009 A 
ATOM     24  C   UNL     1      52.373  28.362  -1.920  0.00  0.00    -0.013 A 
ATOM     25  C   UNL     1      51.833  27.118  -2.229  0.00  0.00    -0.009 A 
ATOM     26  C   UNL     1      51.783  26.121  -1.254  0.00  0.00    -0.002 A 
ENDBRANCH  20  21
BRANCH  20  27
ATOM     27  C   UNL     1      51.136  25.617   2.044  0.00  0.00    +0.198 C 
BRANCH  27  28
ATOM     28  O   UNL     1      51.785  26.112   3.212  0.00  0.00    -0.391 OA
ATOM     29  H   UNL     1      51.135  26.296   3.880  0.00  0.00    +0.210 HD
ENDBRANCH  27  28
ENDBRANCH  20  27
ENDBRANCH  18  20
TORSDOF 7
