REMARK  Name = 6DUK
REMARK  5 active torsions:
REMARK  status: ('A' for Active; 'I' for Inactive)
REMARK    1  A    between atoms: C02_1  and  C09_5
REMARK    2  A    between atoms: C09_5  and  C32_24
REMARK    3  A    between atoms: C09_5  and  N10_33
REMARK    4  A    between atoms: C14_9  and  C15_10
REMARK    5  A    between atoms: C18_13  and  N19_34
REMARK                            x       y       z     vdW  Elec       q    Type
REMARK                         _______ _______ _______ _____ _____    ______ ____
ROOT
ATOM     10  N   UNL     1      40.178  90.385 -61.915  0.00  0.00    -0.250 N 
ATOM     11  C   UNL     1      41.467  89.837 -61.532  0.00  0.00    +0.000 C 
ATOM     12  C   UNL     1      42.232  90.962 -61.180  0.00  0.00    +0.000 A 
ATOM     13  C   UNL     1      43.489  91.054 -60.733  0.00  0.00    -0.130 A 
ATOM     14  C   UNL     1      44.073  92.284 -60.420  0.00  0.00    -0.130 A 
ATOM     15  C   UNL     1      43.333  93.444 -60.602  0.00  0.00    +0.000 A 
ATOM     28  C   UNL     1      42.017  93.306 -61.060  0.00  0.00    -0.130 A 
ATOM     29  C   UNL     1      41.502  92.092 -61.349  0.00  0.00    +0.000 A 
ATOM     30  C   UNL     1      40.293  91.731 -61.796  0.00  0.00    +0.600 C 
ATOM     31  O   UNL     1      39.397  92.545 -62.038  0.00  0.00    -0.550 OA
ENDROOT
BRANCH  15  16
ATOM     16  C   UNL     1      43.886  94.689 -60.254  0.00  0.00    +0.000 A 
ATOM     17  C   UNL     1      45.233  94.832 -59.931  0.00  0.00    -0.130 A 
ATOM     18  C   UNL     1      45.760  96.073 -59.545  0.00  0.00    -0.130 A 
ATOM     19  C   UNL     1      44.934  97.195 -59.456  0.00  0.00    +0.000 A 
ATOM     26  C   UNL     1      43.575  97.043 -59.729  0.00  0.00    -0.130 A 
ATOM     27  C   UNL     1      43.056  95.810 -60.117  0.00  0.00    -0.130 A 
BRANCH  19  20
ATOM     20  N   UNL     1      45.400  98.394 -59.028  0.00  0.00    -0.400 N 
ATOM     21  C   UNL     1      44.645  99.575 -59.505  0.00  0.00    +0.100 C 
ATOM     22  C   UNL     1      45.055 100.813 -58.667  0.00  0.00    +0.100 C 
ATOM     23  N   UNL     1      46.511 101.046 -58.771  0.00  0.00    -0.750 NA
ATOM     24  C   UNL     1      47.255  99.847 -58.366  0.00  0.00    +0.100 C 
ATOM     25  C   UNL     1      46.845  98.636 -59.217  0.00  0.00    +0.100 C 
ENDBRANCH  19  20
ENDBRANCH  15  16
BRANCH  10   9
ATOM      9  C   UNL     1      38.926  89.707 -62.378  0.00  0.00    +0.050 C 
BRANCH   9   1
ATOM      1  C   UNL     1      39.051  89.525 -63.877  0.00  0.00    +0.600 C 
ATOM      2  O   UNL     1      40.112  89.112 -64.343  0.00  0.00    -0.550 OA
ATOM      3  N   UNL     1      37.954  89.837 -64.604  0.00  0.00    -0.350 NA
ATOM      4  C   UNL     1      38.000  89.676 -65.939  0.00  0.00    +0.150 A 
ATOM      5  S   UNL     1      39.230  88.926 -66.905  0.00  0.00    +0.000 S 
ATOM      6  C   UNL     1      38.457  89.201 -68.337  0.00  0.00    -0.100 A 
ATOM      7  C   UNL     1      37.300  89.845 -68.067  0.00  0.00    +0.000 A 
ATOM      8  N   UNL     1      37.042  90.095 -66.767  0.00  0.00    -0.200 NA
ENDBRANCH   9   1
BRANCH   9  32
ATOM     32  C   UNL     1      38.571  88.474 -61.725  0.00  0.00    +0.000 A 
ATOM     33  C   UNL     1      38.499  88.359 -60.334  0.00  0.00    +0.250 A 
ATOM     34  O   UNL     1      38.803  89.465 -59.591  0.00  0.00    -0.650 OA
ATOM     35  C   UNL     1      38.117  87.174 -59.705  0.00  0.00    -0.130 A 
ATOM     36  C   UNL     1      37.787  86.064 -60.460  0.00  0.00    -0.130 A 
ATOM     37  C   UNL     1      37.840  86.160 -61.846  0.00  0.00    +0.300 A 
ATOM     38  F   UNL     1      37.508  85.052 -62.577  0.00  0.00    -0.300 F 
ATOM     39  C   UNL     1      38.232  87.346 -62.482  0.00  0.00    -0.130 A 
ENDBRANCH   9  32
ENDBRANCH  10   9
TORSDOF 5
