REMARK  Name = 1wbv_ligand
REMARK  3 active torsions:
REMARK  status: ('A' for Active; 'I' for Inactive)
REMARK    1  A    between atoms: C4_4  and  N21_20
REMARK    2  A    between atoms: C6_6  and  C8_8
REMARK    3  A    between atoms: N10_10  and  C11_11
REMARK                            x       y       z     vdW  Elec       q    Type
REMARK                         _______ _______ _______ _____ _____    ______ ____
ROOT
ATOM      5  C   UNL     1       5.670  14.610  35.240  0.00  0.00    +0.225 C 
ATOM      6  N   UNL     1       6.231  14.522  34.000  0.00  0.00    -0.241 N 
ATOM      7  H   UNL     1       7.015  15.110  33.800  0.00  0.00    +0.222 HD
ATOM     18  O   UNL     1       4.717  13.915  35.576  0.00  0.00    -0.375 OA
ENDROOT
BRANCH   6   8
ATOM      8  C   UNL     1       5.777  13.653  32.975  0.00  0.00    +0.048 A 
ATOM      9  C   UNL     1       6.710  12.889  32.289  0.00  0.00    -0.020 A 
ATOM     10  C   UNL     1       6.288  12.029  31.262  0.00  0.00    -0.043 A 
ATOM     11  C   UNL     1       6.981  11.111  30.367  0.00  0.00    -0.042 A 
ATOM     12  C   UNL     1       6.063  10.535  29.584  0.00  0.00    +0.111 A 
ATOM     13  N   UNL     1       4.822  11.018  29.894  0.00  0.00    -0.286 N 
ATOM     14  H   UNL     1       3.945  10.742  29.430  0.00  0.00    +0.224 HD
ATOM     15  C   UNL     1       4.924  11.935  30.926  0.00  0.00    +0.051 A 
ATOM     16  C   UNL     1       3.995  12.719  31.621  0.00  0.00    +0.001 A 
ATOM     17  C   UNL     1       4.425  13.569  32.622  0.00  0.00    -0.007 A 
ENDBRANCH   6   8
BRANCH   5   4
ATOM      1  F   UNL     1       8.405  18.491  36.483  0.00  0.00    -0.186 F 
ATOM      2  C   UNL     1       7.635  17.441  36.840  0.00  0.00    +0.126 A 
ATOM      3  C   UNL     1       7.081  16.618  35.869  0.00  0.00    +0.033 A 
ATOM      4  C   UNL     1       6.271  15.539  36.244  0.00  0.00    +0.042 A 
ATOM     19  C   UNL     1       6.037  15.296  37.602  0.00  0.00    +0.025 A 
ATOM     20  C   UNL     1       6.585  16.128  38.584  0.00  0.00    +0.044 A 
ATOM     27  C   UNL     1       7.403  17.195  38.181  0.00  0.00    +0.046 A 
BRANCH  20  21
ATOM     21  N   UNL     1       6.375  15.882  39.959  0.00  0.00    -0.304 N 
ATOM     22  C   UNL     1       6.145  17.080  40.789  0.00  0.00    +0.157 C 
ATOM     23  C   UNL     1       6.344  16.672  42.246  0.00  0.00    +0.183 C 
ATOM     24  O   UNL     1       5.360  15.682  42.574  0.00  0.00    -0.376 OA
ATOM     25  C   UNL     1       5.599  14.492  41.804  0.00  0.00    +0.183 C 
ATOM     26  C   UNL     1       5.461  14.778  40.313  0.00  0.00    +0.157 C 
ENDBRANCH  20  21
ENDBRANCH   5   4
TORSDOF 3
