REMARK  Name = 4d2t_ligand
REMARK  8 active torsions:
REMARK  status: ('A' for Active; 'I' for Inactive)
REMARK    1  A    between atoms: N1_1  and  C2_2
REMARK    2  A    between atoms: C2_2  and  C3_3
REMARK    3  A    between atoms: C3_3  and  C4_4
REMARK    4  A    between atoms: C4_4  and  O5_5
REMARK    5  A    between atoms: O5_5  and  C6_6
REMARK    6  A    between atoms: C8_8  and  C21_21
REMARK    7  A    between atoms: C11_11  and  C12_12
REMARK    8  A    between atoms: N14_14  and  C15_15
REMARK                            x       y       z     vdW  Elec       q    Type
REMARK                         _______ _______ _______ _____ _____    ______ ____
ROOT
ATOM      9  C   UNL     1       1.218  -1.696  -9.307  0.00  0.00    +0.107 A 
ATOM     10  C   UNL     1       1.694  -2.852  -8.672  0.00  0.00    +0.079 A 
ATOM     21  C   UNL     1       2.529  -2.704  -7.564  0.00  0.00    +0.008 A 
ATOM     22  C   UNL     1       2.876  -1.450  -7.101  0.00  0.00    -0.018 A 
ATOM     23  C   UNL     1       2.417  -0.300  -7.736  0.00  0.00    -0.040 A 
ATOM     30  C   UNL     1       1.577  -0.447  -8.833  0.00  0.00    +0.022 A 
ENDROOT
BRANCH  23  24
ATOM     24  C   UNL     1       2.755   1.040  -7.219  0.00  0.00    +0.002 A 
ATOM     25  C   UNL     1       2.638   2.251  -7.870  0.00  0.00    +0.168 A 
ATOM     26  N   UNL     1       3.038   3.191  -7.007  0.00  0.00    -0.215 N 
ATOM     27  H   UNL     1       3.067   4.198  -7.221  0.00  0.00    +0.261 HD
ATOM     28  N   UNL     1       3.399   2.658  -5.820  0.00  0.00    -0.215 NA
ATOM     29  C   UNL     1       3.217   1.352  -5.964  0.00  0.00    +0.075 A 
ENDBRANCH  23  24
BRANCH  10  11
ATOM     11  C   UNL     1       1.375  -4.264  -9.075  0.00  0.00    +0.223 C 
ATOM     12  N   UNL     1       0.280  -4.455  -9.853  0.00  0.00    -0.236 N 
ATOM     13  H   UNL     1      -0.301  -3.656 -10.011  0.00  0.00    +0.225 HD
ATOM     20  O   UNL     1       2.079  -5.197  -8.698  0.00  0.00    -0.382 OA
BRANCH  12  14
ATOM     14  C   UNL     1      -0.128  -5.664 -10.465  0.00  0.00    +0.066 A 
ATOM     15  C   UNL     1      -1.488  -5.903 -10.627  0.00  0.00    +0.009 A 
ATOM     16  C   UNL     1      -1.923  -7.071 -11.227  0.00  0.00    -0.018 A 
ATOM     17  C   UNL     1      -1.008  -8.003 -11.666  0.00  0.00    -0.028 A 
ATOM     18  C   UNL     1       0.340  -7.775 -11.510  0.00  0.00    -0.018 A 
ATOM     19  C   UNL     1       0.785  -6.610 -10.916  0.00  0.00    +0.009 A 
ENDBRANCH  12  14
ENDBRANCH  10  11
BRANCH   9   8
ATOM      8  O   UNL     1       0.375  -1.824 -10.410  0.00  0.00    -0.314 OA
BRANCH   8   7
ATOM      7  C   UNL     1      -0.762  -0.955 -10.530  0.00  0.00    +0.201 C 
BRANCH   7   6
ATOM      6  C   UNL     1      -0.387   0.290 -11.333  0.00  0.00    +0.084 C 
BRANCH   6   5
ATOM      5  C   UNL     1      -0.829   1.601 -10.689  0.00  0.00    +0.130 C 
BRANCH   5   1
ATOM      1  N   UNL     1      -0.234   2.780 -11.369  0.00  0.00    +0.219 N 
ATOM      2  H   UNL     1       0.771   2.726 -11.317  0.00  0.00    +0.199 HD
ATOM      3  H   UNL     1      -0.521   2.791 -12.335  0.00  0.00    +0.199 HD
ATOM      4  H   UNL     1      -0.549   3.624 -10.916  0.00  0.00    +0.199 HD
ENDBRANCH   5   1
ENDBRANCH   6   5
ENDBRANCH   7   6
ENDBRANCH   8   7
ENDBRANCH   9   8
TORSDOF 8
