REMARK  Name = 5otq
REMARK  8 active torsions:
REMARK  status: ('A' for Active; 'I' for Inactive)
REMARK    1  A    between atoms: C1_1  and  C2_3
REMARK    2  A    between atoms: C7_9  and  C8_10
REMARK    3  A    between atoms: C11_13  and  C12_14
REMARK    4  A    between atoms: C12_14  and  N_29
REMARK    5  A    between atoms: C13_15  and  C14_16
REMARK    6  A    between atoms: C13_15  and  N_29
REMARK    7  A    between atoms: C14_16  and  C15_17
REMARK    8  A    between atoms: C23_25  and  O_27
REMARK                            x       y       z     vdW  Elec       q    Type
REMARK                         _______ _______ _______ _____ _____    ______ ____
ROOT
ATOM      5  C   UNL     1    -108.038-175.128 312.354  0.00  0.00    +0.012 A 
ATOM      6  C   UNL     1    -108.535-173.820 312.385  0.00  0.00    +0.083 A 
ATOM      9  C   UNL     1    -109.907-173.580 312.347  0.00  0.00    +0.039 A 
ATOM     10  C   UNL     1    -110.817-174.635 312.337  0.00  0.00    -0.032 A 
ATOM     24  C   UNL     1    -110.324-175.931 312.356  0.00  0.00    +0.006 A 
ATOM     25  C   UNL     1    -108.961-176.177 312.366  0.00  0.00    +0.012 A 
ENDROOT
BRANCH   5   4
ATOM      3  C   UNL     1    -105.797-175.662 313.432  0.00  0.00    -0.040 A 
ATOM      4  C   UNL     1    -106.581-175.458 312.284  0.00  0.00    -0.013 A 
ATOM     26  C   UNL     1    -106.006-175.649 311.022  0.00  0.00    +0.009 A 
ATOM     27  C   UNL     1    -104.680-176.041 310.907  0.00  0.00    +0.001 A 
ATOM     28  C   UNL     1    -103.908-176.225 312.036  0.00  0.00    +0.000 A 
ATOM     29  C   UNL     1    -104.456-176.028 313.290  0.00  0.00    +0.004 A 
BRANCH   3   1
ATOM      1  C   UNL     1    -106.406-175.562 314.810  0.00  0.00    +0.033 C 
ATOM      2  C   UNL     1    -106.888-176.880 315.351  0.00  0.00    +0.009 C 
ENDBRANCH   3   1
ENDBRANCH   5   4
BRANCH   6   7
ATOM      7  O   UNL     1    -107.595-172.835 312.533  0.00  0.00    -0.349 OA
ATOM      8  C   UNL     1    -108.059-171.492 312.731  0.00  0.00    +0.203 C 
ENDBRANCH   6   7
BRANCH  10  11
ATOM     11  C   UNL     1    -112.304-174.380 312.311  0.00  0.00    +0.116 C 
BRANCH  11  12
ATOM     12  N   UNL     1    -112.992-175.312 311.417  0.00  0.00    -0.190 NA
BRANCH  12  13
ATOM     13  C   UNL     1    -114.453-175.120 311.376  0.00  0.00    +0.089 C 
BRANCH  13  14
ATOM     14  C   UNL     1    -114.992-176.083 310.340  0.00  0.00    +0.090 C 
BRANCH  14  15
ATOM     15  C   UNL     1    -116.464-176.315 310.401  0.00  0.00    +0.108 A 
ATOM     16  N   UNL     1    -117.057-177.391 309.916  0.00  0.00    -0.174 NA
ATOM     17  C   UNL     1    -118.420-177.112 309.973  0.00  0.00    +0.066 A 
ATOM     18  C   UNL     1    -119.514-177.858 309.536  0.00  0.00    +0.028 A 
ATOM     19  C   UNL     1    -120.787-177.316 309.662  0.00  0.00    +0.002 A 
ATOM     20  C   UNL     1    -120.972-176.048 310.221  0.00  0.00    +0.002 A 
ATOM     21  C   UNL     1    -119.887-175.300 310.662  0.00  0.00    +0.030 A 
ATOM     22  C   UNL     1    -118.616-175.849 310.527  0.00  0.00    +0.089 A 
ATOM     23  N   UNL     1    -117.344-175.367 310.802  0.00  0.00    -0.233 NA
ENDBRANCH  14  15
ENDBRANCH  13  14
ENDBRANCH  12  13
ENDBRANCH  11  12
ENDBRANCH  10  11
TORSDOF 8
