REMARK  Name = 3s4q_ligand
REMARK  7 active torsions:
REMARK  status: ('A' for Active; 'I' for Inactive)
REMARK    1  A    between atoms: N4_10  and  C15_22
REMARK    2  A    between atoms: C5_11  and  C7_14
REMARK    3  A    between atoms: N5_12  and  C23_30
REMARK    4  A    between atoms: C7_14  and  C8_15
REMARK    5  A    between atoms: C11_18  and  C12_19
REMARK    6  A    between atoms: C17_24  and  C22_29
REMARK    7  A    between atoms: C20_27  and  C21_28
REMARK                            x       y       z     vdW  Elec       q    Type
REMARK                         _______ _______ _______ _____ _____    ______ ____
ROOT
ATOM      5  C   UNL     1       1.670  -6.471  17.482  0.00  0.00    +0.028 A 
ATOM      6  C   UNL     1       2.077  -6.203  18.838  0.00  0.00    -0.022 A 
ATOM      7  C   UNL     1       2.261  -7.196  19.907  0.00  0.00    +0.059 C 
ATOM      8  C   UNL     1       2.163  -4.803  18.974  0.00  0.00    +0.155 A 
ATOM      9  C   UNL     1       2.454  -3.825  20.010  0.00  0.00    +0.168 A 
ATOM     10  N   UNL     1       3.106  -4.231  21.151  0.00  0.00    -0.248 N 
ATOM     11  H   UNL     1       3.403  -5.205  21.218  0.00  0.00    +0.219 HD
ATOM     26  N   UNL     1       2.239  -2.474  19.790  0.00  0.00    -0.278 NA
ATOM     27  C   UNL     1       1.840  -2.090  18.574  0.00  0.00    +0.179 A 
ATOM     28  N   UNL     1       1.608  -2.872  17.477  0.00  0.00    -0.169 NA
ATOM     29  N   UNL     1       1.765  -4.227  17.717  0.00  0.00    -0.165 N 
ATOM     30  C   UNL     1       1.490  -5.217  16.839  0.00  0.00    +0.162 A 
ENDROOT
BRANCH  10  12
ATOM     12  C   UNL     1       3.383  -3.376  22.226  0.00  0.00    +0.075 A 
ATOM     13  C   UNL     1       4.711  -2.924  22.445  0.00  0.00    -0.016 A 
ATOM     14  C   UNL     1       5.898  -3.579  21.783  0.00  0.00    +0.083 C 
ATOM     15  C   UNL     1       4.897  -1.896  23.370  0.00  0.00    -0.009 A 
ATOM     16  C   UNL     1       3.840  -1.347  24.076  0.00  0.00    -0.004 A 
ATOM     17  C   UNL     1       2.547  -1.828  23.894  0.00  0.00    +0.034 A 
ATOM     25  C   UNL     1       2.330  -2.851  22.975  0.00  0.00    +0.033 A 
BRANCH  17  18
ATOM     18  C   UNL     1       1.366  -1.305  24.649  0.00  0.00    +0.198 C 
ATOM     19  N   UNL     1       1.597  -0.315  25.527  0.00  0.00    -0.277 N 
ATOM     20  H   UNL     1       2.563  -0.055  25.727  0.00  0.00    +0.185 HD
ATOM     24  O   UNL     1       0.240  -1.761  24.456  0.00  0.00    -0.388 OA
BRANCH  19  21
ATOM     21  C   UNL     1       0.521   0.405  26.208  0.00  0.00    +0.143 C 
ATOM     22  C   UNL     1      -0.078  -0.164  27.424  0.00  0.00    +0.003 C 
ATOM     23  C   UNL     1       0.796   1.019  27.514  0.00  0.00    +0.003 C 
ENDBRANCH  19  21
ENDBRANCH  17  18
ENDBRANCH  10  12
BRANCH   5   4
ATOM      4  C   UNL     1       1.479  -7.818  16.749  0.00  0.00    +0.136 C 
ATOM     31  O   UNL     1       1.689  -8.879  17.337  0.00  0.00    -0.382 OA
BRANCH   4   3
ATOM      1  C   UNL     1      -0.219  -6.999  13.474  0.00  0.00    +0.007 A 
ATOM      2  C   UNL     1       0.015  -7.117  14.835  0.00  0.00    +0.023 A 
ATOM      3  C   UNL     1       1.103  -7.845  15.304  0.00  0.00    +0.029 A 
ATOM     32  C   UNL     1       1.913  -8.502  14.379  0.00  0.00    +0.023 A 
ATOM     33  C   UNL     1       1.663  -8.388  13.020  0.00  0.00    +0.007 A 
ATOM     34  C   UNL     1       0.602  -7.632  12.569  0.00  0.00    +0.008 A 
ENDBRANCH   4   3
ENDBRANCH   5   4
TORSDOF 5
