REMARK  Name = 4pqn_ligand
REMARK  11 active torsions:
REMARK  status: ('A' for Active; 'I' for Inactive)
REMARK    1  A    between atoms: C3_3  and  C7_7
REMARK    2  A    between atoms: C7_7  and  C8_8
REMARK    3  A    between atoms: C7_7  and  N13_13
REMARK    4  A    between atoms: C8_8  and  C9_9
REMARK    5  A    between atoms: C9_9  and  N10_10
REMARK    6  A    between atoms: N10_10  and  C11_11
REMARK    7  A    between atoms: N10_10  and  C12_12
REMARK    8  A    between atoms: C16_16  and  N18_18
REMARK    9  A    between atoms: C19_19  and  C21_21
REMARK   10  A    between atoms: C27_27  and  C30_30
REMARK   11  A    between atoms: C27_27  and  C31_31
REMARK                            x       y       z     vdW  Elec       q    Type
REMARK                         _______ _______ _______ _____ _____    ______ ____
ROOT
ATOM      7  N   UNL     1     -15.214  21.005  29.176  0.00  0.00    -0.208 N 
ATOM      8  C   UNL     1     -14.410  19.964  28.940  0.00  0.00    +0.139 A 
ATOM      9  C   UNL     1     -15.163  18.819  28.882  0.00  0.00    +0.073 A 
ATOM     26  C   UNL     1     -16.482  19.240  29.086  0.00  0.00    +0.082 A 
ATOM     27  N   UNL     1     -16.498  20.574  29.287  0.00  0.00    -0.223 NA
ENDROOT
BRANCH   9  10
ATOM     10  N   UNL     1     -14.646  17.558  28.634  0.00  0.00    -0.253 N 
ATOM     11  H   UNL     1     -13.671  17.512  28.415  0.00  0.00    +0.211 HD
ATOM     12  C   UNL     1     -15.298  16.411  28.655  0.00  0.00    +0.239 C 
ATOM     25  O   UNL     1     -16.507  16.314  28.832  0.00  0.00    -0.383 OA
BRANCH  12  13
ATOM     13  C   UNL     1     -14.489  15.167  28.537  0.00  0.00    +0.153 A 
ATOM     14  N   UNL     1     -13.155  15.053  28.606  0.00  0.00    -0.221 N 
ATOM     15  H   UNL     1     -12.484  15.824  28.732  0.00  0.00    +0.249 HD
ATOM     16  N   UNL     1     -12.843  13.712  28.478  0.00  0.00    -0.223 NA
ATOM     17  C   UNL     1     -13.930  12.945  28.329  0.00  0.00    +0.023 A 
ATOM     18  C   UNL     1     -14.050  11.470  28.163  0.00  0.00    +0.073 C 
ATOM     19  C   UNL     1     -15.473  11.007  28.432  0.00  0.00    -0.025 C 
ATOM     20  C   UNL     1     -15.760  10.977  29.942  0.00  0.00    +0.013 C 
ATOM     21  C   UNL     1     -15.620   9.600  27.890  0.00  0.00    +0.013 C 
ATOM     22  C   UNL     1     -16.515  11.929  27.781  0.00  0.00    +0.017 C 
ATOM     23  C   UNL     1     -16.482  13.372  28.245  0.00  0.00    +0.047 C 
ATOM     24  C   UNL     1     -15.058  13.840  28.395  0.00  0.00    -0.004 A 
ENDBRANCH  12  13
ENDBRANCH   9  10
BRANCH   7   6
ATOM      6  C   UNL     1     -14.836  22.438  29.384  0.00  0.00    +0.198 C 
BRANCH   6   5
ATOM      1  C   UNL     1     -14.612  22.141  33.169  0.00  0.00    -0.009 A 
ATOM      2  C   UNL     1     -13.464  22.859  33.432  0.00  0.00    -0.013 A 
ATOM      3  C   UNL     1     -12.743  23.428  32.377  0.00  0.00    -0.009 A 
ATOM      4  C   UNL     1     -13.203  23.280  31.065  0.00  0.00    -0.001 A 
ATOM      5  C   UNL     1     -14.385  22.594  30.804  0.00  0.00    -0.009 A 
ATOM     34  C   UNL     1     -15.053  21.985  31.842  0.00  0.00    -0.001 A 
ENDBRANCH   6   5
BRANCH   6  28
ATOM     28  C   UNL     1     -15.875  23.484  28.966  0.00  0.00    +0.103 C 
BRANCH  28  29
ATOM     29  C   UNL     1     -16.061  23.444  27.426  0.00  0.00    +0.136 C 
BRANCH  29  30
ATOM     30  N   UNL     1     -17.126  24.363  26.983  0.00  0.00    +0.231 N 
ATOM     31  H   UNL     1     -17.955  24.183  27.527  0.00  0.00    +0.203 HD
ATOM     32  C   UNL     1     -16.696  25.759  27.208  0.00  0.00    +0.190 C 
ATOM     33  C   UNL     1     -17.449  24.167  25.546  0.00  0.00    +0.190 C 
ENDBRANCH  29  30
ENDBRANCH  28  29
ENDBRANCH   6  28
ENDBRANCH   7   6
TORSDOF 7
