REMARK  Name = 4BM
REMARK  7 active torsions:
REMARK  status: ('A' for Active; 'I' for Inactive)
REMARK    1  A    between atoms: C01_1  and  N07_7
REMARK    2  A    between atoms: N07_7  and  C08_8
REMARK    3  A    between atoms: C09_9  and  C14_14
REMARK    4  A    between atoms: N15_15  and  O17_17
REMARK    5  A    between atoms: O17_17  and  C18_18
REMARK    6  A    between atoms: C18_18  and  C19_19
REMARK    7  A    between atoms: C19_19  and  C20_20
REMARK                            x       y       z     vdW  Elec       q    Type
REMARK                         _______ _______ _______ _____ _____    ______ ____
ROOT
ATOM      3  C   UNL     1      -1.256  56.655  33.976  0.00  0.00    +0.105 A 
ATOM      4  C   UNL     1      -0.261  55.745  33.691  0.00  0.00    +0.183 A 
ATOM      5  F   UNL     1       0.964  56.087  33.946  0.00  0.00    -0.200 F 
ATOM      6  C   UNL     1      -0.455  54.476  33.054  0.00  0.00    +0.169 A 
ATOM      7  F   UNL     1       0.628  53.668  32.768  0.00  0.00    -0.202 F 
ATOM      8  C   UNL     1      -1.738  54.034  32.721  0.00  0.00    +0.032 A 
ATOM      9  C   UNL     1      -2.772  54.929  33.055  0.00  0.00    +0.008 A 
ATOM     10  C   UNL     1      -2.541  56.212  33.626  0.00  0.00    +0.075 A 
ENDROOT
BRANCH  10  11
ATOM     11  C   UNL     1      -3.664  57.057  34.040  0.00  0.00    +0.291 C 
ATOM     12  O   UNL     1      -3.449  57.812  34.998  0.00  0.00    -0.266 OA
ATOM     13  N   UNL     1      -4.848  56.867  33.381  0.00  0.00    -0.058 NA
BRANCH  13  14
ATOM     14  O   UNL     1      -6.028  57.664  33.789  0.00  0.00    -0.241 OA
BRANCH  14  15
ATOM     15  C   UNL     1      -6.233  57.497  35.236  0.00  0.00    +0.209 C 
BRANCH  15  16
ATOM     16  C   UNL     1      -7.636  57.738  35.772  0.00  0.00    +0.217 C 
ATOM     19  O   UNL     1      -8.508  58.339  34.803  0.00  0.00    -0.218 OA
BRANCH  16  17
ATOM     17  C   UNL     1      -7.627  58.523  37.088  0.00  0.00    +0.218 C 
ATOM     18  O   UNL     1      -8.882  59.192  37.103  0.00  0.00    -0.218 OA
ENDBRANCH  16  17
ENDBRANCH  15  16
ENDBRANCH  14  15
ENDBRANCH  13  14
ENDBRANCH  10  11
BRANCH   3   2
ATOM      2  N   UNL     1      -1.016  57.978  34.497  0.00  0.00    -0.208 NA
BRANCH   2   1
ATOM      1  C   UNL     1      -0.086  58.908  33.944  0.00  0.00    +0.098 A 
ATOM     20  C   UNL     1       0.089  60.141  34.488  0.00  0.00    +0.156 A 
ATOM     21  F   UNL     1      -0.583  60.553  35.543  0.00  0.00    -0.203 F 
ATOM     22  C   UNL     1       0.991  61.035  33.959  0.00  0.00    +0.037 A 
ATOM     23  C   UNL     1       1.761  60.839  32.825  0.00  0.00    +0.032 A 
ATOM     24  I   UNL     1       3.061  62.447  32.285  0.00  0.00    -0.042 I 
ATOM     25  C   UNL     1       1.621  59.646  32.192  0.00  0.00    +0.007 A 
ATOM     26  C   UNL     1       0.713  58.721  32.757  0.00  0.00    +0.019 A 
ENDBRANCH   2   1
ENDBRANCH   3   2
TORSDOF 7
