REMARK  Name = 5OBR
REMARK  4 active torsions:
REMARK  status: ('A' for Active; 'I' for Inactive)
REMARK    1  A    between atoms: S_1  and  N_14
REMARK    2  A    between atoms: S_1  and  C_17
REMARK    3  A    between atoms: C_10  and  N_11
REMARK    4  A    between atoms: C_21  and  C_22
REMARK                            x       y       z     vdW  Elec       q    Type
REMARK                         _______ _______ _______ _____ _____    ______ ____
ROOT
ATOM      7  N   UNL     1       1.044 -33.378  -6.386  0.00  0.00    -0.282 N 
ATOM      8  H   UNL     1       0.478 -33.915  -7.118  0.00  0.00    +0.155 HD
ATOM      9  C   UNL     1       1.854 -32.370  -6.886  0.00  0.00    +0.241 A 
ATOM     10  N   UNL     1       2.618 -31.581  -6.150  0.00  0.00    -0.125 NA
ATOM     11  N   UNL     1       3.070 -30.668  -7.080  0.00  0.00    -0.161 N 
ATOM     12  C   UNL     1       3.890 -29.606  -6.676  0.00  0.00    +0.287 C 
ATOM     21  O   UNL     1       4.348 -28.831  -7.499  0.00  0.00    -0.265 OA
ATOM     22  C   UNL     1       2.559 -30.975  -8.317  0.00  0.00    +0.220 A 
ATOM     23  N   UNL     1       2.758 -30.231  -9.415  0.00  0.00    -0.327 N 
ATOM     24  H   UNL     1       3.395 -29.372  -9.371  0.00  0.00    +0.145 HD
ATOM     25  H   UNL     1       2.280 -30.496 -10.335  0.00  0.00    +0.145 HD
ATOM     26  N   UNL     1       1.796 -32.068  -8.220  0.00  0.00    -0.180 NA
ENDROOT
BRANCH  12  13
ATOM     13  C   UNL     1       4.498 -29.674  -5.299  0.00  0.00    +0.112 A 
ATOM     14  C   UNL     1       5.851 -29.904  -5.089  0.00  0.00    +0.139 A 
ATOM     15  C   UNL     1       6.434 -29.950  -3.846  0.00  0.00    +0.039 A 
ATOM     16  C   UNL     1       5.633 -29.763  -2.733  0.00  0.00    +0.006 A 
ATOM     17  C   UNL     1       4.274 -29.538  -2.881  0.00  0.00    +0.039 A 
ATOM     18  F   UNL     1       6.627 -30.098  -6.177  0.00  0.00    -0.205 F 
ATOM     19  C   UNL     1       3.749 -29.496  -4.145  0.00  0.00    +0.139 A 
ATOM     20  F   UNL     1       2.435 -29.233  -4.290  0.00  0.00    -0.205 F 
ENDBRANCH  12  13
BRANCH   7   5
ATOM      2  C   UNL     1       0.293 -34.538  -2.419  0.00  0.00    +0.105 A 
ATOM      3  C   UNL     1      -0.331 -35.196  -3.462  0.00  0.00    +0.030 A 
ATOM      4  C   UNL     1      -0.059 -34.821  -4.769  0.00  0.00    +0.025 A 
ATOM      5  C   UNL     1       0.856 -33.803  -5.038  0.00  0.00    +0.034 A 
ATOM      6  C   UNL     1       1.533 -33.203  -3.978  0.00  0.00    +0.025 A 
ATOM     27  C   UNL     1       1.252 -33.561  -2.670  0.00  0.00    +0.030 A 
BRANCH   2   1
ATOM      1  S   UNL     1      -0.230 -34.847  -0.757  0.00  0.00    +0.056 S 
ATOM     31  O   UNL     1       0.505 -33.968   0.091  0.00  0.00    -0.153 OA
ATOM     32  O   UNL     1      -1.663 -34.764  -0.728  0.00  0.00    -0.153 OA
BRANCH   1  28
ATOM     28  N   UNL     1       0.164 -36.355  -0.376  0.00  0.00    -0.203 NA
ATOM     29  H   UNL     1      -0.207 -36.585   0.601  0.00  0.00    +0.144 HD
ATOM     30  H   UNL     1      -0.267 -37.028  -1.088  0.00  0.00    +0.144 HD
ENDBRANCH   1  28
ENDBRANCH   2   1
ENDBRANCH   7   5
TORSDOF 4
