REMARK  Name = 2Z7S
REMARK  11 active torsions:
REMARK  status: ('A' for Active; 'I' for Inactive)
REMARK    1  A    between atoms: C_4  and  N_8
REMARK    2  A    between atoms: N_8  and  C_9
REMARK    3  A    between atoms: N_13  and  C_14
REMARK    4  A    between atoms: C_14  and  C_15
REMARK    5  A    between atoms: C_14  and  C_16
REMARK    6  A    between atoms: N_21  and  CA_22
REMARK    7  A    between atoms: CA_22  and  CB_23
REMARK    8  A    between atoms: CA_22  and  C_26
REMARK    9  A    between atoms: CB_23  and  CG1_24
REMARK   10  A    between atoms: CB_23  and  CG2_25
REMARK   11  A    between atoms: C_26  and  O_27
REMARK                            x       y       z     vdW  Elec       q    Type
REMARK                         _______ _______ _______ _____ _____    ______ ____
ROOT
ATOM      9  C   UNK A   0      -2.914  -2.858  25.590  0.00  0.00    +0.156 C 
ATOM     10  N   UNK A   0      -2.602  -4.130  25.179  0.00  0.00    -0.195 NA
ATOM     11  C   UNK A   0      -1.295  -4.549  25.017  0.00  0.00    +0.227 C 
ATOM     12  N   VAL A   1      -1.013  -5.821  24.607  0.00  0.00    -0.244 NA
ATOM     20  N   UNK A   0      -0.247  -3.679  25.268  0.00  0.00    -0.309 N 
ATOM     21  H   UNK A   0       0.770  -3.990  25.149  0.00  0.00    +0.170 HD
ATOM     22  C   UNK A   0      -0.558  -2.400  25.676  0.00  0.00    +0.145 C 
ATOM     23  N   UNK A   0       0.305  -1.419  25.964  0.00  0.00    -0.314 NA
ATOM     24  C   UNK A   0      -0.448  -0.344  26.321  0.00  0.00    +0.201 C 
ATOM     25  N   UNK A   0      -1.794  -0.649  26.262  0.00  0.00    -0.231 NA
ATOM     29  C   UNK A   0      -1.846  -1.966  25.849  0.00  0.00    +0.146 C 
ENDROOT
BRANCH  23  26
ATOM     26  C   UNK A   0       1.777  -1.706  25.824  0.00  0.00    +0.084 C 
ATOM     27  C   UNK A   0       2.592  -0.427  25.580  0.00  0.00    +0.030 C 
ATOM     28  C   UNK A   0       2.313  -2.555  26.974  0.00  0.00    +0.030 C 
ENDBRANCH  23  26
BRANCH   9   7
ATOM      7  N   UNK A   0      -4.207  -2.394  25.753  0.00  0.00    -0.297 N 
ATOM      8  H   UNK A   0      -4.308  -1.329  25.762  0.00  0.00    +0.154 HD
BRANCH   7   6
ATOM      1 CL   UNK A   0      -6.764  -6.914  26.124  0.00  0.00    -0.084 Cl
ATOM      2  C   UNK A   0      -6.760  -5.133  26.095  0.00  0.00    +0.043 A 
ATOM      3  C   UNK A   0      -7.958  -4.385  26.227  0.00  0.00    +0.020 A 
ATOM      4  C   UNK A   0      -7.878  -2.975  26.196  0.00  0.00    +0.003 A 
ATOM      5  C   UNK A   0      -6.604  -2.346  26.040  0.00  0.00    +0.023 A 
ATOM      6  C   UNK A   0      -5.392  -3.096  25.906  0.00  0.00    +0.034 A 
ATOM     30  C   UNK A   0      -5.498  -4.515  25.940  0.00  0.00    +0.043 A 
ENDBRANCH   7   6
ENDBRANCH   9   7
BRANCH  12  13
ATOM     13  CA  VAL A   1      -2.079  -6.775  24.244  0.00  0.00    +0.137 C 
BRANCH  13  17
ATOM     17  CB  VAL A   1      -1.696  -8.216  24.654  0.00  0.00    +0.010 C 
ATOM     18  CG2 VAL A   1      -2.862  -9.197  24.460  0.00  0.00    +0.009 C 
ATOM     19  CG1 VAL A   1      -1.151  -8.260  26.093  0.00  0.00    +0.009 C 
ENDBRANCH  13  17
BRANCH  13  14
ATOM     14  C   VAL A   1      -2.475  -6.628  22.758  0.00  0.00    +0.182 C 
BRANCH  14  15
ATOM     15  O   VAL A   1      -1.374  -6.815  21.872  0.00  0.00    -0.393 OA
ATOM     16  H   VAL A   1      -0.633  -6.100  22.078  0.00  0.00    +0.209 HD
ENDBRANCH  14  15
ENDBRANCH  13  14
ENDBRANCH  12  13
TORSDOF 7
