REMARK  Name = 3zm4_ligand
REMARK  2 active torsions:
REMARK  status: ('A' for Active; 'I' for Inactive)
REMARK    1  A    between atoms: C7_11  and  O9_12
REMARK    2  A    between atoms: O9_12  and  C5_13
REMARK                            x       y       z     vdW  Elec       q    Type
REMARK                         _______ _______ _______ _____ _____    ______ ____
ROOT
ATOM      1 CL   UNL     1     -19.019  25.290  -3.261  0.00  0.00    -0.082 Cl
ATOM      2  C   UNL     1     -19.153  27.008  -3.044  0.00  0.00    +0.068 A 
ATOM      3  C   UNL     1     -18.005  27.800  -3.032  0.00  0.00    +0.106 A 
ATOM     12  C   UNL     1     -18.133  29.177  -2.916  0.00  0.00    +0.030 A 
ATOM     13  C   UNL     1     -19.393  29.770  -2.813  0.00  0.00    -0.007 A 
ATOM     14  C   UNL     1     -19.548  31.200  -2.769  0.00  0.00    +0.199 C 
ATOM     15  C   UNL     1     -20.821  31.706  -2.760  0.00  0.00    +0.169 C 
ATOM     16  N   UNL     1     -21.936  30.928  -2.764  0.00  0.00    -0.251 NA
ATOM     17  C   UNL     1     -21.897  29.539  -2.760  0.00  0.00    +0.180 C 
ATOM     18  O   UNL     1     -22.918  28.877  -2.627  0.00  0.00    -0.385 OA
ATOM     19  C   UNL     1     -20.551  28.949  -2.810  0.00  0.00    +0.036 A 
ATOM     20  C   UNL     1     -20.410  27.566  -2.916  0.00  0.00    +0.022 A 
ENDROOT
BRANCH   3   4
ATOM      4  O   UNL     1     -16.808  27.127  -3.115  0.00  0.00    -0.306 OA
BRANCH   4   5
ATOM      5  C   UNL     1     -15.542  27.873  -3.108  0.00  0.00    +0.198 C 
ATOM      6  C   UNL     1     -14.523  26.880  -2.582  0.00  0.00    +0.093 C 
ATOM      7  C   UNL     1     -13.988  26.185  -3.856  0.00  0.00    +0.132 C 
ATOM      8  N   UNL     1     -14.097  27.173  -4.973  0.00  0.00    +0.229 N 
ATOM      9  H   UNL     1     -14.380  26.706  -5.820  0.00  0.00    +0.201 HD
ATOM     10  H   UNL     1     -13.209  27.627  -5.120  0.00  0.00    +0.201 HD
ATOM     11  C   UNL     1     -15.117  28.172  -4.580  0.00  0.00    +0.167 C 
ENDBRANCH   4   5
ENDBRANCH   3   4
TORSDOF 2
