REMARK  Name = 5IME
REMARK  8 active torsions:
REMARK  status: ('A' for Active; 'I' for Inactive)
REMARK    1  A    between atoms: C_5  and  N_13
REMARK    2  A    between atoms: C_7  and  C_16
REMARK    3  A    between atoms: C_10  and  C_11
REMARK    4  A    between atoms: N_24  and  C_27
REMARK    5  A    between atoms: C_27  and  C_28
REMARK    6  A    between atoms: C_28  and  C_29
REMARK    7  A    between atoms: C_29  and  N_30
REMARK    8  A    between atoms: N_31  and  C_32
REMARK                            x       y       z     vdW  Elec       q    Type
REMARK                         _______ _______ _______ _____ _____    ______ ____
ROOT
ATOM      5  C   UNL     1      17.472 -17.742  12.043  0.00  0.00    +0.049 C 
ATOM      6  C   UNL     1      16.305 -16.893  11.785  0.00  0.00    +0.261 C 
ATOM      7  O   UNL     1      16.230 -16.278  10.734  0.00  0.00    -0.267 OA
ATOM      8  N   UNL     1      15.317 -16.778  12.705  0.00  0.00    -0.292 N 
ATOM     15  C   UNL     1      15.382 -17.470  13.892  0.00  0.00    +0.148 A 
ATOM     16  N   UNL     1      14.412 -17.381  14.801  0.00  0.00    -0.196 NA
ATOM     17  C   UNL     1      14.488 -18.053  15.939  0.00  0.00    +0.217 A 
ATOM     18  N   UNL     1      13.469 -17.937  16.867  0.00  0.00    -0.317 N 
ATOM     19  H   UNL     1      13.543 -18.457  17.799  0.00  0.00    +0.149 HD
ATOM     20  C   UNL     1      12.290 -17.113  16.593  0.00  0.00    +0.128 C 
ATOM     21  N   UNL     1      15.516 -18.843  16.228  0.00  0.00    -0.222 NA
ATOM     22  C   UNL     1      16.518 -18.995  15.385  0.00  0.00    +0.126 A 
ATOM     23  C   UNL     1      16.486 -18.304  14.164  0.00  0.00    +0.036 A 
ATOM     24  C   UNL     1      17.539 -18.430  13.225  0.00  0.00    +0.027 C 
ENDROOT
BRANCH   5   4
ATOM      1  C   UNL     1      19.505 -18.828   9.050  0.00  0.00    +0.047 A 
ATOM      2  C   UNL     1      18.469 -18.729   9.967  0.00  0.00    +0.051 A 
ATOM      3 CL   UNL     1      17.037 -19.689   9.772  0.00  0.00    -0.083 Cl
ATOM      4  C   UNL     1      18.574 -17.857  11.052  0.00  0.00    +0.006 A 
ATOM     25  C   UNL     1      19.731 -17.087  11.198  0.00  0.00    +0.012 A 
ATOM     26  C   UNL     1      20.758 -17.189  10.282  0.00  0.00    +0.027 A 
ATOM     27  C   UNL     1      20.655 -18.053   9.195  0.00  0.00    +0.051 A 
BRANCH  27  28
ATOM     28  N   UNL     1      21.718 -18.156   8.278  0.00  0.00    -0.281 N 
ATOM     29  C   UNL     1      21.603 -17.789   6.978  0.00  0.00    +0.277 C 
ATOM     30  O   UNL     1      20.556 -17.344   6.540  0.00  0.00    -0.265 OA
ATOM     31  C   UNL     1      22.722 -17.926   6.120  0.00  0.00    +0.103 C 
ATOM     32  N   UNL     1      23.853 -18.403   6.582  0.00  0.00    -0.253 NA
ATOM     33  C   UNL     1      23.965 -18.762   7.857  0.00  0.00    +0.129 C 
ATOM     34  C   UNL     1      22.624 -17.526   4.670  0.00  0.00    +0.071 C 
ATOM     35  C   UNL     1      22.915 -18.644   8.707  0.00  0.00    +0.114 C 
ENDBRANCH  27  28
ENDBRANCH   5   4
BRANCH   8   9
ATOM      9  C   UNL     1      14.157 -15.922  12.421  0.00  0.00    +0.128 C 
BRANCH   9  10
ATOM     10  C   UNL     1      14.171 -14.638  13.265  0.00  0.00    +0.037 C 
BRANCH  10  11
ATOM     11  C   UNL     1      15.553 -13.978  13.250  0.00  0.00    +0.079 C 
BRANCH  11  12
ATOM     12  N   UNL     1      15.943 -13.652  11.870  0.00  0.00    -0.330 NA
ATOM     13  H   UNL     1      15.976 -14.549  11.287  0.00  0.00    +0.118 HD
ATOM     14  H   UNL     1      15.228 -12.978  11.447  0.00  0.00    +0.118 HD
ENDBRANCH  11  12
ENDBRANCH  10  11
ENDBRANCH   9  10
ENDBRANCH   8   9
TORSDOF 6
