REMARK  Name = K82
REMARK  16 active torsions:
REMARK  status: ('A' for Active; 'I' for Inactive)
REMARK    1  A    between atoms: C6_4  and  C7_5
REMARK    2  A    between atoms: C3_9  and  O_10
REMARK    3  A    between atoms: O_10  and  C2_11
REMARK    4  A    between atoms: C2_11  and  C1_12
REMARK    5  A    between atoms: C6_17  and  C7_18
REMARK    6  A    between atoms: C3_22  and  O_23
REMARK    7  A    between atoms: O_23  and  C2_24
REMARK    8  A    between atoms: C2_24  and  C1_25
REMARK    9  A    between atoms: C6_30  and  C7_31
REMARK   10  A    between atoms: C3_35  and  O_36
REMARK   11  A    between atoms: O_36  and  C2_37
REMARK   12  A    between atoms: C2_37  and  C1_38
REMARK   13  A    between atoms: C6_43  and  C7_44
REMARK   14  A    between atoms: C3_48  and  O_49
REMARK   15  A    between atoms: O_49  and  C2_50
REMARK   16  A    between atoms: C2_50  and  C1_51
REMARK                            x       y       z     vdW  Elec       q    Type
REMARK                         _______ _______ _______ _____ _____    ______ ____
ROOT
ATOM      1 CL   UNL     1       3.234 163.997 349.625  0.00  0.00    -0.079 Cl
ATOM      2  C   UNL     1       2.493 164.449 348.124  0.00  0.00    +0.091 A 
ATOM      3  C   UNL     1       1.112 164.542 348.040  0.00  0.00    +0.149 A 
ATOM      8  C   UNL     1       0.539 164.906 346.832  0.00  0.00    +0.037 A 
ATOM      9  C   UNL     1       1.344 165.166 345.739  0.00  0.00    +0.000 A 
ATOM     10  C   UNL     1       2.726 165.071 345.818  0.00  0.00    -0.002 A 
ATOM     13  C   UNL     1       3.294 164.708 347.032  0.00  0.00    +0.012 A 
ENDROOT
BRANCH  10  11
ATOM     11  C   UNL     1       3.601 165.335 344.633  0.00  0.00    +0.136 C 
ATOM     12  N   UNL     1       2.963 164.748 343.446  0.00  0.00    -0.126 NA
ENDBRANCH  10  11
BRANCH   3   4
ATOM      4  O   UNL     1       0.410 164.256 349.181  0.00  0.00    -0.475 OA
BRANCH   4   5
ATOM      5  C   UNL     1      -0.990 163.971 349.055  0.00  0.00    +0.205 C 
BRANCH   5   6
ATOM      6  C   UNL     1      -1.684 164.337 350.330  0.00  0.00    +0.047 C 
ATOM      7  C   UNL     1      -1.239 163.488 351.488  0.00  0.00    +0.004 C 
ENDBRANCH   5   6
ENDBRANCH   4   5
ENDBRANCH   3   4
TORSDOF 4
