REMARK  Name = FTU
REMARK  2 active torsions:
REMARK  status: ('A' for Active; 'I' for Inactive)
REMARK    1  A    between atoms: N_11  and  C4_12
REMARK    2  A    between atoms: C1_18  and  C_19
REMARK                            x       y       z     vdW  Elec       q    Type
REMARK                         _______ _______ _______ _____ _____    ______ ____
ROOT
ATOM      1  F   UNL     1      10.668  12.244  10.604  0.00  0.00    -0.202 F 
ATOM      2  C   UNL     1      11.503  11.899  11.612  0.00  0.00    +0.163 A 
ATOM      3  C   UNL     1      11.564  12.535  12.876  0.00  0.00    +0.098 A 
ATOM      4  C   UNL     1      12.577  11.864  13.590  0.00  0.00    +0.152 A 
ATOM      5  N   UNL     1      12.944  12.161  14.844  0.00  0.00    -0.206 NA
ATOM      6  C   UNL     1      12.263  13.189  15.363  0.00  0.00    +0.202 A 
ATOM      7  N   UNL     1      11.292  13.914  14.802  0.00  0.00    -0.205 NA
ATOM      8  N   UNL     1      13.094  10.875  12.796  0.00  0.00    -0.285 N 
ATOM     18  C   UNL     1      10.906  13.593  13.553  0.00  0.00    +0.176 A 
ATOM     19  N   UNL     1       9.930  14.303  12.999  0.00  0.00    -0.107 NA
ATOM     20  C   UNL     1      12.425  10.897  11.593  0.00  0.00    +0.109 A 
ENDROOT
BRANCH   8   9
ATOM      9  C1* UNL     1      14.165   9.963  13.190  0.00  0.00    +0.240 C 
ATOM     10  C2* UNL     1      13.675   8.747  13.978  0.00  0.00    +0.234 C 
ATOM     11  O2* UNL     1      14.693   8.337  14.892  0.00  0.00    -0.216 OA
ATOM     12  C3* UNL     1      13.432   7.745  12.850  0.00  0.00    +0.216 C 
ATOM     13  O3* UNL     1      13.464   6.385  13.297  0.00  0.00    -0.218 OA
ATOM     14  C4* UNL     1      14.591   8.039  11.906  0.00  0.00    +0.183 C 
ATOM     17  O4* UNL     1      14.783   9.466  12.018  0.00  0.00    -0.331 OA
BRANCH  14  15
ATOM     15  C5* UNL     1      14.394   7.652  10.461  0.00  0.00    +0.214 C 
ATOM     16  O5* UNL     1      13.189   8.174   9.897  0.00  0.00    -0.218 OA
ENDBRANCH  14  15
ENDBRANCH   8   9
TORSDOF 2
