REMARK  Name = 3r04_ligand
REMARK  5 active torsions:
REMARK  status: ('A' for Active; 'I' for Inactive)
REMARK    1  A    between atoms: C01_1  and  C13_13
REMARK    2  A    between atoms: C09_9  and  C10_10
REMARK    3  A    between atoms: C14_14  and  N19_19
REMARK    4  A    between atoms: N19_19  and  C20_20
REMARK    5  A    between atoms: C23_23  and  N26_26
REMARK                            x       y       z     vdW  Elec       q    Type
REMARK                         _______ _______ _______ _____ _____    ______ ____
ROOT
ATOM      2  C   UNL     1      23.416 -38.340   0.561  0.00  0.00    +0.059 A 
ATOM      3  C   UNL     1      23.645 -39.667   0.140  0.00  0.00    +0.110 A 
ATOM      4  N   UNL     1      23.790 -40.711   1.014  0.00  0.00    -0.288 NA
ATOM      5  C   UNL     1      23.770 -40.445   2.333  0.00  0.00    +0.137 A 
ATOM      6  C   UNL     1      23.614 -39.117   2.801  0.00  0.00    +0.138 A 
ATOM     19  N   UNL     1      23.442 -38.056   1.910  0.00  0.00    -0.261 NA
ENDROOT
BRANCH   2   1
ATOM      1  C   UNL     1      23.301 -37.315  -0.507  0.00  0.00    -0.009 A 
ATOM     20  C   UNL     1      23.747 -37.534  -1.844  0.00  0.00    -0.001 A 
ATOM     21  C   UNL     1      23.699 -36.573  -2.845  0.00  0.00    +0.032 A 
ATOM     22  C   UNL     1      23.257 -35.310  -2.379  0.00  0.00    +0.130 A 
ATOM     23  O   UNL     1      23.103 -34.169  -3.137  0.00  0.00    -0.244 OA
ATOM     24  C   UNL     1      22.547 -33.242  -2.252  0.00  0.00    +0.154 A 
ATOM     28  C   UNL     1      22.345 -33.673  -0.980  0.00  0.00    +0.013 A 
ATOM     29  C   UNL     1      22.795 -35.080  -1.066  0.00  0.00    -0.000 A 
ATOM     30  C   UNL     1      22.800 -36.059  -0.113  0.00  0.00    +0.006 A 
BRANCH  24  25
ATOM     25  C   UNL     1      22.352 -31.824  -2.751  0.00  0.00    +0.099 C 
ATOM     26  O   UNL     1      23.021 -31.663  -3.886  0.00  0.00    -0.558 OA
ATOM     27  O   UNL     1      21.843 -30.921  -2.061  0.00  0.00    -0.558 OA
ENDBRANCH  24  25
ENDBRANCH   2   1
BRANCH   6   7
ATOM      7  N   UNL     1      23.603 -38.818   4.171  0.00  0.00    -0.299 N 
ATOM      8  H   UNL     1      23.862 -39.525   4.874  0.00  0.00    +0.183 HD
BRANCH   7   9
ATOM      9  C   UNL     1      23.197 -37.422   4.577  0.00  0.00    +0.095 C 
ATOM     10  C   UNL     1      24.453 -36.487   4.447  0.00  0.00    +0.033 C 
ATOM     11  C   UNL     1      24.111 -35.068   4.904  0.00  0.00    +0.056 C 
ATOM     12  C   UNL     1      23.690 -35.052   6.389  0.00  0.00    +0.061 C 
ATOM     17  C   UNL     1      22.465 -35.983   6.592  0.00  0.00    +0.056 C 
ATOM     18  C   UNL     1      22.715 -37.430   6.066  0.00  0.00    +0.033 C 
BRANCH  12  13
ATOM     13  N   UNL     1      23.543 -33.736   6.935  0.00  0.00    +0.221 N 
ATOM     14  H   UNL     1      24.420 -33.244   6.868  0.00  0.00    +0.200 HD
ATOM     15  H   UNL     1      22.837 -33.235   6.419  0.00  0.00    +0.200 HD
ATOM     16  H   UNL     1      23.268 -33.803   7.903  0.00  0.00    +0.200 HD
ENDBRANCH  12  13
ENDBRANCH   7   9
ENDBRANCH   6   7
TORSDOF 5
