REMARK  Name = 2VGI
REMARK  9 active torsions:
REMARK  status: ('A' for Active; 'I' for Inactive)
REMARK    1  A    between atoms: P_1  and  O_5
REMARK    2  A    between atoms: O_5  and  C_6
REMARK    3  A    between atoms: C_6  and  C_7
REMARK    4  A    between atoms: C_7  and  O_8
REMARK    5  A    between atoms: C_9  and  O_10
REMARK    6  A    between atoms: C_11  and  O_12
REMARK    7  A    between atoms: C_13  and  C_15
REMARK    8  A    between atoms: C_15  and  O_16
REMARK    9  A    between atoms: O_16  and  P_17
REMARK                            x       y       z     vdW  Elec       q    Type
REMARK                         _______ _______ _______ _____ _____    ______ ____
ROOT
ATOM      4  C   UNL     1      27.819 -27.574  31.751  0.00  0.00    +0.221 C 
ATOM      5  O   UNL     1      28.429 -26.285  31.836  0.00  0.00    -0.336 OA
ATOM      6  C   UNL     1      28.874 -25.825  30.569  0.00  0.00    +0.179 C 
ATOM     13  C   UNL     1      28.136 -26.650  29.556  0.00  0.00    +0.179 C 
ATOM     16  C   UNL     1      28.002 -27.960  30.291  0.00  0.00    +0.207 C 
ENDROOT
BRANCH  13  14
ATOM     14  O   UNL     1      28.961 -26.841  28.429  0.00  0.00    -0.386 OA
ATOM     15  H   UNL     1      29.908 -27.172  28.740  0.00  0.00    +0.210 HD
ENDBRANCH  13  14
BRANCH  16  17
ATOM     17  O   UNL     1      26.941 -28.758  29.815  0.00  0.00    -0.384 OA
ATOM     18  H   UNL     1      26.885 -29.640  30.381  0.00  0.00    +0.210 HD
ENDBRANCH  16  17
BRANCH   4  19
ATOM     19  O   UNL     1      26.419 -27.523  32.119  0.00  0.00    -0.361 OA
ATOM     20  H   UNL     1      25.994 -28.477  32.012  0.00  0.00    +0.213 HD
ENDBRANCH   4  19
BRANCH   4   3
ATOM      3  C   UNL     1      28.516 -28.566  32.675  0.00  0.00    +0.231 C 
BRANCH   3   2
ATOM      2  O   UNL     1      29.890 -28.543  32.296  0.00  0.00    -0.362 OA
BRANCH   2   1
ATOM      1  P   UNL     1      30.965 -29.351  33.168  0.00  0.00    -0.015 P 
ATOM     21  O   UNL     1      32.263 -29.302  32.328  0.00  0.00    -0.577 OA
ATOM     22  O   UNL     1      31.163 -28.645  34.532  0.00  0.00    -0.577 OA
ATOM     23  O   UNL     1      30.392 -30.734  33.539  0.00  0.00    -0.638 OA
ENDBRANCH   2   1
ENDBRANCH   3   2
ENDBRANCH   4   3
BRANCH   6   7
ATOM      7  C   UNL     1      28.687 -24.313  30.425  0.00  0.00    +0.198 C 
BRANCH   7   8
ATOM      8  O   UNL     1      29.519 -23.778  29.392  0.00  0.00    -0.365 OA
BRANCH   8   9
ATOM      9  P   UNL     1      29.902 -22.213  29.508  0.00  0.00    -0.015 P 
ATOM     10  O   UNL     1      28.788 -21.398  30.184  0.00  0.00    -0.577 OA
ATOM     11  O   UNL     1      30.228 -21.783  28.103  0.00  0.00    -0.638 OA
ATOM     12  O   UNL     1      31.172 -21.987  30.337  0.00  0.00    -0.577 OA
ENDBRANCH   8   9
ENDBRANCH   7   8
ENDBRANCH   6   7
TORSDOF 9
