REMARK  Name = A9E
REMARK  4 active torsions:
REMARK  status: ('A' for Active; 'I' for Inactive)
REMARK    1  A    between atoms: C10_6  and  C9_7
REMARK    2  A    between atoms: C9_7  and  O1_16
REMARK    3  A    between atoms: C6_12  and  O1_16
REMARK    4  A    between atoms: C3_13  and  C2_14
REMARK                            x       y       z     vdW  Elec       q    Type
REMARK                         _______ _______ _______ _____ _____    ______ ____
ROOT
ATOM      7  C   UNL     1      -1.732  31.493 -24.029  0.00  0.00    +0.290 C 
ENDROOT
BRANCH   7   6
ATOM      1  C   UNL     1      -3.496  34.632 -25.228  0.00  0.00    +0.094 C 
ATOM      2  N   UNL     1      -2.772  33.667 -24.376  0.00  0.00    -0.277 N 
ATOM      3  C   UNL     1      -2.154  34.291 -23.170  0.00  0.00    +0.094 C 
ATOM      4  C   UNL     1      -1.543  35.634 -23.516  0.00  0.00    +0.022 C 
ATOM      5  C   UNL     1      -2.627  36.633 -23.924  0.00  0.00    +0.004 C 
ATOM      6  C   UNL     1      -2.750  32.379 -24.747  0.00  0.00    +0.270 C 
ATOM     17  O   UNL     1      -3.493  31.921 -25.623  0.00  0.00    -0.271 OA
ATOM     18  C   UNL     1      -3.860  35.891 -24.476  0.00  0.00    +0.022 C 
ENDBRANCH   7   6
BRANCH   7   8
ATOM      8  O   UNL     1      -1.970  30.102 -24.291  0.00  0.00    -0.466 OA
BRANCH   8   9
ATOM      9  C   UNL     1      -1.268  29.227 -23.505  0.00  0.00    +0.139 A 
ATOM     10  C   UNL     1      -0.391  29.884 -22.655  0.00  0.00    +0.037 A 
ATOM     11  C   UNL     1       0.428  29.170 -21.804  0.00  0.00    -0.001 A 
ATOM     12  C   UNL     1       0.379  27.783 -21.755  0.00  0.00    -0.022 A 
ATOM     15  C   UNL     1      -0.510  27.129 -22.610  0.00  0.00    -0.001 A 
ATOM     16  C   UNL     1      -1.328  27.835 -23.482  0.00  0.00    +0.037 A 
BRANCH  12  13
ATOM     13  C   UNL     1       1.294  27.016 -20.839  0.00  0.00    +0.026 C 
ATOM     14  C   UNL     1       1.241  25.579 -21.187  0.00  0.00    +0.005 C 
ENDBRANCH  12  13
ENDBRANCH   8   9
ENDBRANCH   7   8
TORSDOF 4
