REMARK  Name = 3v8s_ligand
REMARK  4 active torsions:
REMARK  status: ('A' for Active; 'I' for Inactive)
REMARK    1  A    between atoms: N12_2  and  C13_3
REMARK    2  A    between atoms: N03_9  and  C04_10
REMARK    3  A    between atoms: C04_10  and  C05_11
REMARK    4  A    between atoms: C05_11  and  C06_12
REMARK                            x       y       z     vdW  Elec       q    Type
REMARK                         _______ _______ _______ _____ _____    ______ ____
ROOT
ATOM      8  N   UNL     1     -45.899   3.613  32.965  0.00  0.00    -0.266 N 
ATOM      9  H   UNL     1     -46.733   3.131  33.233  0.00  0.00    +0.185 HD
ATOM     10  C   UNL     1     -45.550   3.745  31.596  0.00  0.00    +0.287 C 
ATOM     11  O   UNL     1     -44.519   4.330  31.305  0.00  0.00    -0.390 OA
ATOM     12  N   UNL     1     -46.418   3.146  30.634  0.00  0.00    -0.220 N 
ATOM     13  H   UNL     1     -47.206   2.653  31.003  0.00  0.00    +0.226 HD
ENDROOT
BRANCH  12  14
ATOM     14  C   UNL     1     -46.303   3.162  29.201  0.00  0.00    +0.068 A 
ATOM     15  C   UNL     1     -45.527   4.108  28.490  0.00  0.00    +0.025 A 
ATOM     16  C   UNL     1     -45.500   4.042  27.078  0.00  0.00    +0.019 A 
ATOM     17  C   UNL     1     -44.835   4.803  26.021  0.00  0.00    +0.242 A 
ATOM     18  N   UNL     1     -45.220   4.286  24.857  0.00  0.00    -0.246 N 
ATOM     19  H   UNL     1     -44.914   4.624  23.933  0.00  0.00    +0.293 HD
ATOM     20  N   UNL     1     -46.051   3.276  25.054  0.00  0.00    -0.343 NA
ATOM     21  C   UNL     1     -46.253   3.070  26.388  0.00  0.00    -0.031 A 
ATOM     22  C   UNL     1     -47.035   2.130  27.101  0.00  0.00    -0.015 A 
ATOM     23  C   UNL     1     -47.061   2.193  28.496  0.00  0.00    +0.009 A 
ENDBRANCH  12  14
BRANCH   8   7
ATOM      7  C   UNL     1     -45.038   4.181  33.954  0.00  0.00    +0.149 C 
BRANCH   7   6
ATOM      6  C   UNL     1     -45.192   3.677  35.345  0.00  0.00    +0.090 C 
BRANCH   6   3
ATOM      1  C   UNL     1     -43.713   0.210  35.523  0.00  0.00    -0.009 A 
ATOM      2  C   UNL     1     -43.847   1.570  35.282  0.00  0.00    -0.005 A 
ATOM      3  C   UNL     1     -45.040   2.212  35.593  0.00  0.00    -0.041 A 
ATOM      4  C   UNL     1     -46.092   1.491  36.142  0.00  0.00    -0.005 A 
ATOM      5  C   UNL     1     -45.954   0.128  36.379  0.00  0.00    -0.009 A 
ATOM     24  C   UNL     1     -44.763  -0.514  36.071  0.00  0.00    -0.013 A 
ENDBRANCH   6   3
ENDBRANCH   7   6
ENDBRANCH   8   7
TORSDOF 4
