REMARK  Name = 4XG3
REMARK  11 active torsions:
REMARK  status: ('A' for Active; 'I' for Inactive)
REMARK    1  A    between atoms: C_1  and  N_22
REMARK    2  A    between atoms: C_6  and  S_7
REMARK    3  A    between atoms: S_7  and  O_10
REMARK    4  A    between atoms: O_10  and  C_11
REMARK    5  A    between atoms: C_12  and  C_13
REMARK    6  A    between atoms: C_15  and  C_16
REMARK    7  A    between atoms: C_18  and  N_19
REMARK    8  A    between atoms: C_25  and  C_26
REMARK    9  A    between atoms: C_27  and  C_28
REMARK   10  A    between atoms: C_28  and  N_29
REMARK   11  A    between atoms: C_33  and  O_34
REMARK                            x       y       z     vdW  Elec       q    Type
REMARK                         _______ _______ _______ _____ _____    ______ ____
ROOT
ATOM      1  C   UNL     1      12.904  11.467   5.744  0.00  0.00    +0.163 A 
ATOM     16  N   UNL     1      14.082  11.960   5.291  0.00  0.00    -0.196 NA
ATOM     17  C   UNL     1      14.181  13.112   4.594  0.00  0.00    +0.221 A 
ATOM     18  N   UNL     1      15.353  13.622   4.154  0.00  0.00    -0.284 N 
ATOM     19  H   UNL     1      15.338  14.637   3.816  0.00  0.00    +0.155 HD
ATOM     33  N   UNL     1      13.057  13.819   4.360  0.00  0.00    -0.220 NA
ATOM     34  C   UNL     1      11.870  13.401   4.776  0.00  0.00    +0.156 A 
ATOM     35  C   UNL     1      11.751  12.218   5.494  0.00  0.00    +0.181 A 
ATOM     36  F   UNL     1      10.536  11.836   5.908  0.00  0.00    -0.200 F 
ENDROOT
BRANCH  18  20
ATOM     20  C   UNL     1      16.538  12.983   4.098  0.00  0.00    +0.034 A 
ATOM     21  C   UNL     1      16.816  11.783   4.769  0.00  0.00    +0.030 A 
ATOM     22  C   UNL     1      18.060  11.165   4.650  0.00  0.00    -0.004 A 
ATOM     23  C   UNL     1      18.265   9.855   5.416  0.00  0.00    +0.048 C 
ATOM     24  C   UNL     1      19.088  11.750   3.888  0.00  0.00    +0.162 A 
ATOM     25  C   UNL     1      18.813  12.953   3.209  0.00  0.00    -0.004 A 
ATOM     26  C   UNL     1      19.863  13.651   2.337  0.00  0.00    +0.048 C 
ATOM     32  C   UNL     1      17.561  13.559   3.332  0.00  0.00    +0.030 A 
BRANCH  24  27
ATOM     27  O   UNL     1      20.295  11.085   3.761  0.00  0.00    -0.346 OA
BRANCH  27  28
ATOM     28  S   UNL     1      21.495  11.539   4.401  0.00  0.00    +0.118 S 
ATOM     29  O   UNL     1      21.310  12.891   5.018  0.00  0.00    -0.137 OA
ATOM     30  O   UNL     1      22.573  11.633   3.363  0.00  0.00    -0.137 OA
ATOM     31  C   UNL     1      21.995  10.344   5.622  0.00  0.00    +0.242 C 
ENDBRANCH  27  28
ENDBRANCH  24  27
ENDBRANCH  18  20
BRANCH   1   2
ATOM      2  N   UNL     1      12.903  10.330   6.461  0.00  0.00    -0.305 N 
ATOM      3  C   UNL     1      11.857   9.682   7.013  0.00  0.00    +0.137 C 
ATOM      4  C   UNL     1      12.332   8.627   7.671  0.00  0.00    -0.053 C 
ATOM      5  C   UNL     1      13.709   8.614   7.548  0.00  0.00    -0.038 C 
ATOM     14  C   UNL     1      11.497   7.594   8.435  0.00  0.00    +0.040 C 
ATOM     15  C   UNL     1      14.019   9.673   6.805  0.00  0.00    +0.139 C 
BRANCH   5   6
ATOM      6  C   UNL     1      14.699   7.592   8.119  0.00  0.00    +0.116 C 
BRANCH   6   7
ATOM      7  N   UNL     1      15.213   8.025   9.429  0.00  0.00    -0.296 NA
ATOM      8  C   UNL     1      15.969   6.911  10.038  0.00  0.00    +0.087 C 
ATOM      9  C   UNL     1      17.395   7.414  10.202  0.00  0.00    +0.048 C 
ATOM     10  C   UNL     1      17.189   8.902  10.376  0.00  0.00    +0.130 C 
ATOM     13  C   UNL     1      16.137   9.173   9.332  0.00  0.00    +0.116 C 
BRANCH  10  11
ATOM     11  O   UNL     1      18.379   9.592  10.003  0.00  0.00    -0.391 OA
ATOM     12  H   UNL     1      18.705   9.247   9.066  0.00  0.00    +0.210 HD
ENDBRANCH  10  11
ENDBRANCH   6   7
ENDBRANCH   5   6
ENDBRANCH   1   2
TORSDOF 7
