REMARK  Name = 1y8p_ligand
REMARK  11 active torsions:
REMARK  status: ('A' for Active; 'I' for Inactive)
REMARK    1  A    between atoms: PG_1  and  O3B_8
REMARK    2  A    between atoms: PB_5  and  O3B_8
REMARK    3  A    between atoms: PB_5  and  O3A_12
REMARK    4  A    between atoms: PA_9  and  O3A_12
REMARK    5  A    between atoms: PA_9  and  O5_13
REMARK    6  A    between atoms: O5_13  and  C5_14
REMARK    7  A    between atoms: C5_14  and  C4_15
REMARK    8  A    between atoms: C3_17  and  O3_18
REMARK    9  A    between atoms: C2_19  and  O2_20
REMARK   10  A    between atoms: C1_21  and  N9_22
REMARK   11  A    between atoms: C6_26  and  N6_27
REMARK                            x       y       z     vdW  Elec       q    Type
REMARK                         _______ _______ _______ _____ _____    ______ ____
ROOT
ATOM      8  C   UNL     1     -47.102  15.804  69.406  0.00  0.00    +0.184 C 
ATOM      9  C   UNL     1     -46.372  17.101  69.839  0.00  0.00    +0.180 C 
ATOM     10  C   UNL     1     -46.306  17.912  68.578  0.00  0.00    +0.206 C 
ATOM     11  C   UNL     1     -47.581  17.484  67.866  0.00  0.00    +0.301 C 
ATOM     28  O   UNL     1     -48.082  16.265  68.482  0.00  0.00    -0.336 OA
ENDROOT
BRANCH  11  12
ATOM     12  N   UNL     1     -48.573  18.565  68.039  0.00  0.00    -0.192 N 
ATOM     13  C   UNL     1     -48.587  19.737  67.388  0.00  0.00    +0.161 A 
ATOM     14  N   UNL     1     -47.810  20.311  66.452  0.00  0.00    -0.271 NA
ATOM     15  C   UNL     1     -48.108  21.524  65.995  0.00  0.00    +0.153 A 
ATOM     16  N   UNL     1     -49.156  22.244  66.437  0.00  0.00    -0.270 NA
ATOM     17  C   UNL     1     -49.996  21.792  67.356  0.00  0.00    +0.130 A 
ATOM     21  C   UNL     1     -49.732  20.457  67.898  0.00  0.00    +0.105 A 
ATOM     22  N   UNL     1     -50.315  19.646  68.818  0.00  0.00    -0.296 NA
ATOM     23  C   UNL     1     -49.583  18.507  68.898  0.00  0.00    +0.247 A 
BRANCH  17  18
ATOM     18  N   UNL     1     -51.053  22.538  67.741  0.00  0.00    -0.315 N 
ATOM     19  H   UNL     1     -51.713  22.173  68.443  0.00  0.00    +0.182 HD
ATOM     20  H   UNL     1     -51.200  23.472  67.333  0.00  0.00    +0.182 HD
ENDBRANCH  17  18
ENDBRANCH  11  12
BRANCH  10  24
ATOM     24  O   UNL     1     -45.286  17.430  67.719  0.00  0.00    -0.384 OA
ATOM     25  H   UNL     1     -45.262  17.957  66.929  0.00  0.00    +0.210 HD
ENDBRANCH  10  24
BRANCH   9  26
ATOM     26  O   UNL     1     -45.086  16.761  70.332  0.00  0.00    -0.386 OA
ATOM     27  H   UNL     1     -44.631  17.551  70.600  0.00  0.00    +0.210 HD
ENDBRANCH   9  26
BRANCH   8   7
ATOM      7  C   UNL     1     -47.708  15.016  70.558  0.00  0.00    +0.243 C 
BRANCH   7   6
ATOM      6  O   UNL     1     -48.695  15.743  71.203  0.00  0.00    -0.244 OA
BRANCH   6   5
ATOM      5  P   UNL     1     -49.052  15.476  72.742  0.00  0.00    +0.327 P 
ATOM     29  O   UNL     1     -49.825  14.190  72.719  0.00  0.00    -0.569 OA
ATOM     30  O   UNL     1     -49.679  16.694  73.463  0.00  0.00    -0.569 OA
BRANCH   5   4
ATOM      4  O   UNL     1     -47.670  15.155  73.478  0.00  0.00    -0.117 OA
BRANCH   4   3
ATOM      3  P   UNL     1     -46.630  16.276  73.976  0.00  0.00    +0.355 P 
ATOM     31  O   UNL     1     -47.295  17.646  73.820  0.00  0.00    -0.565 OA
ATOM     32  O   UNL     1     -45.577  16.009  72.869  0.00  0.00    -0.565 OA
BRANCH   3   2
ATOM      2  O   UNL     1     -46.534  15.900  75.591  0.00  0.00    -0.155 OA
BRANCH   2   1
ATOM      1  P   UNL     1     -47.855  15.812  76.632  0.00  0.00    +0.188 P 
ATOM     33  O   UNL     1     -47.888  16.480  77.977  0.00  0.00    -0.609 OA
ATOM     34  O   UNL     1     -49.031  16.323  75.793  0.00  0.00    -0.609 OA
ATOM     35  O   UNL     1     -47.962  14.360  77.093  0.00  0.00    -0.609 OA
ENDBRANCH   2   1
ENDBRANCH   3   2
ENDBRANCH   4   3
ENDBRANCH   5   4
ENDBRANCH   6   5
ENDBRANCH   7   6
ENDBRANCH   8   7
TORSDOF 11
