REMARK  Name = 2jds_ligand
REMARK  8 active torsions:
REMARK  status: ('A' for Active; 'I' for Inactive)
REMARK    1  A    between atoms: C1_1  and  C2_2
REMARK    2  A    between atoms: C9_8  and  C12_11
REMARK    3  A    between atoms: C16_15  and  O17_16
REMARK    4  A    between atoms: O17_16  and  C18_17
REMARK    5  A    between atoms: C18_17  and  C19_18
REMARK    6  A    between atoms: C19_18  and  N21_19
REMARK    7  A    between atoms: C19_18  and  C25_20
REMARK    8  A    between atoms: C25_20  and  C26_21
REMARK                            x       y       z     vdW  Elec       q    Type
REMARK                         _______ _______ _______ _____ _____    ______ ____
ROOT
ATOM      9  O   UNL     1      11.846   9.122   1.432  0.00  0.00    -0.305 OA
ENDROOT
BRANCH   9   8
ATOM      6  C   UNL     1       8.330   9.981   0.668  0.00  0.00    -0.006 A 
ATOM      7  C   UNL     1       9.423   9.497   1.434  0.00  0.00    +0.055 A 
ATOM      8  C   UNL     1      10.684   9.548   0.802  0.00  0.00    +0.117 A 
ATOM     27  C   UNL     1      10.820  10.054  -0.489  0.00  0.00    +0.111 A 
ATOM     28  N   UNL     1       9.794  10.490  -1.224  0.00  0.00    -0.308 NA
ATOM     29  C   UNL     1       8.593  10.450  -0.635  0.00  0.00    +0.077 A 
BRANCH   6   5
ATOM      1  C   UNL     1       5.266  10.440   5.525  0.00  0.00    +0.094 C 
ATOM      2  C   UNL     1       4.621  10.265   4.186  0.00  0.00    +0.032 A 
ATOM      3  C   UNL     1       5.313  10.162   2.907  0.00  0.00    +0.017 A 
ATOM      4  C   UNL     1       6.650  10.137   2.505  0.00  0.00    +0.009 A 
ATOM      5  C   UNL     1       6.939   9.997   1.145  0.00  0.00    -0.023 A 
ATOM     30  C   UNL     1       5.881   9.878   0.184  0.00  0.00    -0.001 A 
ATOM     31  C   UNL     1       4.559   9.868   0.562  0.00  0.00    +0.022 A 
ATOM     32  C   UNL     1       4.251  10.017   1.921  0.00  0.00    +0.086 A 
ATOM     33  N   UNL     1       3.047  10.055   2.633  0.00  0.00    -0.223 N 
ATOM     34  H   UNL     1       2.110   9.974   2.212  0.00  0.00    +0.240 HD
ATOM     35  N   UNL     1       3.291  10.213   3.952  0.00  0.00    -0.218 NA
ENDBRANCH   6   5
ENDBRANCH   9   8
BRANCH   9  10
ATOM     10  C   UNL     1      11.978   8.124   2.435  0.00  0.00    +0.251 C 
BRANCH  10  11
ATOM     11  C   UNL     1      13.477   7.706   2.325  0.00  0.00    +0.098 C 
BRANCH  11  23
ATOM     23  N   UNL     1      13.678   6.953   1.009  0.00  0.00    +0.224 N 
ATOM     24  H   UNL     1      13.091   6.133   0.998  0.00  0.00    +0.200 HD
ATOM     25  H   UNL     1      13.432   7.553   0.237  0.00  0.00    +0.200 HD
ATOM     26  H   UNL     1      14.644   6.676   0.924  0.00  0.00    +0.200 HD
ENDBRANCH  11  23
BRANCH  11  12
ATOM     12  C   UNL     1      14.485   8.909   2.536  0.00  0.00    +0.090 C 
BRANCH  12  13
ATOM     13  C   UNL     1      14.642   9.841   1.387  0.00  0.00    -0.041 A 
ATOM     14  C   UNL     1      14.059  11.189   1.186  0.00  0.00    -0.021 A 
ATOM     15  C   UNL     1      13.222  12.046   1.929  0.00  0.00    -0.021 A 
ATOM     16  C   UNL     1      12.840  13.279   1.407  0.00  0.00    -0.028 A 
ATOM     17  C   UNL     1      13.260  13.716   0.123  0.00  0.00    -0.024 A 
ATOM     18  C   UNL     1      14.080  12.900  -0.661  0.00  0.00    +0.010 A 
ATOM     19  C   UNL     1      14.479  11.651  -0.126  0.00  0.00    +0.060 A 
ATOM     20  N   UNL     1      15.287  10.640  -0.680  0.00  0.00    -0.289 N 
ATOM     21  H   UNL     1      15.745  10.681  -1.602  0.00  0.00    +0.222 HD
ATOM     22  C   UNL     1      15.369   9.575   0.216  0.00  0.00    +0.096 A 
ENDBRANCH  12  13
ENDBRANCH  11  12
ENDBRANCH  10  11
ENDBRANCH   9  10
TORSDOF 7
