REMARK  Name = 6NPT
REMARK  5 active torsions:
REMARK  status: ('A' for Active; 'I' for Inactive)
REMARK    1  A    between atoms: C2_2  and  C5_5
REMARK    2  A    between atoms: C8_8  and  C11_9
REMARK    3  A    between atoms: N13_10  and  C14_22
REMARK    4  A    between atoms: C16_12  and  C25_27
REMARK    5  A    between atoms: C19_13  and  N18_24
REMARK                            x       y       z     vdW  Elec       q    Type
REMARK                         _______ _______ _______ _____ _____    ______ ____
ROOT
ATOM     10  C   UNL     1     -16.424 -27.652 -12.808  0.00  0.00    +0.150 A 
ATOM     11  N   UNL     1     -17.373 -28.605 -13.035  0.00  0.00    -0.100 N 
ATOM     12  N   UNL     1     -16.853 -29.825 -12.639  0.00  0.00    -0.100 NA
ATOM     13  C   UNL     1     -15.636 -29.619 -12.207  0.00  0.00    +0.150 A 
ATOM     26  C   UNL     1     -15.335 -28.247 -12.289  0.00  0.00    -0.150 A 
ENDROOT
BRANCH  13  14
ATOM     14  C   UNL     1     -14.758 -30.692 -11.707  0.00  0.00    +0.000 A 
ATOM     15  C   UNL     1     -13.683 -30.405 -10.869  0.00  0.00    -0.130 A 
ATOM     16  C   UNL     1     -12.888 -31.436 -10.415  0.00  0.00    -0.130 A 
ATOM     17  C   UNL     1     -13.150 -32.743 -10.783  0.00  0.00    -0.130 A 
ATOM     18  C   UNL     1     -14.215 -33.032 -11.614  0.00  0.00    -0.130 A 
ATOM     19  C   UNL     1     -15.021 -32.013 -12.077  0.00  0.00    -0.130 A 
ENDBRANCH  13  14
BRANCH  11  20
ATOM     20  C   UNL     1     -18.644 -28.375 -13.568  0.00  0.00    +0.000 A 
ATOM     21  C   UNL     1     -18.818 -27.443 -14.588  0.00  0.00    -0.130 A 
ATOM     22  C   UNL     1     -20.065 -27.193 -15.120  0.00  0.00    -0.130 A 
ATOM     23  C   UNL     1     -21.157 -27.885 -14.640  0.00  0.00    -0.130 A 
ATOM     24  C   UNL     1     -21.000 -28.820 -13.629  0.00  0.00    -0.130 A 
ATOM     25  C   UNL     1     -19.750 -29.070 -13.089  0.00  0.00    -0.130 A 
ENDBRANCH  11  20
BRANCH  10   9
ATOM      7  C   UNL     1     -16.718 -25.377 -12.128  0.00  0.00    +0.600 C 
ATOM      8  O   UNL     1     -16.522 -25.638 -10.962  0.00  0.00    -0.550 OA
ATOM      9  N   UNL     1     -16.663 -26.321 -13.081  0.00  0.00    -0.350 NA
BRANCH   7   6
ATOM      3  C   UNL     1     -17.953 -21.490 -13.258  0.00  0.00    +0.000 A 
ATOM      4  C   UNL     1     -18.336 -22.599 -13.995  0.00  0.00    -0.130 A 
ATOM      5  C   UNL     1     -17.933 -23.848 -13.622  0.00  0.00    -0.130 A 
ATOM      6  C   UNL     1     -17.096 -24.018 -12.515  0.00  0.00    +0.000 A 
ATOM     27  C   UNL     1     -16.718 -22.917 -11.759  0.00  0.00    -0.130 A 
ATOM     28  C   UNL     1     -17.139 -21.667 -12.148  0.00  0.00    -0.130 A 
BRANCH   3   2
ATOM      1  C   UNL     1     -19.035 -19.460 -12.381  0.00  0.00    -0.150 C 
ATOM      2  C   UNL     1     -18.373 -20.082 -13.623  0.00  0.00    +0.000 C 
ATOM     29  C   UNL     1     -17.116 -19.293 -14.006  0.00  0.00    -0.150 C 
ATOM     30  C   UNL     1     -19.385 -20.008 -14.792  0.00  0.00    -0.150 C 
ENDBRANCH   3   2
ENDBRANCH   7   6
ENDBRANCH  10   9
TORSDOF 5
