REMARK  Name = 3ACK
REMARK  4 active torsions:
REMARK  status: ('A' for Active; 'I' for Inactive)
REMARK    1  A    between atoms: C_8  and  C_10
REMARK    2  A    between atoms: N_13  and  C_19
REMARK    3  A    between atoms: C_16  and  O_20
REMARK    4  A    between atoms: O_20  and  C_21
REMARK                            x       y       z     vdW  Elec       q    Type
REMARK                         _______ _______ _______ _____ _____    ______ ____
ROOT
ATOM      7  C   UNL     1      28.592  36.782   9.175  0.00  0.00    +0.026 A 
ATOM      8  C   UNL     1      29.522  37.503   9.871  0.00  0.00    +0.096 A 
ATOM      9  N   UNL     1      30.752  36.982   9.742  0.00  0.00    -0.349 N 
ATOM     10  C   UNL     1      32.011  37.514  10.326  0.00  0.00    +0.149 C 
ATOM     11  C   UNL     1      30.671  35.890   8.942  0.00  0.00    +0.050 A 
ATOM     12  C   UNL     1      31.591  34.965   8.462  0.00  0.00    +0.030 A 
ATOM     13  C   UNL     1      31.148  33.916   7.651  0.00  0.00    +0.048 A 
ATOM     14  C   UNL     1      29.800  33.754   7.310  0.00  0.00    +0.121 A 
ATOM     17  C   UNL     1      28.834  34.629   7.806  0.00  0.00    +0.056 A 
ATOM     18  C   UNL     1      29.266  35.752   8.501  0.00  0.00    +0.013 A 
ENDROOT
BRANCH   7   6
ATOM      1  C   UNL     1      22.939  37.398   8.278  0.00  0.00    +0.131 A 
ATOM      2  C   UNL     1      22.970  38.244   9.396  0.00  0.00    +0.133 A 
ATOM      3  N   UNL     1      24.099  38.466  10.090  0.00  0.00    -0.233 NA
ATOM      4  C   UNL     1      25.237  37.862   9.683  0.00  0.00    +0.179 A 
ATOM      5  N   UNL     1      26.518  37.801  10.094  0.00  0.00    -0.226 NA
ATOM      6  C   UNL     1      27.190  37.004   9.194  0.00  0.00    +0.078 A 
ATOM     19  C   UNL     1      26.455  36.385   8.231  0.00  0.00    +0.060 A 
ATOM     20  C   UNL     1      25.187  36.960   8.520  0.00  0.00    +0.110 A 
ATOM     21  N   UNL     1      24.037  36.758   7.840  0.00  0.00    -0.250 NA
ENDBRANCH   7   6
BRANCH  14  15
ATOM     15  O   UNL     1      29.416  32.695   6.521  0.00  0.00    -0.495 OA
ATOM     16  C   UNL     1      29.588  32.737   5.104  0.00  0.00    +0.277 C 
ENDBRANCH  14  15
TORSDOF 2
