REMARK  Name = 2r3n_ligand
REMARK  5 active torsions:
REMARK  status: ('A' for Active; 'I' for Inactive)
REMARK    1  A    between atoms: C01_1  and  C24_24
REMARK    2  A    between atoms: C07_7  and  C11_11
REMARK    3  A    between atoms: C09_9  and  N10_10
REMARK    4  A    between atoms: N10_10  and  C12_12
REMARK    5  A    between atoms: C12_12  and  C13_13
REMARK                            x       y       z     vdW  Elec       q    Type
REMARK                         _______ _______ _______ _____ _____    ______ ____
ROOT
ATOM      1  C   UNL     1      -0.170  30.525   8.271  0.00  0.00    -0.021 A 
ATOM      5  C   UNL     1       0.643  31.291   7.417  0.00  0.00    +0.041 A 
ATOM      6  N   UNL     1       1.776  30.671   7.087  0.00  0.00    -0.220 NA
ATOM      7  N   UNL     1       1.720  29.475   7.782  0.00  0.00    -0.120 N 
ATOM      8  C   UNL     1       2.700  28.455   7.778  0.00  0.00    +0.218 A 
ATOM     18  C   UNL     1       2.465  27.318   8.468  0.00  0.00    +0.059 A 
ATOM     19  C   UNL     1       1.205  27.261   9.209  0.00  0.00    +0.025 A 
ATOM     26  N   UNL     1       0.267  28.214   9.225  0.00  0.00    -0.298 NA
ATOM     27  C   UNL     1       0.529  29.348   8.507  0.00  0.00    +0.148 A 
ENDROOT
BRANCH  19  20
ATOM     20  C   UNL     1       0.973  26.006   9.970  0.00  0.00    -0.001 A 
ATOM     21  C   UNL     1       2.021  25.133  10.288  0.00  0.00    +0.017 A 
ATOM     22  C   UNL     1       1.757  23.969  11.029  0.00  0.00    +0.005 A 
ATOM     23  C   UNL     1       0.448  23.680  11.445  0.00  0.00    +0.006 A 
ATOM     24  C   UNL     1      -0.589  24.544  11.108  0.00  0.00    +0.005 A 
ATOM     25  C   UNL     1      -0.318  25.713  10.391  0.00  0.00    +0.017 A 
ENDBRANCH  19  20
BRANCH   1   2
ATOM      2  C   UNL     1      -1.531  30.966   8.755  0.00  0.00    +0.009 C 
ATOM      3  C   UNL     1      -1.888  30.927  10.216  0.00  0.00    +0.010 C 
ATOM      4  C   UNL     1      -2.524  29.957   9.242  0.00  0.00    +0.010 C 
ENDBRANCH   1   2
BRANCH   8   9
ATOM      9  N   UNL     1       3.818  28.698   7.051  0.00  0.00    -0.259 N 
ATOM     10  H   UNL     1       3.757  29.494   6.401  0.00  0.00    +0.197 HD
BRANCH   9  11
ATOM     11  C   UNL     1       5.088  27.997   7.058  0.00  0.00    +0.218 C 
BRANCH  11  12
ATOM     12  C   UNL     1       5.123  26.841   6.096  0.00  0.00    +0.008 A 
ATOM     13  C   UNL     1       5.179  25.512   6.536  0.00  0.00    +0.030 A 
ATOM     14  C   UNL     1       5.249  24.480   5.603  0.00  0.00    +0.029 A 
ATOM     15  C   UNL     1       5.254  24.812   4.258  0.00  0.00    +0.081 A 
ATOM     16  N   UNL     1       5.178  26.077   3.797  0.00  0.00    -0.304 NA
ATOM     17  C   UNL     1       5.107  27.066   4.733  0.00  0.00    +0.091 A 
ENDBRANCH  11  12
ENDBRANCH   9  11
ENDBRANCH   8   9
TORSDOF 5
