REMARK  Name = 4v24_ligand
REMARK  11 active torsions:
REMARK  status: ('A' for Active; 'I' for Inactive)
REMARK    1  A    between atoms: SAJ_2  and  CAK_4
REMARK    2  A    between atoms: SAJ_2  and  CAI_10
REMARK    3  A    between atoms: CAI_10  and  CAB_11
REMARK    4  A    between atoms: CAF_13  and  CAG_14
REMARK    5  A    between atoms: CAD_16  and  OAH_18
REMARK    6  A    between atoms: OAH_18  and  CAL_19
REMARK    7  A    between atoms: CAL_19  and  CAM_20
REMARK    8  A    between atoms: CAU_23  and  CAX_26
REMARK    9  A    between atoms: CAX_26  and  NAY_27
REMARK   10  A    between atoms: CAZ_28  and  CBD_29
REMARK   11  A    between atoms: CBD_29  and  OBE_30
REMARK                            x       y       z     vdW  Elec       q    Type
REMARK                         _______ _______ _______ _____ _____    ______ ____
ROOT
ATOM      7  O   UNL     1     -25.347   9.804 -15.428  0.00  0.00    -0.310 OA
ENDROOT
BRANCH   7   6
ATOM      4  C   UNL     1     -26.273  12.881 -17.094  0.00  0.00    -0.037 A 
ATOM      5  C   UNL     1     -26.027  11.922 -16.115  0.00  0.00    +0.005 A 
ATOM      6  C   UNL     1     -25.710  10.623 -16.491  0.00  0.00    +0.081 A 
ATOM     25  C   UNL     1     -25.698  10.261 -17.833  0.00  0.00    +0.003 A 
ATOM     26  C   UNL     1     -25.974  11.211 -18.819  0.00  0.00    -0.061 A 
ATOM     27  C   UNL     1     -25.881  10.857 -20.283  0.00  0.00    +0.081 C 
ATOM     28  C   UNL     1     -26.267  12.507 -18.431  0.00  0.00    -0.029 A 
BRANCH   4   3
ATOM      3  C   UNL     1     -26.302  14.343 -16.747  0.00  0.00    +0.234 C 
BRANCH   3   2
ATOM      1  O   UNL     1     -27.805  16.483 -16.730  0.00  0.00    -0.167 OA
ATOM      2  S   UNL     1     -27.949  15.044 -16.670  0.00  0.00    +0.006 S 
ATOM     35  O   UNL     1     -28.783  14.371 -17.628  0.00  0.00    -0.167 OA
BRANCH   2  29
ATOM     29  C   UNL     1     -28.523  14.636 -15.048  0.00  0.00    +0.090 A 
ATOM     30  C   UNL     1     -29.362  13.551 -14.872  0.00  0.00    +0.027 A 
ATOM     31  C   UNL     1     -29.842  13.278 -13.606  0.00  0.00    +0.002 A 
ATOM     32  C   UNL     1     -29.496  14.081 -12.540  0.00  0.00    +0.000 A 
ATOM     33  C   UNL     1     -28.681  15.160 -12.729  0.00  0.00    +0.002 A 
ATOM     34  C   UNL     1     -28.174  15.445 -13.983  0.00  0.00    +0.027 A 
ENDBRANCH   2  29
ENDBRANCH   3   2
ENDBRANCH   4   3
ENDBRANCH   7   6
BRANCH   7   8
ATOM      8  C   UNL     1     -24.949   8.433 -15.698  0.00  0.00    +0.254 C 
BRANCH   8   9
ATOM      9  C   UNL     1     -24.411   7.746 -14.464  0.00  0.00    -0.020 A 
ATOM     10  C   UNL     1     -23.748   8.452 -13.470  0.00  0.00    -0.010 A 
ATOM     11  C   UNL     1     -23.375   7.840 -12.280  0.00  0.00    -0.007 A 
ATOM     12  C   UNL     1     -23.653   6.505 -12.044  0.00  0.00    -0.005 A 
ATOM     23  C   UNL     1     -24.285   5.792 -13.052  0.00  0.00    -0.007 A 
ATOM     24  C   UNL     1     -24.653   6.403 -14.244  0.00  0.00    -0.010 A 
BRANCH  12  13
ATOM     13  C   UNL     1     -23.275   5.852 -10.723  0.00  0.00    +0.193 C 
BRANCH  13  14
ATOM     14  N   UNL     1     -24.428   5.233  -9.900  0.00  0.00    +0.250 N 
ATOM     15  H   UNL     1     -24.949   4.679 -10.562  0.00  0.00    +0.205 HD
ATOM     16  C   UNL     1     -23.995   4.330  -8.764  0.00  0.00    +0.133 C 
ATOM     17  C   UNL     1     -24.162   5.139  -7.487  0.00  0.00    +0.056 C 
ATOM     18  C   UNL     1     -25.442   5.865  -7.691  0.00  0.00    +0.062 C 
ATOM     19  C   UNL     1     -25.430   6.164  -9.191  0.00  0.00    +0.092 C 
BRANCH  19  20
ATOM     20  C   UNL     1     -26.823   6.083  -9.787  0.00  0.00    +0.210 C 
BRANCH  20  21
ATOM     21  O   UNL     1     -27.424   4.806  -9.602  0.00  0.00    -0.390 OA
ATOM     22  H   UNL     1     -26.888   4.142 -10.020  0.00  0.00    +0.210 HD
ENDBRANCH  20  21
ENDBRANCH  19  20
ENDBRANCH  13  14
ENDBRANCH  12  13
ENDBRANCH   8   9
ENDBRANCH   7   8
TORSDOF 10
