REMARK  Name = 3WZJ
REMARK  7 active torsions:
REMARK  status: ('A' for Active; 'I' for Inactive)
REMARK    1  A    between atoms: C_2  and  C_7
REMARK    2  A    between atoms: N_3  and  C_4
REMARK    3  A    between atoms: C_10  and  C_13
REMARK    4  A    between atoms: N_20  and  C_21
REMARK    5  A    between atoms: C_28  and  N_29
REMARK    6  A    between atoms: N_29  and  C_30
REMARK    7  A    between atoms: C_30  and  C_31
REMARK                            x       y       z     vdW  Elec       q    Type
REMARK                         _______ _______ _______ _____ _____    ______ ____
ROOT
ATOM      7  C   UNL     1     -36.458 -21.731 -11.513  0.00  0.00    +0.093 A 
ATOM      8  N   UNL     1     -35.957 -20.604 -10.936  0.00  0.00    -0.209 N 
ATOM      9  N   UNL     1     -36.039 -19.269 -11.374  0.00  0.00    -0.149 NA
ATOM     10  C   UNL     1     -35.449 -18.295 -10.601  0.00  0.00    +0.142 A 
ATOM     11  C   UNL     1     -34.762 -18.665  -9.392  0.00  0.00    +0.071 A 
ATOM     12  C   UNL     1     -34.696 -19.998  -9.004  0.00  0.00    +0.075 A 
ATOM     22  N   UNL     1     -35.452 -16.904 -10.946  0.00  0.00    -0.325 N 
ATOM     23  H   UNL     1     -34.537 -16.766 -11.483  0.00  0.00    +0.148 HD
ATOM     30  C   UNL     1     -35.322 -20.988  -9.819  0.00  0.00    +0.176 A 
ATOM     31  N   UNL     1     -35.422 -22.370  -9.698  0.00  0.00    -0.233 NA
ATOM     32  C   UNL     1     -36.127 -22.822 -10.759  0.00  0.00    +0.141 A 
ENDROOT
BRANCH   7   6
ATOM      3  C   UNL     1     -38.709 -21.644 -15.162  0.00  0.00    +0.037 A 
ATOM      4  C   UNL     1     -38.711 -20.533 -14.328  0.00  0.00    +0.013 A 
ATOM      5  C   UNL     1     -37.980 -20.567 -13.134  0.00  0.00    +0.011 A 
ATOM      6  C   UNL     1     -37.255 -21.719 -12.822  0.00  0.00    +0.002 A 
ATOM     33  C   UNL     1     -37.241 -22.846 -13.652  0.00  0.00    +0.011 A 
ATOM     34  C   UNL     1     -37.985 -22.793 -14.845  0.00  0.00    +0.013 A 
BRANCH   3   2
ATOM      1  O   UNL     1     -40.555 -21.002 -16.560  0.00  0.00    -0.270 OA
ATOM      2  C   UNL     1     -39.507 -21.605 -16.479  0.00  0.00    +0.244 C 
ATOM     35  N   UNL     1     -38.986 -22.297 -17.652  0.00  0.00    -0.309 N 
ATOM     36  H   UNL     1     -38.878 -23.331 -17.400  0.00  0.00    +0.149 HD
BRANCH  35  37
ATOM     37  C   UNL     1     -39.801 -22.215 -18.858  0.00  0.00    +0.073 C 
ATOM     38  C   UNL     1     -39.600 -23.336 -19.857  0.00  0.00    +0.024 C 
ATOM     39  C   UNL     1     -40.814 -23.329 -18.946  0.00  0.00    +0.024 C 
ENDBRANCH  35  37
ENDBRANCH   3   2
ENDBRANCH   7   6
BRANCH  22  24
ATOM     24  C   UNL     1     -36.429 -16.129 -11.702  0.00  0.00    +0.072 C 
ATOM     25  C   UNL     1     -35.712 -15.480 -12.894  0.00  0.00    +0.022 C 
ATOM     26  C   UNL     1     -36.608 -14.438 -13.543  0.00  0.00    +0.002 C 
ATOM     27  C   UNL     1     -38.020 -14.977 -13.806  0.00  0.00    +0.000 C 
ATOM     28  C   UNL     1     -38.619 -15.882 -12.720  0.00  0.00    +0.002 C 
ATOM     29  C   UNL     1     -37.644 -16.907 -12.173  0.00  0.00    +0.022 C 
ENDBRANCH  22  24
BRANCH  12  13
ATOM     13  N   UNL     1     -34.002 -20.399  -7.763  0.00  0.00    -0.341 N 
ATOM     14  H   UNL     1     -33.149 -20.979  -8.046  0.00  0.00    +0.146 HD
BRANCH  13  15
ATOM     15  C   UNL     1     -33.525 -19.312  -6.863  0.00  0.00    +0.105 C 
BRANCH  15  16
ATOM     16  C   UNL     1     -34.484 -19.032  -5.680  0.00  0.00    +0.010 C 
ATOM     17  C   UNL     1     -34.366 -17.580  -5.411  0.00  0.00    +0.033 C 
ATOM     18  C   UNL     1     -34.779 -17.183  -3.998  0.00  0.00    +0.160 C 
ATOM     19  O   UNL     1     -34.156 -18.054  -2.977  0.00  0.00    -0.380 OA
ATOM     20  C   UNL     1     -34.426 -19.492  -3.160  0.00  0.00    +0.160 C 
ATOM     21  C   UNL     1     -34.093 -19.951  -4.574  0.00  0.00    +0.033 C 
ENDBRANCH  15  16
ENDBRANCH  13  15
ENDBRANCH  12  13
TORSDOF 7
