REMARK  Name = 3VW8
REMARK  11 active torsions:
REMARK  status: ('A' for Active; 'I' for Inactive)
REMARK    1  A    between atoms: C_6  and  C_7
REMARK    2  A    between atoms: C_6  and  C_12
REMARK    3  A    between atoms: C_12  and  N_16
REMARK    4  A    between atoms: C_17  and  S_18
REMARK    5  A    between atoms: C_17  and  N_19
REMARK    6  A    between atoms: C_23  and  O_24
REMARK    7  A    between atoms: O_24  and  C_25
REMARK    8  A    between atoms: C_29  and  O_30
REMARK    9  A    between atoms: O_30  and  C_31
REMARK   10  A    between atoms: C_32  and  O_33
REMARK   11  A    between atoms: O_33  and  C_34
REMARK                            x       y       z     vdW  Elec       q    Type
REMARK                         _______ _______ _______ _____ _____    ______ ____
ROOT
ATOM     12  C   UNL     1       9.109 -16.837 -30.352  0.00  0.00    +0.194 C 
ATOM     13  C   UNL     1       9.424 -15.790 -31.210  0.00  0.00    +0.031 C 
ATOM     14  C   UNL     1       9.727 -14.518 -30.698  0.00  0.00    +0.028 C 
ATOM     15  C   UNL     1       9.711 -14.292 -29.315  0.00  0.00    +0.066 C 
ATOM     16  N   UNL     1       9.981 -13.117 -28.666  0.00  0.00    -0.225 NA
ATOM     30  C   UNL     1       9.394 -15.356 -28.481  0.00  0.00    +0.028 C 
ATOM     31  C   UNL     1       9.095 -16.603 -28.989  0.00  0.00    +0.031 C 
ENDROOT
BRANCH  16  17
ATOM     17  C   UNL     1      10.325 -11.916 -29.160  0.00  0.00    +0.178 C 
ATOM     20  N   UNL     1      10.554 -10.904 -28.316  0.00  0.00    -0.155 NA
BRANCH  17  18
ATOM     18  S   UNL     1      10.507 -11.627 -30.813  0.00  0.00    -0.106 S 
ATOM     19  H   UNL     1      10.288 -12.613 -31.694  0.00  0.00    +0.110 HD
ENDBRANCH  17  18
BRANCH  20  21
ATOM     21  C   UNL     1      10.443 -11.048 -26.988  0.00  0.00    +0.243 C 
ATOM     22  O   UNL     1      10.159 -12.101 -26.425  0.00  0.00    -0.273 OA
BRANCH  21  23
ATOM     23  C   UNL     1      10.725  -9.804 -26.177  0.00  0.00    +0.133 C 
BRANCH  23  24
ATOM     24  C   UNL     1      10.706 -10.053 -24.684  0.00  0.00    -0.039 A 
ATOM     25  C   UNL     1       9.579  -9.716 -23.936  0.00  0.00    +0.004 A 
ATOM     26  C   UNL     1       9.569  -9.932 -22.559  0.00  0.00    +0.000 A 
ATOM     27  C   UNL     1      10.686 -10.472 -21.937  0.00  0.00    +0.000 A 
ATOM     28  C   UNL     1      11.809 -10.802 -22.682  0.00  0.00    +0.000 A 
ATOM     29  C   UNL     1      11.820 -10.591 -24.052  0.00  0.00    +0.004 A 
ENDBRANCH  23  24
ENDBRANCH  21  23
ENDBRANCH  20  21
ENDBRANCH  16  17
BRANCH  12  11
ATOM     11  O   UNL     1       8.819 -18.110 -30.800  0.00  0.00    -0.472 OA
BRANCH  11  10
ATOM      1  C   UNL     1      10.022 -22.825 -30.534  0.00  0.00    +0.077 A 
ATOM      2  C   UNL     1       8.698 -23.217 -30.705  0.00  0.00    +0.164 A 
ATOM      5  C   UNL     1       7.720 -22.252 -30.860  0.00  0.00    +0.162 A 
ATOM      8  C   UNL     1       8.048 -20.886 -30.854  0.00  0.00    +0.063 A 
ATOM      9  C   UNL     1       9.373 -20.487 -30.676  0.00  0.00    +0.046 A 
ATOM     10  C   UNL     1       9.741 -19.133 -30.642  0.00  0.00    +0.133 A 
ATOM     32  C   UNL     1      11.086 -18.840 -30.450  0.00  0.00    +0.066 A 
ATOM     33  C   UNL     1      12.025 -19.852 -30.299  0.00  0.00    +0.115 A 
ATOM     34  N   UNL     1      11.652 -21.139 -30.334  0.00  0.00    -0.255 NA
ATOM     35  C   UNL     1      10.358 -21.470 -30.516  0.00  0.00    +0.078 A 
BRANCH   2   3
ATOM      3  O   UNL     1       8.320 -24.553 -30.734  0.00  0.00    -0.491 OA
ATOM      4  C   UNL     1       9.252 -25.623 -30.553  0.00  0.00    +0.277 C 
ENDBRANCH   2   3
BRANCH   5   6
ATOM      6  O   UNL     1       6.440 -22.707 -31.042  0.00  0.00    -0.491 OA
ATOM      7  C   UNL     1       5.262 -21.914 -30.929  0.00  0.00    +0.277 C 
ENDBRANCH   5   6
ENDBRANCH  11  10
ENDBRANCH  12  11
TORSDOF 9
