REMARK  Name = 5MAI
REMARK  11 active torsions:
REMARK  status: ('A' for Active; 'I' for Inactive)
REMARK    1  A    between atoms: N_5  and  C_30
REMARK    2  A    between atoms: C_6  and  C_26
REMARK    3  A    between atoms: C_11  and  C_32
REMARK    4  A    between atoms: C_13  and  C_15
REMARK    5  A    between atoms: N_16  and  C_17
REMARK    6  A    between atoms: C_17  and  C_18
REMARK    7  A    between atoms: C_19  and  C_20
REMARK    8  A    between atoms: C_24  and  C_26
REMARK    9  A    between atoms: C_32  and  N_33
REMARK   10  A    between atoms: N_33  and  C_34
REMARK   11  A    between atoms: N_33  and  C_35
REMARK                            x       y       z     vdW  Elec       q    Type
REMARK                         _______ _______ _______ _____ _____    ______ ____
ROOT
ATOM      1  C   UNL     1      -9.087 -16.895   8.312  0.00  0.00    +0.008 C 
ATOM      2  C   UNL     1      -8.244 -17.838   7.728  0.00  0.00    -0.001 C 
ATOM      3  C   UNL     1      -8.265 -19.165   8.197  0.00  0.00    +0.094 C 
ATOM      4  C   UNL     1      -9.122 -19.498   9.229  0.00  0.00    +0.022 C 
ATOM      5  C   UNL     1      -9.935 -18.582   9.742  0.00  0.00    +0.040 C 
ATOM      6  N   UNL     1     -10.821 -18.747  10.725  0.00  0.00    -0.281 N 
ATOM      7  H   UNL     1     -11.018 -19.664  11.240  0.00  0.00    +0.155 HD
ATOM      8  C   UNL     1     -11.416 -17.589  10.957  0.00  0.00    +0.251 C 
ATOM      9  C   UNL     1     -10.967 -16.611  10.133  0.00  0.00    +0.072 C 
ATOM     28  O   UNL     1     -12.277 -17.458  11.825  0.00  0.00    -0.270 OA
ATOM     37  C   UNL     1      -9.918 -17.285   9.304  0.00  0.00    +0.010 C 
ENDROOT
BRANCH   9  10
ATOM     10  C   UNL     1     -11.334 -15.285  10.146  0.00  0.00    +0.084 C 
ATOM     17  N   UNL     1     -12.023 -14.903  11.180  0.00  0.00    -0.247 NA
BRANCH  10  11
ATOM     11  C   UNL     1     -10.617 -14.350   9.400  0.00  0.00    +0.001 A 
ATOM     12  C   UNL     1      -9.558 -13.653   9.997  0.00  0.00    +0.010 A 
ATOM     13  C   UNL     1      -8.847 -12.694   9.254  0.00  0.00    +0.001 A 
ATOM     14  C   UNL     1      -9.184 -12.430   7.915  0.00  0.00    +0.000 A 
ATOM     15  C   UNL     1     -10.252 -13.124   7.339  0.00  0.00    +0.001 A 
ATOM     16  C   UNL     1     -10.964 -14.079   8.080  0.00  0.00    +0.010 A 
ENDBRANCH  10  11
BRANCH  17  18
ATOM     18  C   UNL     1     -12.495 -13.689  11.513  0.00  0.00    +0.065 A 
ATOM     19  C   UNL     1     -12.810 -12.630  10.658  0.00  0.00    +0.028 A 
ATOM     20  C   UNL     1     -13.338 -11.447  11.182  0.00  0.00    +0.007 A 
ATOM     21  C   UNL     1     -13.576 -11.307  12.550  0.00  0.00    -0.033 A 
ATOM     26  C   UNL     1     -13.287 -12.364  13.407  0.00  0.00    +0.007 A 
ATOM     27  C   UNL     1     -12.763 -13.540  12.879  0.00  0.00    +0.028 A 
BRANCH  21  22
ATOM     22  C   UNL     1     -14.107 -10.127  13.071  0.00  0.00    +0.119 C 
BRANCH  22  23
ATOM     23  N   UNL     1     -15.580 -10.258  13.269  0.00  0.00    -0.304 NA
ATOM     24  C   UNL     1     -16.057  -9.478  14.447  0.00  0.00    +0.105 C 
ATOM     25  C   UNL     1     -16.348  -9.980  12.013  0.00  0.00    +0.105 C 
ENDBRANCH  22  23
ENDBRANCH  21  22
ENDBRANCH  17  18
ENDBRANCH   9  10
BRANCH   3  29
ATOM     29  C   UNL     1      -7.450 -20.172   7.707  0.00  0.00    -0.075 C 
ATOM     30  C   UNL     1      -6.700 -21.052   7.340  0.00  0.00    -0.007 C 
BRANCH  30  31
ATOM     31  C   UNL     1      -5.896 -22.135   6.909  0.00  0.00    +0.288 C 
ATOM     32  N   UNL     1      -5.654 -23.048   7.895  0.00  0.00    -0.305 N 
ATOM     33  H   UNL     1      -6.123 -22.882   8.842  0.00  0.00    +0.150 HD
ATOM     36  O   UNL     1      -5.290 -22.078   5.855  0.00  0.00    -0.261 OA
BRANCH  32  34
ATOM     34  C   UNL     1      -4.794 -24.252   7.764  0.00  0.00    +0.101 C 
ATOM     35  C   UNL     1      -5.684 -25.366   7.283  0.00  0.00    +0.024 C 
ENDBRANCH  32  34
ENDBRANCH  30  31
ENDBRANCH   3  29
TORSDOF 8
