REMARK  Name = 4X3J
REMARK  5 active torsions:
REMARK  status: ('A' for Active; 'I' for Inactive)
REMARK    1  A    between atoms: C_4  and  N_20
REMARK    2  A    between atoms: C_13  and  C_28
REMARK    3  A    between atoms: N_14  and  C_16
REMARK    4  A    between atoms: C_22  and  N_23
REMARK    5  A    between atoms: N_24  and  C_26
REMARK                            x       y       z     vdW  Elec       q    Type
REMARK                         _______ _______ _______ _____ _____    ______ ____
ROOT
ATOM     14  C   UNL     1      21.475  31.410  58.799  0.00  0.00    +0.048 A 
ATOM     15  C   UNL     1      22.594  31.015  59.560  0.00  0.00    +0.028 A 
ATOM     16  C   UNL     1      22.521  30.861  60.936  0.00  0.00    +0.025 A 
ATOM     17  C   UNL     1      21.297  31.057  61.593  0.00  0.00    +0.035 A 
ATOM     35  C   UNL     1      20.161  31.392  60.843  0.00  0.00    +0.025 A 
ATOM     36  C   UNL     1      20.247  31.572  59.465  0.00  0.00    +0.028 A 
ENDROOT
BRANCH  14   9
ATOM      1  C   UNL     1      22.645  32.024  56.692  0.00  0.00    +0.154 A 
ATOM      2  N   UNL     1      23.607  32.749  57.299  0.00  0.00    -0.217 NA
ATOM      3  C   UNL     1      24.670  33.187  56.646  0.00  0.00    +0.225 A 
ATOM      4  N   UNL     1      24.835  32.962  55.350  0.00  0.00    -0.220 NA
ATOM      5  C   UNL     1      23.960  32.240  54.631  0.00  0.00    +0.132 A 
ATOM      9  N   UNL     1      21.549  31.484  57.377  0.00  0.00    -0.301 N 
ATOM     10  C   UNL     1      20.540  30.867  56.690  0.00  0.00    +0.097 A 
ATOM     11  C   UNL     1      20.621  30.558  55.382  0.00  0.00    +0.070 A 
ATOM     12  C   UNL     1      21.757  30.946  54.616  0.00  0.00    +0.194 A 
ATOM     13  O   UNL     1      21.829  30.645  53.431  0.00  0.00    -0.287 OA
ATOM     37  C   UNL     1      22.805  31.741  55.294  0.00  0.00    +0.104 A 
BRANCH   5   6
ATOM      6  N   UNL     1      24.193  32.032  53.284  0.00  0.00    -0.342 N 
ATOM      7  H   UNL     1      25.076  32.426  52.827  0.00  0.00    +0.144 HD
ATOM      8  H   UNL     1      23.490  31.477  52.699  0.00  0.00    +0.144 HD
ENDBRANCH   5   6
ENDBRANCH  14   9
BRANCH  17  18
ATOM     18  N   UNL     1      21.139  30.864  62.981  0.00  0.00    -0.269 N 
ATOM     19  H   UNL     1      20.736  31.663  63.567  0.00  0.00    +0.156 HD
ATOM     20  C   UNL     1      21.477  29.704  63.605  0.00  0.00    +0.308 C 
ATOM     21  O   UNL     1      22.038  28.806  62.990  0.00  0.00    -0.252 OA
ATOM     22  N   UNL     1      21.191  29.583  64.930  0.00  0.00    -0.267 N 
ATOM     23  H   UNL     1      20.772  30.439  65.416  0.00  0.00    +0.157 HD
BRANCH  22  24
ATOM     24  C   UNL     1      21.396  28.431  65.724  0.00  0.00    +0.071 A 
ATOM     25  C   UNL     1      20.379  28.020  66.597  0.00  0.00    +0.144 A 
ATOM     26  F   UNL     1      19.226  28.718  66.648  0.00  0.00    -0.203 F 
ATOM     27  C   UNL     1      20.534  26.896  67.408  0.00  0.00    +0.041 A 
ATOM     28  C   UNL     1      21.700  26.147  67.321  0.00  0.00    +0.015 A 
ATOM     29  C   UNL     1      22.726  26.564  66.470  0.00  0.00    +0.057 A 
ATOM     34  C   UNL     1      22.576  27.692  65.679  0.00  0.00    +0.038 A 
BRANCH  29  30
ATOM     30  C   UNL     1      23.986  25.759  66.320  0.00  0.00    +0.417 C 
ATOM     31  F   UNL     1      23.847  25.000  65.159  0.00  0.00    -0.166 F 
ATOM     32  F   UNL     1      24.141  24.863  67.376  0.00  0.00    -0.166 F 
ATOM     33  F   UNL     1      25.096  26.609  66.210  0.00  0.00    -0.166 F 
ENDBRANCH  29  30
ENDBRANCH  22  24
ENDBRANCH  17  18
TORSDOF 5
