REMARK  Name = A8K
REMARK  2 active torsions:
REMARK  status: ('A' for Active; 'I' for Inactive)
REMARK    1  A    between atoms: C4_6  and  S_13
REMARK    2  A    between atoms: C3_9  and  S_13
REMARK                            x       y       z     vdW  Elec       q    Type
REMARK                         _______ _______ _______ _____ _____    ______ ____
ROOT
ATOM      7  S   UNL     1     -11.029  16.554 -18.455  0.00  0.00    -0.087 S 
ENDROOT
BRANCH   7   6
ATOM      1  C   UNL     1     -13.448  14.157 -16.265  0.00  0.00    +0.043 A 
ATOM      2  C   UNL     1     -12.565  13.253 -15.695  0.00  0.00    +0.196 A 
ATOM      3  O   UNL     1     -13.027  12.255 -14.858  0.00  0.00    -0.287 OA
ATOM      4  C   UNL     1     -11.211  13.362 -15.975  0.00  0.00    +0.043 A 
ATOM      5  C   UNL     1     -10.747  14.362 -16.809  0.00  0.00    +0.010 A 
ATOM      6  C   UNL     1     -11.633  15.255 -17.392  0.00  0.00    +0.030 A 
ATOM     15  C   UNL     1     -12.985  15.151 -17.108  0.00  0.00    +0.010 A 
ENDBRANCH   7   6
BRANCH   7   8
ATOM      8  C   UNL     1     -12.267  16.792 -19.710  0.00  0.00    +0.030 A 
ATOM      9  C   UNL     1     -12.624  18.078 -20.087  0.00  0.00    +0.010 A 
ATOM     10  C   UNL     1     -13.578  18.285 -21.065  0.00  0.00    +0.043 A 
ATOM     11  C   UNL     1     -14.176  17.206 -21.700  0.00  0.00    +0.196 A 
ATOM     12  C   UNL     1     -13.808  15.918 -21.337  0.00  0.00    +0.043 A 
ATOM     13  O   UNL     1     -15.131  17.427 -22.681  0.00  0.00    -0.287 OA
ATOM     14  C   UNL     1     -12.862  15.714 -20.351  0.00  0.00    +0.010 A 
ENDBRANCH   7   8
TORSDOF 2
