REMARK  Name = 4g17_ligand
REMARK  6 active torsions:
REMARK  status: ('A' for Active; 'I' for Inactive)
REMARK    1  A    between atoms: C4_1  and  C7_11
REMARK    2  A    between atoms: N1_10  and  C15_16
REMARK    3  A    between atoms: C12_13  and  C18_19
REMARK    4  A    between atoms: C18_19  and  C1_20
REMARK    5  A    between atoms: C18_19  and  C2_21
REMARK    6  A    between atoms: C18_19  and  C3_22
REMARK                            x       y       z     vdW  Elec       q    Type
REMARK                         _______ _______ _______ _____ _____    ______ ____
ROOT
ATOM      1  C   UNL     1      38.209 -11.999  26.859  0.00  0.00    +0.079 A 
ATOM      4  C   UNL     1      38.099 -11.301  28.168  0.00  0.00    +0.014 A 
ATOM      5  C   UNL     1      37.508 -12.047  29.279  0.00  0.00    -0.003 A 
ATOM      6  C   UNL     1      37.059 -13.439  29.034  0.00  0.00    +0.026 A 
ATOM      7  N   UNL     1      36.470 -14.371  29.870  0.00  0.00    -0.294 NA
ATOM      8  C   UNL     1      36.269 -15.449  29.119  0.00  0.00    +0.250 A 
ATOM      9  N   UNL     1      35.625 -16.623  29.677  0.00  0.00    -0.204 N 
ATOM     10  H   UNL     1      35.342 -16.544  30.664  0.00  0.00    +0.237 HD
ATOM     21  N   UNL     1      36.661 -15.377  27.834  0.00  0.00    -0.221 N 
ATOM     22  H   UNL     1      36.587 -16.111  27.115  0.00  0.00    +0.233 HD
ATOM     23  C   UNL     1      37.181 -14.117  27.687  0.00  0.00    +0.089 A 
ATOM     24  C   UNL     1      37.772 -13.388  26.557  0.00  0.00    +0.057 A 
ENDROOT
BRANCH   9  11
ATOM     11  C   UNL     1      35.346 -17.797  29.091  0.00  0.00    +0.106 A 
ATOM     12  C   UNL     1      34.041 -18.351  29.464  0.00  0.00    +0.061 A 
ATOM     13  C   UNL     1      33.701 -19.612  28.854  0.00  0.00    +0.033 A 
ATOM     14  C   UNL     1      34.708 -20.206  27.914  0.00  0.00    -0.067 A 
ATOM     19  C   UNL     1      36.023 -19.589  27.582  0.00  0.00    +0.033 A 
ATOM     20  C   UNL     1      36.353 -18.350  28.187  0.00  0.00    +0.061 A 
BRANCH  14  15
ATOM     15  C   UNL     1      34.359 -21.564  27.211  0.00  0.00    -0.061 C 
ATOM     16  C   UNL     1      35.126 -21.845  25.866  0.00  0.00    -0.061 C 
ATOM     17  C   UNL     1      34.691 -22.710  28.181  0.00  0.00    -0.061 C 
ATOM     18  C   UNL     1      32.831 -21.643  26.781  0.00  0.00    -0.061 C 
ENDBRANCH  14  15
ENDBRANCH   9  11
BRANCH   1   2
ATOM      2  C   UNL     1      38.811 -11.291  25.810  0.00  0.00    +0.088 C 
ATOM      3  N   UNL     1      39.256 -10.725  24.918  0.00  0.00    -0.336 NA
ENDBRANCH   1   2
TORSDOF 3
