REMARK  Name = 4o0y_ligand
REMARK  7 active torsions:
REMARK  status: ('A' for Active; 'I' for Inactive)
REMARK    1  A    between atoms: C1_1  and  C2_2
REMARK    2  A    between atoms: C2_2  and  N3_3
REMARK    3  A    between atoms: C9_9  and  C20_20
REMARK    4  A    between atoms: C21_21  and  C22_22
REMARK    5  A    between atoms: C22_22  and  C23_23
REMARK    6  A    between atoms: C22_22  and  C24_24
REMARK    7  A    between atoms: C22_22  and  O25_25
REMARK                            x       y       z     vdW  Elec       q    Type
REMARK                         _______ _______ _______ _____ _____    ______ ____
ROOT
ATOM      3  N   UNL     1      12.944 -35.582  13.945  0.00  0.00    -0.271 N 
ATOM      4  H   UNL     1      12.399 -36.117  14.636  0.00  0.00    +0.191 HD
ATOM      5  C   UNL     1      13.007 -34.203  14.056  0.00  0.00    +0.243 A 
ATOM      6  N   UNL     1      12.206 -33.454  14.888  0.00  0.00    -0.131 N 
ATOM      7  C   UNL     1      11.238 -33.954  15.754  0.00  0.00    +0.247 A 
ATOM      8  N   UNL     1      10.681 -33.135  16.646  0.00  0.00    -0.201 NA
ATOM      9  C   UNL     1       9.768 -33.596  17.488  0.00  0.00    +0.192 A 
ATOM     10  N   UNL     1       9.207 -32.711  18.374  0.00  0.00    -0.299 N 
ATOM     11  H   UNL     1       9.499 -31.723  18.370  0.00  0.00    +0.186 HD
ATOM     12  H   UNL     1       8.494 -33.034  19.043  0.00  0.00    +0.186 HD
ATOM     13  N   UNL     1       9.406 -34.890  17.461  0.00  0.00    -0.237 NA
ATOM     14  C   UNL     1       9.974 -35.714  16.579  0.00  0.00    +0.193 A 
ATOM     15  N   UNL     1      10.891 -35.248  15.730  0.00  0.00    -0.229 NA
ATOM     16  C   UNL     1      12.562 -32.118  14.724  0.00  0.00    +0.106 A 
ATOM     17  C   UNL     1      12.121 -30.920  15.270  0.00  0.00    +0.033 A 
ATOM     18  C   UNL     1      12.698 -29.709  14.882  0.00  0.00    +0.010 A 
ATOM     26  C   UNL     1      13.735 -29.705  13.938  0.00  0.00    -0.010 A 
ATOM     27  C   UNL     1      14.166 -30.888  13.381  0.00  0.00    -0.013 A 
ATOM     28  C   UNL     1      13.596 -32.114  13.765  0.00  0.00    +0.020 A 
ATOM     29  N   UNL     1      13.823 -33.412  13.401  0.00  0.00    -0.304 NA
ENDROOT
BRANCH   3   2
ATOM      1  C   UNL     1      12.722 -36.482  11.648  0.00  0.00    +0.031 C 
ATOM      2  C   UNL     1      13.637 -36.305  12.863  0.00  0.00    +0.136 C 
ENDBRANCH   3   2
BRANCH  18  19
ATOM     19  C   UNL     1      12.232 -28.485  15.474  0.00  0.00    -0.073 C 
ATOM     20  C   UNL     1      11.833 -27.489  15.954  0.00  0.00    -0.068 C 
BRANCH  20  21
ATOM     21  C   UNL     1      11.271 -26.279  16.588  0.00  0.00    +0.120 C 
ATOM     24  C   UNL     1      11.923 -26.074  17.952  0.00  0.00    +0.054 C 
ATOM     25  C   UNL     1       9.761 -26.506  16.736  0.00  0.00    +0.054 C 
BRANCH  21  22
ATOM     22  O   UNL     1      11.427 -25.106  15.776  0.00  0.00    -0.377 OA
ATOM     23  H   UNL     1      12.352 -24.926  15.657  0.00  0.00    +0.211 HD
ENDBRANCH  21  22
ENDBRANCH  20  21
ENDBRANCH  18  19
TORSDOF 4
