REMARK  Name = 201
REMARK  11 active torsions:
REMARK  status: ('A' for Active; 'I' for Inactive)
REMARK    1  A    between atoms: C06_11  and  C06_12
REMARK    2  A    between atoms: C06_12  and  C13_26
REMARK    3  A    between atoms: C13_26  and  C14_28
REMARK    4  A    between atoms: O17_34  and  C19_37
REMARK    5  A    between atoms: O17_34  and  C20_39
REMARK    6  A    between atoms: N18_35  and  N18_36
REMARK    7  A    between atoms: C20_39  and  C21_41
REMARK    8  A    between atoms: C21_41  and  C22_43
REMARK    9  A    between atoms: C25_49  and  C25_50
REMARK   10  A    between atoms: C25_49  and  C26_52
REMARK   11  A    between atoms: C26_51  and  C26_52
REMARK                            x       y       z     vdW  Elec       q    Type
REMARK                         _______ _______ _______ _____ _____    ______ ____
ROOT
ATOM      1  O   UNL     1      -4.000  -6.813  -2.567  0.00  0.00    -0.279 OA
ATOM      2  C   UNL     1      -4.000  -7.558  -1.803  0.00  0.00    +0.279 C 
ENDROOT
TORSDOF 0
