REMARK  Name = 3be2_ligand
REMARK  12 active torsions:
REMARK  status: ('A' for Active; 'I' for Inactive)
REMARK    1  A    between atoms: C28_1  and  N6_2
REMARK    2  A    between atoms: N6_2  and  C29_3
REMARK    3  A    between atoms: N6_2  and  C27_4
REMARK    4  A    between atoms: C27_4  and  C26_5
REMARK    5  A    between atoms: C26_5  and  C25_6
REMARK    6  A    between atoms: C25_6  and  C20_7
REMARK    7  A    between atoms: C22_10  and  C24_11
REMARK    8  A    between atoms: C18_16  and  N5_17
REMARK    9  A    between atoms: C17_18  and  C12_20
REMARK   10  A    between atoms: C15_24  and  C16_25
REMARK   11  A    between atoms: C10_26  and  N4_27
REMARK   12  A    between atoms: C5_33  and  C3_34
REMARK                            x       y       z     vdW  Elec       q    Type
REMARK                         _______ _______ _______ _____ _____    ______ ____
ROOT
ATOM     12  N   UNL     1      35.463  33.686  13.489  0.00  0.00    -0.230 N 
ATOM     13  H   UNL     1      36.138  33.227  14.067  0.00  0.00    +0.225 HD
ATOM     14  C   UNL     1      35.481  33.421  12.155  0.00  0.00    +0.225 C 
ATOM     36  O   UNL     1      34.774  33.991  11.327  0.00  0.00    -0.376 OA
ENDROOT
BRANCH  14  15
ATOM     15  C   UNL     1      36.417  32.376  11.751  0.00  0.00    +0.039 A 
ATOM     16  C   UNL     1      37.127  31.641  12.762  0.00  0.00    -0.004 A 
ATOM     17  C   UNL     1      38.025  30.584  12.370  0.00  0.00    -0.010 A 
ATOM     18  C   UNL     1      38.147  30.338  10.970  0.00  0.00    -0.017 A 
ATOM     19  C   UNL     1      37.440  31.075   9.969  0.00  0.00    +0.071 A 
ATOM     34  C   UNL     1      39.062  29.238  10.524  0.00  0.00    +0.083 C 
ATOM     35  C   UNL     1      36.540  32.132  10.336  0.00  0.00    +0.032 A 
BRANCH  19  20
ATOM     20  N   UNL     1      37.631  30.757   8.653  0.00  0.00    -0.258 N 
ATOM     21  H   UNL     1      37.093  29.967   8.270  0.00  0.00    +0.213 HD
ATOM     22  C   UNL     1      38.486  31.412   7.807  0.00  0.00    +0.147 A 
ATOM     23  C   UNL     1      38.535  31.121   6.392  0.00  0.00    +0.058 A 
ATOM     30  C   UNL     1      39.510  31.945   5.673  0.00  0.00    +0.035 A 
ATOM     31  C   UNL     1      40.343  32.947   6.288  0.00  0.00    +0.018 A 
ATOM     32  C   UNL     1      40.234  33.176   7.700  0.00  0.00    +0.081 A 
ATOM     33  N   UNL     1      39.313  32.392   8.364  0.00  0.00    -0.276 NA
BRANCH  23  24
ATOM     24  C   UNL     1      37.660  30.088   5.708  0.00  0.00    +0.071 A 
ATOM     25  N   UNL     1      36.722  29.365   6.507  0.00  0.00    -0.262 NA
ATOM     26  C   UNL     1      35.862  28.412   6.034  0.00  0.00    +0.197 A 
ATOM     27  N   UNL     1      35.933  28.154   4.695  0.00  0.00    -0.267 NA
ATOM     28  C   UNL     1      36.800  28.788   3.830  0.00  0.00    +0.118 A 
ATOM     29  C   UNL     1      37.712  29.789   4.276  0.00  0.00    +0.071 A 
ENDBRANCH  23  24
ENDBRANCH  19  20
ENDBRANCH  14  15
BRANCH  12  11
ATOM      7  C   UNL     1      34.063  36.155  15.932  0.00  0.00    -0.025 A 
ATOM      8  C   UNL     1      32.731  36.335  15.406  0.00  0.00    +0.023 A 
ATOM      9  C   UNL     1      32.291  35.630  14.217  0.00  0.00    +0.027 A 
ATOM     10  C   UNL     1      33.246  34.747  13.593  0.00  0.00    +0.048 A 
ATOM     11  C   UNL     1      34.572  34.549  14.096  0.00  0.00    +0.089 A 
ATOM     41  C   UNL     1      34.974  35.259  15.270  0.00  0.00    +0.061 A 
BRANCH   9  37
ATOM     37  C   UNL     1      30.860  35.816  13.623  0.00  0.00    +0.371 C 
ATOM     38  F   UNL     1      30.561  34.930  12.711  0.00  0.00    -0.221 F 
ATOM     39  F   UNL     1      29.952  35.720  14.560  0.00  0.00    -0.221 F 
ATOM     40  F   UNL     1      30.763  36.992  13.044  0.00  0.00    -0.221 F 
ENDBRANCH   9  37
BRANCH   7   6
ATOM      6  C   UNL     1      34.472  36.941  17.169  0.00  0.00    +0.075 C 
BRANCH   6   5
ATOM      5  C   UNL     1      35.928  37.379  17.115  0.00  0.00    +0.065 C 
BRANCH   5   4
ATOM      4  C   UNL     1      36.147  38.442  16.055  0.00  0.00    +0.133 C 
BRANCH   4   2
ATOM      1  C   UNL     1      37.730  40.088  15.362  0.00  0.00    +0.190 C 
ATOM      2  N   UNL     1      37.590  38.753  15.960  0.00  0.00    +0.231 N 
ATOM      3  H   UNL     1      37.986  38.761  16.887  0.00  0.00    +0.203 HD
ATOM     42  C   UNL     1      38.307  37.750  15.151  0.00  0.00    +0.190 C 
ENDBRANCH   4   2
ENDBRANCH   5   4
ENDBRANCH   6   5
ENDBRANCH   7   6
ENDBRANCH  12  11
TORSDOF 9
