REMARK  Name = 3c39_ligand
REMARK  5 active torsions:
REMARK  status: ('A' for Active; 'I' for Inactive)
REMARK    1  A    between atoms: C1_1  and  C2_4
REMARK    2  A    between atoms: C2_4  and  O3_5
REMARK    3  A    between atoms: C2_4  and  C3_6
REMARK    4  A    between atoms: C3_6  and  O1P_7
REMARK    5  A    between atoms: O1P_7  and  P_8
REMARK                            x       y       z     vdW  Elec       q    Type
REMARK                         _______ _______ _______ _____ _____    ______ ____
ROOT
ATOM      2  C   UNL     1       6.364   7.874  21.560  0.00  0.00    +0.214 C 
ENDROOT
BRANCH   2   1
ATOM      1  C   UNL     1       7.099   6.961  22.532  0.00  0.00    +0.066 C 
ATOM     11  O   UNL     1       8.234   7.252  22.932  0.00  0.00    -0.566 OA
ATOM     12  O   UNL     1       6.558   5.884  22.802  0.00  0.00    -0.566 OA
ENDBRANCH   2   1
BRANCH   2   9
ATOM      9  O   UNL     1       7.239   8.883  21.069  0.00  0.00    -0.375 OA
ATOM     10  H   UNL     1       7.563   9.401  21.796  0.00  0.00    +0.212 HD
ENDBRANCH   2   9
BRANCH   2   3
ATOM      3  C   UNL     1       5.091   8.448  22.183  0.00  0.00    +0.247 C 
BRANCH   3   4
ATOM      4  O   UNL     1       5.388   9.418  23.199  0.00  0.00    -0.272 OA
BRANCH   4   5
ATOM      5  P   UNL     1       4.341   9.676  24.414  0.00  0.00    +0.201 P 
ATOM      6  O   UNL     1       5.057  10.763  25.173  0.00  0.00    -0.554 OA
ATOM      7  O   UNL     1       3.023   9.959  23.707  0.00  0.00    -0.554 OA
ATOM      8  O   UNL     1       4.305   8.415  25.182  0.00  0.00    -0.554 OA
ENDBRANCH   4   5
ENDBRANCH   3   4
ENDBRANCH   2   3
TORSDOF 5
