REMARK  Name = 2bro_ligand
REMARK  7 active torsions:
REMARK  status: ('A' for Active; 'I' for Inactive)
REMARK    1  A    between atoms: C10_2  and  C11_3
REMARK    2  A    between atoms: C26_14  and  O27_17
REMARK    3  A    between atoms: C26_14  and  C23_25
REMARK    4  A    between atoms: N9_18  and  C8_26
REMARK    5  A    between atoms: C1_23  and  C18_24
REMARK    6  A    between atoms: C23_25  and  C8_26
REMARK    7  A    between atoms: C23_25  and  O24_27
REMARK                            x       y       z     vdW  Elec       q    Type
REMARK                         _______ _______ _______ _____ _____    ______ ____
ROOT
ATOM      1  C   UNL     1       6.008  -2.244  19.494  0.00  0.00    +0.150 A 
ATOM      2  N   UNL     1       6.400  -3.352  18.869  0.00  0.00    -0.272 NA
ATOM      3  C   UNL     1       5.528  -4.336  18.605  0.00  0.00    +0.122 A 
ATOM      4  N   UNL     1       6.029  -5.385  17.991  0.00  0.00    -0.299 N 
ATOM      5  H   UNL     1       5.431  -6.155  17.658  0.00  0.00    +0.187 HD
ATOM     13  C   UNL     1       4.191  -4.227  19.005  0.00  0.00    +0.060 A 
ATOM     14  C   UNL     1       3.019  -4.996  18.938  0.00  0.00    +0.007 A 
ATOM     21  C   UNL     1       2.017  -4.258  19.564  0.00  0.00    +0.083 A 
ATOM     22  N   UNL     1       2.540  -3.106  19.975  0.00  0.00    -0.256 N 
ATOM     23  H   UNL     1       2.014  -2.357  20.448  0.00  0.00    +0.231 HD
ATOM     30  C   UNL     1       3.848  -3.058  19.686  0.00  0.00    +0.140 A 
ATOM     31  N   UNL     1       4.764  -2.110  19.920  0.00  0.00    -0.274 NA
ENDROOT
BRANCH  14  15
ATOM     15  C   UNL     1       2.905  -6.305  18.383  0.00  0.00    -0.035 A 
ATOM     16  C   UNL     1       3.350  -7.380  19.167  0.00  0.00    -0.004 A 
ATOM     17  C   UNL     1       3.339  -8.759  18.919  0.00  0.00    -0.006 A 
ATOM     18  C   UNL     1       2.826  -8.949  17.661  0.00  0.00    -0.009 A 
ATOM     19  C   UNL     1       2.389  -7.945  16.775  0.00  0.00    -0.006 A 
ATOM     20  C   UNL     1       2.413  -6.585  17.124  0.00  0.00    -0.004 A 
ENDBRANCH  14  15
BRANCH  21  24
ATOM     24  C   UNL     1       0.675  -4.577  19.762  0.00  0.00    +0.008 A 
ATOM     25  C   UNL     1      -0.061  -3.770  20.631  0.00  0.00    +0.010 A 
ATOM     26  C   UNL     1      -1.414  -4.025  20.872  0.00  0.00    -0.000 A 
ATOM     27  C   UNL     1      -2.048  -5.090  20.250  0.00  0.00    -0.001 A 
ATOM     28  C   UNL     1      -1.325  -5.903  19.363  0.00  0.00    -0.000 A 
ATOM     29  C   UNL     1       0.031  -5.633  19.118  0.00  0.00    +0.010 A 
ENDBRANCH  21  24
BRANCH   4   6
ATOM      6  C   UNL     1       7.467  -5.401  17.808  0.00  0.00    +0.169 C 
BRANCH   6   7
ATOM      7  C   UNL     1       7.750  -4.582  16.538  0.00  0.00    +0.162 C 
BRANCH   7   8
ATOM      8  O   UNL     1       8.335  -3.264  16.836  0.00  0.00    -0.388 OA
ATOM      9  H   UNL     1       7.733  -2.767  17.377  0.00  0.00    +0.210 HD
ENDBRANCH   7   8
BRANCH   7  10
ATOM     10  C   UNL     1       8.648  -5.460  15.685  0.00  0.00    +0.189 C 
BRANCH  10  11
ATOM     11  O   UNL     1       7.840  -6.548  15.226  0.00  0.00    -0.392 OA
ATOM     12  H   UNL     1       8.366  -7.125  14.685  0.00  0.00    +0.209 HD
ENDBRANCH  10  11
ENDBRANCH   7  10
ENDBRANCH   6   7
ENDBRANCH   4   6
TORSDOF 7
