REMARK  Name = 3hp2_ligand
REMARK  5 active torsions:
REMARK  status: ('A' for Active; 'I' for Inactive)
REMARK    1  A    between atoms: C5_5  and  C7_7
REMARK    2  A    between atoms: C7_7  and  N8_8
REMARK    3  A    between atoms: C11_11  and  O15_15
REMARK    4  A    between atoms: O15_15  and  C16_16
REMARK    5  A    between atoms: C16_16  and  C17_17
REMARK                            x       y       z     vdW  Elec       q    Type
REMARK                         _______ _______ _______ _____ _____    ______ ____
ROOT
ATOM      5  N   UNL     1      33.683  38.785  23.480  0.00  0.00    -0.199 N 
ATOM      6  C   UNL     1      33.960  37.467  23.172  0.00  0.00    +0.200 A 
ATOM      7  C   UNL     1      34.624  37.131  22.056  0.00  0.00    +0.035 A 
ATOM      8  C   UNL     1      35.046  38.188  21.171  0.00  0.00    +0.089 A 
ATOM     17  C   UNL     1      34.789  39.475  21.449  0.00  0.00    +0.071 A 
ATOM     18 BR   UNL     1      35.251  40.928  20.402  0.00  0.00    -0.093 Br
ATOM     19  C   UNL     1      34.071  39.834  22.680  0.00  0.00    +0.189 A 
ATOM     20  O   UNL     1      33.883  41.020  22.887  0.00  0.00    -0.434 OA
ENDROOT
BRANCH   5   4
ATOM      4  C   UNL     1      32.963  39.094  24.691  0.00  0.00    +0.265 C 
BRANCH   4   3
ATOM      1  C   UNL     1      35.823  39.615  27.047  0.00  0.00    -0.009 A 
ATOM      2  C   UNL     1      35.071  39.624  25.893  0.00  0.00    -0.002 A 
ATOM      3  C   UNL     1      33.798  39.099  25.918  0.00  0.00    -0.011 A 
ATOM     21  C   UNL     1      33.277  38.569  27.082  0.00  0.00    -0.002 A 
ATOM     22  C   UNL     1      34.037  38.568  28.233  0.00  0.00    -0.009 A 
ATOM     23  C   UNL     1      35.309  39.089  28.213  0.00  0.00    -0.013 A 
ENDBRANCH   4   3
ENDBRANCH   5   4
BRANCH   8   9
ATOM      9  O   UNL     1      35.725  37.923  19.994  0.00  0.00    -0.301 OA
BRANCH   9  10
ATOM     10  C   UNL     1      36.062  36.559  19.732  0.00  0.00    +0.266 C 
BRANCH  10  11
ATOM     11  C   UNL     1      36.763  36.651  18.414  0.00  0.00    -0.012 A 
ATOM     12  C   UNL     1      38.080  37.056  18.354  0.00  0.00    -0.002 A 
ATOM     13  C   UNL     1      38.719  37.163  17.141  0.00  0.00    -0.009 A 
ATOM     14  C   UNL     1      38.053  36.852  15.976  0.00  0.00    -0.013 A 
ATOM     15  C   UNL     1      36.739  36.440  16.033  0.00  0.00    -0.009 A 
ATOM     16  C   UNL     1      36.095  36.350  17.249  0.00  0.00    -0.002 A 
ENDBRANCH  10  11
ENDBRANCH   9  10
ENDBRANCH   8   9
TORSDOF 5
