REMARK  Name = 2FO0
REMARK  5 active torsions:
REMARK  status: ('A' for Active; 'I' for Inactive)
REMARK    1  A    between atoms: O_1  and  C_2
REMARK    2  A    between atoms: C_2  and  C_3
REMARK    3  A    between atoms: C_7  and  N_8
REMARK    4  A    between atoms: C_14  and  C_21
REMARK    5  A    between atoms: N_17  and  C_20
REMARK                            x       y       z     vdW  Elec       q    Type
REMARK                         _______ _______ _______ _____ _____    ______ ____
ROOT
ATOM      7  N   UNL     1       2.801  12.465  15.130  0.00  0.00    -0.284 N 
ATOM      8  H   UNL     1       2.910  13.139  14.306  0.00  0.00    +0.155 HD
ATOM      9  C   UNL     1       2.089  12.959  16.224  0.00  0.00    +0.221 A 
ATOM     10  N   UNL     1       1.914  12.201  17.326  0.00  0.00    -0.196 NA
ATOM     11  C   UNL     1       1.183  12.687  18.372  0.00  0.00    +0.148 A 
ATOM     12  N   UNL     1       1.011  11.903  19.524  0.00  0.00    -0.295 N 
ATOM     13  C   UNL     1       1.639  10.559  19.564  0.00  0.00    +0.154 C 
ATOM     14  C   UNL     1       0.216  12.363  20.662  0.00  0.00    +0.260 C 
ATOM     15  O   UNL     1       0.114  11.614  21.625  0.00  0.00    -0.267 OA
ATOM     16  C   UNL     1      -0.404  13.732  20.560  0.00  0.00    +0.050 C 
ATOM     25  C   UNL     1      -0.216  14.501  19.426  0.00  0.00    +0.027 C 
ATOM     26  C   UNL     1       0.584  14.010  18.310  0.00  0.00    +0.036 A 
ATOM     27  C   UNL     1       0.834  14.748  17.100  0.00  0.00    +0.126 A 
ATOM     28  N   UNL     1       1.565  14.252  16.074  0.00  0.00    -0.222 NA
ENDROOT
BRANCH  16  17
ATOM     17  C   UNL     1      -1.237  14.190  21.708  0.00  0.00    +0.024 A 
ATOM     18  C   UNL     1      -2.683  14.073  21.663  0.00  0.00    +0.050 A 
ATOM     19 CL   UNL     1      -3.506  13.396  20.258  0.00  0.00    -0.083 Cl
ATOM     20  C   UNL     1      -3.514  14.495  22.738  0.00  0.00    +0.021 A 
ATOM     21  C   UNL     1      -2.919  15.050  23.898  0.00  0.00    +0.003 A 
ATOM     22  C   UNL     1      -1.502  15.187  23.989  0.00  0.00    +0.021 A 
ATOM     23  C   UNL     1      -0.662  14.762  22.905  0.00  0.00    +0.050 A 
ATOM     24 CL   UNL     1       1.062  14.959  23.084  0.00  0.00    -0.083 Cl
ENDBRANCH  16  17
BRANCH   7   6
ATOM      4  C   UNL     1       4.140   9.435  13.313  0.00  0.00    -0.020 A 
ATOM      5  C   UNL     1       3.567  10.715  13.592  0.00  0.00    +0.029 A 
ATOM      6  C   UNL     1       3.405  11.179  14.961  0.00  0.00    +0.034 A 
ATOM     29  C   UNL     1       3.831  10.325  16.044  0.00  0.00    +0.023 A 
ATOM     30  C   UNL     1       4.401   9.049  15.757  0.00  0.00    +0.002 A 
ATOM     31  C   UNL     1       4.557   8.600  14.416  0.00  0.00    +0.006 A 
BRANCH   4   3
ATOM      3  C   UNL     1       4.314   8.947  11.865  0.00  0.00    +0.191 C 
BRANCH   3   1
ATOM      1  O   UNL     1       3.106   8.696  11.186  0.00  0.00    -0.390 OA
ATOM      2  H   UNL     1       2.565   7.954  11.696  0.00  0.00    +0.210 HD
ENDBRANCH   3   1
ENDBRANCH   4   3
ENDBRANCH   7   6
TORSDOF 4
