REMARK  Name = 5UT2
REMARK  5 active torsions:
REMARK  status: ('A' for Active; 'I' for Inactive)
REMARK    1  A    between atoms: C_1  and  N_15
REMARK    2  A    between atoms: C_4  and  C_5
REMARK    3  A    between atoms: C_7  and  N_25
REMARK    4  A    between atoms: C_11  and  N_26
REMARK    5  A    between atoms: C_19  and  N_20
REMARK                            x       y       z     vdW  Elec       q    Type
REMARK                         _______ _______ _______ _____ _____    ______ ____
ROOT
ATOM      3  N   UNL     1      -8.643  11.622  21.520  0.00  0.00    -0.309 N 
ATOM      4  H   UNL     1      -7.836  10.933  21.382  0.00  0.00    +0.149 HD
ATOM      5  C   UNL     1      -8.642  12.887  20.862  0.00  0.00    +0.217 A 
ATOM      6  N   UNL     1      -9.785  13.537  20.802  0.00  0.00    -0.199 NA
ATOM      7  C   UNL     1      -9.806  14.710  20.195  0.00  0.00    +0.140 A 
ATOM      8  N   UNL     1     -11.007  15.476  20.094  0.00  0.00    -0.299 N 
ATOM      9  H   UNL     1     -10.938  16.413  19.581  0.00  0.00    +0.154 HD
ATOM     23  C   UNL     1      -8.667  15.224  19.631  0.00  0.00    +0.095 A 
ATOM     29  C   UNL     1      -7.500  14.496  19.717  0.00  0.00    +0.131 A 
ATOM     30  N   UNL     1      -7.515  13.334  20.340  0.00  0.00    -0.222 NA
ENDROOT
BRANCH   3   2
ATOM      1  C   UNL     1      -9.878   9.760  22.493  0.00  0.00    +0.071 C 
ATOM      2  C   UNL     1      -9.775  11.286  22.390  0.00  0.00    +0.090 C 
ATOM     31  C   UNL     1      -9.555  11.880  23.777  0.00  0.00    +0.024 C 
ATOM     32  C   UNL     1      -8.479  11.201  24.625  0.00  0.00    +0.002 C 
ATOM     33  C   UNL     1      -8.465   9.653  24.568  0.00  0.00    +0.002 C 
ATOM     37  C   UNL     1      -8.626   9.154  23.128  0.00  0.00    +0.020 C 
BRANCH   1  34
ATOM     34  N   UNL     1     -10.063   9.211  21.157  0.00  0.00    -0.326 NA
ATOM     35  H   UNL     1      -9.210   9.444  20.554  0.00  0.00    +0.118 HD
ATOM     36  H   UNL     1     -10.175   8.149  21.220  0.00  0.00    +0.118 HD
ENDBRANCH   1  34
ENDBRANCH   3   2
BRANCH   8  10
ATOM     10  C   UNL     1     -12.314  15.112  20.618  0.00  0.00    +0.035 A 
ATOM     11  C   UNL     1     -12.517  14.188  21.635  0.00  0.00    +0.052 A 
ATOM     12  C   UNL     1     -13.810  13.945  22.086  0.00  0.00    +0.084 A 
ATOM     20  C   UNL     1     -14.897  14.565  21.503  0.00  0.00    +0.029 A 
ATOM     21  C   UNL     1     -14.690  15.476  20.483  0.00  0.00    +0.004 A 
ATOM     22  C   UNL     1     -13.407  15.753  20.042  0.00  0.00    +0.023 A 
BRANCH  12  13
ATOM     13  N   UNL     1     -14.002  13.077  23.053  0.00  0.00    -0.196 N 
ATOM     14  N   UNL     1     -15.065  13.053  23.905  0.00  0.00    -0.284 N 
ATOM     15  H   UNL     1     -15.886  13.740  23.916  0.00  0.00    +0.188 HD
ATOM     16  C   UNL     1     -14.895  12.032  24.709  0.00  0.00    +0.122 A 
ATOM     17  C   UNL     1     -13.717  11.387  24.357  0.00  0.00    +0.122 A 
ATOM     18  N   UNL     1     -13.181  12.039  23.334  0.00  0.00    -0.284 N 
ATOM     19  H   UNL     1     -12.272  11.791  22.827  0.00  0.00    +0.188 HD
ENDBRANCH  12  13
ENDBRANCH   8  10
BRANCH  23  24
ATOM     24  C   UNL     1      -8.673  16.604  18.982  0.00  0.00    +0.246 C 
ATOM     25  O   UNL     1      -9.675  17.239  19.037  0.00  0.00    -0.270 OA
ATOM     26  N   UNL     1      -7.433  17.096  18.439  0.00  0.00    -0.325 N 
ATOM     27  H   UNL     1      -6.701  17.156  19.217  0.00  0.00    +0.145 HD
ATOM     28  H   UNL     1      -7.088  16.430  17.676  0.00  0.00    +0.145 HD
ENDBRANCH  23  24
TORSDOF 5
