REMARK  Name = 5CU3
REMARK  11 active torsions:
REMARK  status: ('A' for Active; 'I' for Inactive)
REMARK    1  A    between atoms: C_1  and  N_16
REMARK    2  A    between atoms: C_1  and  C_17
REMARK    3  A    between atoms: C_2  and  C_3
REMARK    4  A    between atoms: C_2  and  N_16
REMARK    5  A    between atoms: C_5  and  C_8
REMARK    6  A    between atoms: C_17  and  C_18
REMARK    7  A    between atoms: N_20  and  C_21
REMARK    8  A    between atoms: C_21  and  C_22
REMARK    9  A    between atoms: C_22  and  C_23
REMARK   10  A    between atoms: N_25  and  C_26
REMARK   11  A    between atoms: C_31  and  C_32
REMARK                            x       y       z     vdW  Elec       q    Type
REMARK                         _______ _______ _______ _____ _____    ______ ____
ROOT
ATOM      3  C   UNL     1       6.921 129.591 355.629  0.00  0.00    +0.214 C 
ATOM      4  N   UNL     1       6.736 129.022 356.816  0.00  0.00    -0.315 N 
ATOM      5  H   UNL     1       6.572 129.652 357.665  0.00  0.00    +0.149 HD
ATOM     21  O   UNL     1       7.427 128.997 354.684  0.00  0.00    -0.276 OA
ENDROOT
BRANCH   3   2
ATOM      2  C   UNL     1       6.477 131.026 355.507  0.00  0.00    +0.111 C 
BRANCH   2   1
ATOM      1  C   UNL     1       5.825 131.317 354.173  0.00  0.00    +0.090 C 
BRANCH   1  22
ATOM     22  N   UNL     1       5.299 132.680 354.094  0.00  0.00    -0.312 NA
ATOM     23  H   UNL     1       6.105 133.367 354.247  0.00  0.00    +0.122 HD
BRANCH  22  24
ATOM     24  C   UNL     1       4.676 132.970 352.804  0.00  0.00    +0.116 C 
BRANCH  24  25
ATOM     25  C   UNL     1       4.348 134.430 352.622  0.00  0.00    -0.032 A 
ATOM     26  C   UNL     1       3.320 134.821 351.773  0.00  0.00    +0.025 A 
ATOM     27  C   UNL     1       3.028 136.160 351.602  0.00  0.00    +0.049 A 
ATOM     28 CL   UNL     1       1.739 136.578 350.520  0.00  0.00    -0.083 Cl
ATOM     29  C   UNL     1       3.740 137.155 352.269  0.00  0.00    +0.001 A 
ATOM     30  C   UNL     1       4.770 136.753 353.117  0.00  0.00    +0.010 A 
ATOM     37  C   UNL     1       5.063 135.414 353.286  0.00  0.00    +0.005 A 
BRANCH  29  31
ATOM     31  C   UNL     1       3.447 138.611 352.142  0.00  0.00    -0.017 A 
ATOM     32  C   UNL     1       2.141 139.069 351.976  0.00  0.00    +0.008 A 
ATOM     33  C   UNL     1       1.870 140.423 351.896  0.00  0.00    +0.001 A 
ATOM     34  C   UNL     1       2.892 141.342 351.979  0.00  0.00    +0.000 A 
ATOM     35  C   UNL     1       4.189 140.907 352.136  0.00  0.00    +0.001 A 
ATOM     36  C   UNL     1       4.467 139.555 352.217  0.00  0.00    +0.008 A 
ENDBRANCH  29  31
ENDBRANCH  24  25
ENDBRANCH  22  24
ENDBRANCH   1  22
ENDBRANCH   2   1
ENDBRANCH   3   2
BRANCH   4   6
ATOM      6  C   UNL     1       6.747 127.580 357.011  0.00  0.00    +0.113 C 
BRANCH   6   7
ATOM      7  C   UNL     1       7.910 127.131 357.869  0.00  0.00    +0.115 C 
BRANCH   7   8
ATOM      8  C   UNL     1       7.987 127.886 359.172  0.00  0.00    +0.219 C 
ATOM      9  N   UNL     1       9.237 128.033 359.655  0.00  0.00    -0.285 N 
ATOM     10  H   UNL     1      10.027 127.675 359.028  0.00  0.00    +0.155 HD
ATOM     20  O   UNL     1       6.985 128.335 359.720  0.00  0.00    -0.275 OA
BRANCH   9  11
ATOM     11  C   UNL     1       9.635 128.602 360.888  0.00  0.00    +0.034 A 
ATOM     12  C   UNL     1      10.989 128.819 361.111  0.00  0.00    +0.033 A 
ATOM     13  C   UNL     1      11.415 129.510 362.240  0.00  0.00    -0.001 A 
ATOM     17  C   UNL     1      10.474 129.949 363.164  0.00  0.00    +0.010 A 
ATOM     18  C   UNL     1       9.127 129.707 362.956  0.00  0.00    +0.002 A 
ATOM     19  C   UNL     1       8.703 129.040 361.820  0.00  0.00    +0.023 A 
BRANCH  13  14
ATOM     14  C   UNL     1      12.852 129.861 362.391  0.00  0.00    +0.072 C 
ATOM     15  O   UNL     1      13.123 130.652 363.383  0.00  0.00    -0.545 OA
ATOM     16  O   UNL     1      13.702 129.407 361.645  0.00  0.00    -0.545 OA
ENDBRANCH  13  14
ENDBRANCH   9  11
ENDBRANCH   7   8
ENDBRANCH   6   7
ENDBRANCH   4   6
TORSDOF 11
