REMARK  Name = 5AP5
REMARK  12 active torsions:
REMARK  status: ('A' for Active; 'I' for Inactive)
REMARK    1  A    between atoms: C_2  and  O_3
REMARK    2  A    between atoms: O_3  and  C_4
REMARK    3  A    between atoms: C_4  and  C_5
REMARK    4  A    between atoms: C_4  and  C_6
REMARK    5  A    between atoms: C_4  and  C_7
REMARK    6  A    between atoms: C_9  and  C_10
REMARK    7  A    between atoms: N_14  and  C_15
REMARK    8  A    between atoms: C_20  and  N_23
REMARK    9  A    between atoms: N_23  and  C_24
REMARK   10  A    between atoms: C_27  and  C_31
REMARK   11  A    between atoms: N_33  and  C_34
REMARK   12  A    between atoms: N_33  and  C_35
REMARK                            x       y       z     vdW  Elec       q    Type
REMARK                         _______ _______ _______ _____ _____    ______ ____
ROOT
ATOM      1  O   UNL     1       2.873 -16.139 -16.198  0.00  0.00    -0.223 OA
ATOM      2  C   UNL     1       2.263 -15.119 -16.388  0.00  0.00    +0.421 C 
ATOM      3  N   UNL     1       2.058 -14.552 -17.677  0.00  0.00    -0.245 N 
ATOM      4  C   UNL     1       1.283 -13.398 -17.904  0.00  0.00    +0.065 A 
ATOM      5  C   UNL     1       0.566 -12.582 -17.034  0.00  0.00    +0.070 A 
ATOM      6  C   UNL     1      -0.116 -11.513 -17.643  0.00  0.00    +0.125 A 
ATOM     21  N   UNL     1      -0.096 -11.256 -18.994  0.00  0.00    -0.239 NA
ATOM     22  C   UNL     1       0.608 -12.065 -19.781  0.00  0.00    +0.123 A 
ATOM     23  C   UNL     1       1.313 -13.150 -19.298  0.00  0.00    +0.019 A 
ATOM     24  C   UNL     1       2.108 -14.152 -19.916  0.00  0.00    +0.038 A 
ATOM     25  C   UNL     1       2.553 -14.996 -18.945  0.00  0.00    +0.064 A 
ENDROOT
BRANCH  25  26
ATOM     26  C   UNL     1       3.354 -16.156 -19.130  0.00  0.00    +0.036 A 
ATOM     27  C   UNL     1       3.213 -17.060 -20.173  0.00  0.00    +0.118 A 
ATOM     28  N   UNL     1       4.183 -18.018 -19.980  0.00  0.00    -0.274 N 
ATOM     29  C   UNL     1       4.425 -19.180 -20.835  0.00  0.00    +0.172 C 
ATOM     30  N   UNL     1       4.933 -17.776 -18.873  0.00  0.00    -0.179 NA
ATOM     31  C   UNL     1       4.438 -16.636 -18.341  0.00  0.00    +0.144 A 
ENDBRANCH  25  26
BRANCH   6   7
ATOM      7  N   UNL     1      -0.882 -10.646 -16.857  0.00  0.00    -0.298 N 
ATOM      8  H   UNL     1      -1.460  -9.925 -17.396  0.00  0.00    +0.154 HD
BRANCH   7   9
ATOM      9  C   UNL     1      -0.997 -10.591 -15.468  0.00  0.00    +0.051 A 
ATOM     10  C   UNL     1      -0.954  -9.335 -14.865  0.00  0.00    +0.063 A 
ATOM     11 CL   UNL     1      -0.696  -7.934 -15.822  0.00  0.00    -0.082 Cl
ATOM     12  C   UNL     1      -1.109  -9.152 -13.510  0.00  0.00    +0.035 A 
ATOM     13  C   UNL     1      -1.314 -10.264 -12.724  0.00  0.00    +0.038 A 
ATOM     19  C   UNL     1      -1.350 -11.535 -13.286  0.00  0.00    +0.015 A 
ATOM     20  C   UNL     1      -1.193 -11.706 -14.648  0.00  0.00    +0.025 A 
BRANCH  13  14
ATOM     14  C   UNL     1      -1.517 -10.094 -11.270  0.00  0.00    +0.246 C 
ATOM     15  N   UNL     1      -1.055 -11.124 -10.459  0.00  0.00    -0.304 N 
ATOM     16  C   UNL     1      -1.941 -12.248 -10.113  0.00  0.00    +0.132 C 
ATOM     17  C   UNL     1       0.034 -10.893  -9.496  0.00  0.00    +0.132 C 
ATOM     18  O   UNL     1      -2.061  -9.110 -10.794  0.00  0.00    -0.270 OA
ENDBRANCH  13  14
ENDBRANCH   7   9
ENDBRANCH   6   7
BRANCH   2  32
ATOM     32  O   UNL     1       1.695 -14.402 -15.385  0.00  0.00    -0.442 OA
BRANCH  32  33
ATOM     33  C   UNL     1       1.814 -14.932 -14.024  0.00  0.00    +0.107 C 
ATOM     34  C   UNL     1       0.986 -14.033 -13.137  0.00  0.00    +0.055 C 
ATOM     35  C   UNL     1       3.277 -14.876 -13.652  0.00  0.00    +0.055 C 
ATOM     36  C   UNL     1       1.296 -16.352 -14.003  0.00  0.00    +0.055 C 
ENDBRANCH  32  33
ENDBRANCH   2  32
TORSDOF 6
