REMARK  Name = D6Z
REMARK  5 active torsions:
REMARK  status: ('A' for Active; 'I' for Inactive)
REMARK    1  A    between atoms: C8_4  and  C9_23
REMARK    2  A    between atoms: C8_4  and  N7_32
REMARK    3  A    between atoms: C13_5  and  C12_12
REMARK    4  A    between atoms: C26_10  and  C25_16
REMARK    5  A    between atoms: C12_12  and  N11_27
REMARK                            x       y       z     vdW  Elec       q    Type
REMARK                         _______ _______ _______ _____ _____    ______ ____
ROOT
ATOM      1  C   UNL     1     -15.446  -8.941 -11.376  0.00  0.00    +0.002 A 
ATOM      2  C   UNL     1     -16.002  -7.967 -10.567  0.00  0.00    +0.006 A 
ATOM      3  C   UNL     1     -16.164  -6.680 -11.060  0.00  0.00    +0.032 A 
ATOM      4 BR   UNL     1     -16.954  -5.399  -9.891  0.00  0.00    -0.049 Br
ATOM      5  C   UNL     1     -15.795  -6.357 -12.350  0.00  0.00    +0.005 A 
ATOM      6  C   UNL     1     -15.237  -7.355 -13.141  0.00  0.00    +0.051 A 
ATOM      7  N   UNL     1     -14.938  -6.855 -14.403  0.00  0.00    -0.250 N 
ATOM      8  C   UNL     1     -15.241  -5.531 -14.498  0.00  0.00    +0.233 C 
ATOM      9  O   UNL     1     -15.044  -4.823 -15.472  0.00  0.00    -0.274 OA
ATOM     19  C   UNL     1     -15.895  -5.100 -13.179  0.00  0.00    +0.093 C 
ATOM     20  C   UNL     1     -15.178  -3.884 -12.546  0.00  0.00    +0.034 C 
ATOM     21  C   UNL     1     -15.528  -2.580 -13.239  0.00  0.00    +0.095 C 
ATOM     22  N   UNL     1     -16.985  -2.402 -13.336  0.00  0.00    -0.275 N 
ATOM     23  C   UNL     1     -17.715  -1.475 -12.692  0.00  0.00    +0.267 C 
ATOM     33  O   UNL     1     -18.920  -1.381 -12.826  0.00  0.00    -0.268 OA
ATOM     34  C   UNL     1     -17.567  -3.440 -14.184  0.00  0.00    +0.095 C 
ATOM     35  C   UNL     1     -17.384  -4.775 -13.478  0.00  0.00    +0.034 C 
ATOM     36  C   UNL     1     -15.050  -8.643 -12.667  0.00  0.00    +0.015 A 
ENDROOT
BRANCH  23  24
ATOM     24  C   UNL     1     -17.027  -0.560 -11.716  0.00  0.00    +0.135 A 
ATOM     25  N   UNL     1     -16.251  -1.172 -10.807  0.00  0.00    -0.238 NA
ATOM     26  C   UNL     1     -15.615  -0.452  -9.862  0.00  0.00    +0.122 A 
ATOM     27  C   UNL     1     -14.744  -0.759  -8.792  0.00  0.00    +0.143 A 
ATOM     28  N   UNL     1     -14.403   0.356  -8.162  0.00  0.00    -0.145 NA
ATOM     29  N   UNL     1     -15.059   1.368  -8.793  0.00  0.00    -0.146 NA
ATOM     30  C   UNL     1     -15.818   0.931  -9.839  0.00  0.00    +0.122 A 
ATOM     31  C   UNL     1     -16.647   1.577 -10.753  0.00  0.00    +0.024 A 
ATOM     32  C   UNL     1     -17.277   0.805 -11.708  0.00  0.00    +0.025 A 
ENDBRANCH  23  24
BRANCH   7  10
ATOM     10  C   UNL     1     -14.315  -7.610 -15.478  0.00  0.00    +0.185 C 
BRANCH  10  11
ATOM     11  C   UNL     1     -12.801  -7.540 -15.374  0.00  0.00    +0.262 C 
ATOM     12  O   UNL     1     -12.256  -6.771 -14.583  0.00  0.00    -0.272 OA
ATOM     13  N   UNL     1     -12.124  -8.370 -16.165  0.00  0.00    -0.195 NA
BRANCH  13  14
ATOM     14  C   UNL     1     -10.685  -8.543 -16.067  0.00  0.00    +0.218 C 
BRANCH  14  15
ATOM     15  C   UNL     1      -9.967  -8.191 -17.323  0.00  0.00    +0.417 C 
ATOM     16  F   UNL     1      -8.660  -8.447 -17.243  0.00  0.00    -0.168 F 
ATOM     17  F   UNL     1     -10.064  -6.917 -17.605  0.00  0.00    -0.168 F 
ATOM     18  F   UNL     1     -10.461  -8.839 -18.385  0.00  0.00    -0.168 F 
ENDBRANCH  14  15
ENDBRANCH  13  14
ENDBRANCH  10  11
ENDBRANCH   7  10
TORSDOF 5
