REMARK  Name = 4QP9
REMARK  5 active torsions:
REMARK  status: ('A' for Active; 'I' for Inactive)
REMARK    1  A    between atoms: C_2  and  C_15
REMARK    2  A    between atoms: C_10  and  C_11
REMARK    3  A    between atoms: C_11  and  C_12
REMARK    4  A    between atoms: C_12  and  N_13
REMARK    5  A    between atoms: C_19  and  C_21
REMARK                            x       y       z     vdW  Elec       q    Type
REMARK                         _______ _______ _______ _____ _____    ______ ____
ROOT
ATOM      9  C   UNL     1      -0.008   9.582  14.084  0.00  0.00    +0.032 A 
ATOM     10  C   UNL     1      -1.310   9.702  14.745  0.00  0.00    +0.118 A 
ATOM     11  N   UNL     1      -1.729  10.317  15.844  0.00  0.00    -0.241 NA
ATOM     12  C   UNL     1      -3.014  10.260  16.170  0.00  0.00    +0.090 A 
ATOM     19  C   UNL     1      -3.907   9.538  15.378  0.00  0.00    +0.141 A 
ATOM     20  N   UNL     1      -3.489   8.924  14.285  0.00  0.00    -0.232 NA
ATOM     21  C   UNL     1      -2.217   8.984  13.930  0.00  0.00    +0.179 A 
ATOM     22  N   UNL     1      -1.518   8.462  12.867  0.00  0.00    -0.234 NA
ATOM     23  C   UNL     1      -0.200   8.819  12.973  0.00  0.00    +0.124 A 
ENDROOT
BRANCH  12  13
ATOM     13  C   UNL     1      -3.534  10.915  17.389  0.00  0.00    +0.005 A 
ATOM     14  C   UNL     1      -4.872  11.308  17.448  0.00  0.00    +0.029 A 
ATOM     15  C   UNL     1      -5.344  11.911  18.594  0.00  0.00    +0.111 A 
ATOM     16  N   UNL     1      -4.556  12.109  19.627  0.00  0.00    -0.263 NA
ATOM     17  C   UNL     1      -3.285  11.739  19.618  0.00  0.00    +0.111 A 
ATOM     18  C   UNL     1      -2.729  11.132  18.505  0.00  0.00    +0.029 A 
ENDBRANCH  12  13
BRANCH   9   8
ATOM      1  C   UNL     1       1.489  10.731  15.791  0.00  0.00    +0.116 A 
ATOM      2  N   UNL     1       2.793  11.090  15.840  0.00  0.00    -0.271 N 
ATOM      3  N   UNL     1       3.393  10.729  14.626  0.00  0.00    -0.179 NA
ATOM      4  C   UNL     1       2.493  10.163  13.867  0.00  0.00    +0.143 A 
ATOM      8  C   UNL     1       1.273  10.153  14.569  0.00  0.00    +0.023 A 
BRANCH   2   5
ATOM      5  C   UNL     1       3.468  11.746  16.964  0.00  0.00    +0.143 C 
BRANCH   5   6
ATOM      6  C   UNL     1       4.020  10.640  17.874  0.00  0.00    +0.020 C 
ATOM      7  C   UNL     1       4.856  11.255  19.014  0.00  0.00    +0.005 C 
ENDBRANCH   5   6
ENDBRANCH   2   5
ENDBRANCH   9   8
TORSDOF 4
