REMARK  Name = 4kbc_ligand
REMARK  4 active torsions:
REMARK  status: ('A' for Active; 'I' for Inactive)
REMARK    1  A    between atoms: C7_4  and  C6_5
REMARK    2  A    between atoms: C13_7  and  C15_18
REMARK    3  A    between atoms: C8_8  and  C10_14
REMARK    4  A    between atoms: C15_18  and  O1_19
REMARK                            x       y       z     vdW  Elec       q    Type
REMARK                         _______ _______ _______ _____ _____    ______ ____
ROOT
ATOM      6  C   UNL     1     -21.502  -1.671  39.887  0.00  0.00    +0.017 A 
ATOM      7  C   UNL     1     -21.229  -2.770  39.067  0.00  0.00    +0.175 A 
ATOM      8  N   UNL     1     -19.900  -2.641  38.696  0.00  0.00    -0.213 N 
ATOM      9  H   UNL     1     -19.414  -3.305  38.076  0.00  0.00    +0.262 HD
ATOM     10  N   UNL     1     -19.307  -1.543  39.239  0.00  0.00    -0.207 NA
ATOM     11  C   UNL     1     -20.281  -0.931  39.979  0.00  0.00    +0.050 A 
ENDROOT
BRANCH  11  12
ATOM     12  C   UNL     1     -19.997   0.259  40.754  0.00  0.00    -0.015 A 
ATOM     13  C   UNL     1     -20.431   0.336  42.076  0.00  0.00    +0.005 A 
ATOM     14  C   UNL     1     -20.094   1.431  42.857  0.00  0.00    +0.033 A 
ATOM     15  C   UNL     1     -19.328   2.453  42.286  0.00  0.00    +0.133 A 
ATOM     16  F   UNL     1     -18.995   3.499  43.032  0.00  0.00    -0.183 F 
ATOM     17  C   UNL     1     -18.910   2.400  40.953  0.00  0.00    +0.033 A 
ATOM     18  C   UNL     1     -19.244   1.288  40.191  0.00  0.00    +0.005 A 
ENDBRANCH  11  12
BRANCH   6   4
ATOM      1  N   UNL     1     -25.338  -0.792  41.482  0.00  0.00    -0.305 NA
ATOM      2  C   UNL     1     -24.475   0.191  41.139  0.00  0.00    +0.073 A 
ATOM      3  C   UNL     1     -23.195  -0.042  40.630  0.00  0.00    +0.017 A 
ATOM      4  C   UNL     1     -22.780  -1.362  40.470  0.00  0.00    -0.023 A 
ATOM      5  C   UNL     1     -23.633  -2.398  40.846  0.00  0.00    +0.026 A 
ATOM     19  CA  UNL     1     -24.896  -2.065  41.334  0.00  0.00    +0.045 A 
BRANCH  19  20
ATOM     20  C   UNL     1     -25.855  -3.179  41.696  0.00  0.00    +0.241 C 
BRANCH  20  21
ATOM     21  O   UNL     1     -26.196  -3.889  40.544  0.00  0.00    -0.380 OA
ATOM     22  H   UNL     1     -26.798  -4.588  40.771  0.00  0.00    +0.213 HD
ENDBRANCH  20  21
ENDBRANCH  19  20
ENDBRANCH   6   4
TORSDOF 4
