REMARK  Name = 4mpn_ligand
REMARK  6 active torsions:
REMARK  status: ('A' for Active; 'I' for Inactive)
REMARK    1  A    between atoms: O01_3  and  C02_4
REMARK    2  A    between atoms: C04_6  and  O05_7
REMARK    3  A    between atoms: C08_10  and  S09_11
REMARK    4  A    between atoms: S09_11  and  N10_12
REMARK    5  A    between atoms: C16_16  and  O20_20
REMARK    6  A    between atoms: C18_18  and  O19_19
REMARK                            x       y       z     vdW  Elec       q    Type
REMARK                         _______ _______ _______ _____ _____    ______ ____
ROOT
ATOM      1  C   UNL     1      16.475   1.824 -37.584  0.00  0.00    -0.015 A 
ATOM      2  C   UNL     1      17.712   2.478 -37.622  0.00  0.00    +0.079 A 
ATOM      5  C   UNL     1      18.785   1.859 -38.225  0.00  0.00    +0.040 A 
ATOM      6  C   UNL     1      18.645   0.586 -38.787  0.00  0.00    +0.079 A 
ATOM      9  C   UNL     1      17.418  -0.086 -38.755  0.00  0.00    -0.000 A 
ATOM     10  C   UNL     1      15.210   2.295 -37.004  0.00  0.00    +0.069 A 
ATOM     11  N   UNL     1      14.241   1.339 -37.399  0.00  0.00    -0.176 N 
ATOM     12  C   UNL     1      14.871   0.155 -37.928  0.00  0.00    +0.077 A 
ATOM     26  C   UNL     1      16.312   0.558 -38.137  0.00  0.00    -0.049 A 
ENDROOT
BRANCH  11  13
ATOM     13  S   UNL     1      12.876   0.953 -36.619  0.00  0.00    +0.122 S 
ATOM     14  O   UNL     1      12.193  -0.129 -37.297  0.00  0.00    -0.131 OA
ATOM     15  O   UNL     1      13.187   0.540 -35.258  0.00  0.00    -0.131 OA
BRANCH  13  16
ATOM     16  C   UNL     1      12.011   2.465 -36.528  0.00  0.00    +0.148 A 
ATOM     17  C   UNL     1      11.867   3.098 -35.299  0.00  0.00    +0.008 A 
ATOM     18  C   UNL     1      11.178   4.287 -35.225  0.00  0.00    +0.003 A 
ATOM     19  C   UNL     1      10.646   4.854 -36.367  0.00  0.00    +0.079 A 
ATOM     22  C   UNL     1      10.798   4.232 -37.603  0.00  0.00    +0.042 A 
ATOM     23  C   UNL     1      11.478   3.025 -37.678  0.00  0.00    +0.108 A 
BRANCH  19  20
ATOM     20  O   UNL     1       9.980   6.052 -36.264  0.00  0.00    -0.336 OA
ATOM     21  H   UNL     1       9.088   5.945 -36.573  0.00  0.00    +0.248 HD
ENDBRANCH  19  20
BRANCH  23  24
ATOM     24  O   UNL     1      11.647   2.379 -38.884  0.00  0.00    -0.334 OA
ATOM     25  H   UNL     1      12.132   1.574 -38.746  0.00  0.00    +0.248 HD
ENDBRANCH  23  24
ENDBRANCH  13  16
ENDBRANCH  11  13
BRANCH   2   3
ATOM      3  O   UNL     1      17.805   3.722 -37.062  0.00  0.00    -0.336 OA
ATOM      4  H   UNL     1      16.962   3.969 -36.701  0.00  0.00    +0.248 HD
ENDBRANCH   2   3
BRANCH   6   7
ATOM      7  O   UNL     1      19.741   0.004 -39.378  0.00  0.00    -0.336 OA
ATOM      8  H   UNL     1      19.501  -0.852 -39.714  0.00  0.00    +0.248 HD
ENDBRANCH   6   7
TORSDOF 6
