REMARK  Name = 6BRC
REMARK  11 active torsions:
REMARK  status: ('A' for Active; 'I' for Inactive)
REMARK    1  A    between atoms: C_2  and  P_17
REMARK    2  A    between atoms: C_4  and  N_12
REMARK    3  A    between atoms: C_5  and  O_18
REMARK    4  A    between atoms: C_6  and  N_13
REMARK    5  A    between atoms: C_7  and  N_13
REMARK    6  A    between atoms: C_11  and  N_15
REMARK    7  A    between atoms: N_13  and  C_23
REMARK    8  A    between atoms: P_17  and  C_28
REMARK    9  A    between atoms: P_17  and  C_29
REMARK   10  A    between atoms: O_18  and  C_27
REMARK   11  A    between atoms: N_20  and  C_26
REMARK                            x       y       z     vdW  Elec       q    Type
REMARK                         _______ _______ _______ _____ _____    ______ ____
ROOT
ATOM     14  N   UNL     1       1.503  32.532  -8.262  0.00  0.00    -0.209 NA
ATOM     15  C   UNL     1       0.348  31.957  -8.596  0.00  0.00    +0.230 A 
ATOM     16  N   UNL     1      -0.794  32.677  -8.538  0.00  0.00    -0.219 NA
ATOM     17  C   UNL     1      -1.918  32.039  -8.889  0.00  0.00    +0.138 A 
ATOM     18  C   UNL     1      -1.916  30.706  -9.245  0.00  0.00    +0.097 A 
ATOM     19  C   UNL     1      -0.698  30.025  -9.246  0.00  0.00    +0.123 A 
ATOM     20  N   UNL     1      -0.592  28.696  -9.609  0.00  0.00    -0.299 N 
ATOM     21  H   UNL     1      -1.499  28.256  -9.966  0.00  0.00    +0.154 HD
ATOM     32 CL   UNL     1      -3.398  29.899  -9.669  0.00  0.00    -0.079 Cl
ATOM     33  N   UNL     1       0.434  30.670  -8.948  0.00  0.00    -0.311 N 
ATOM     34  H   UNL     1       1.380  30.172  -8.990  0.00  0.00    +0.170 HD
ENDROOT
BRANCH  14  13
ATOM     10  C   UNL     1       5.453  31.143  -8.070  0.00  0.00    +0.033 A 
ATOM     11  C   UNL     1       4.400  30.238  -7.835  0.00  0.00    +0.025 A 
ATOM     12  C   UNL     1       3.090  30.657  -7.898  0.00  0.00    +0.033 A 
ATOM     13  C   UNL     1       2.805  31.995  -8.190  0.00  0.00    +0.109 A 
ATOM     35  C   UNL     1       3.836  32.922  -8.402  0.00  0.00    +0.147 A 
ATOM     38  C   UNL     1       5.153  32.488  -8.345  0.00  0.00    +0.070 A 
BRANCH  10   9
ATOM      1  C   UNL     1       7.835  31.480  -8.791  0.00  0.00    +0.106 C 
ATOM      2  C   UNL     1       9.075  30.664  -9.075  0.00  0.00    +0.037 C 
ATOM      3  C   UNL     1       9.553  29.947  -7.823  0.00  0.00    +0.059 C 
ATOM      4  C   UNL     1       8.457  28.987  -7.401  0.00  0.00    +0.037 C 
ATOM      5  C   UNL     1       7.248  29.774  -6.971  0.00  0.00    +0.106 C 
ATOM      9  N   UNL     1       6.773  30.756  -7.994  0.00  0.00    -0.330 N 
BRANCH   3   6
ATOM      6  N   UNL     1      10.891  29.334  -7.918  0.00  0.00    -0.305 NA
ATOM      7  C   UNL     1      11.966  30.299  -8.158  0.00  0.00    +0.105 C 
ATOM      8  C   UNL     1      10.967  28.211  -8.855  0.00  0.00    +0.105 C 
ENDBRANCH   3   6
ENDBRANCH  10   9
BRANCH  35  36
ATOM     36  O   UNL     1       3.455  34.198  -8.693  0.00  0.00    -0.493 OA
ATOM     37  C   UNL     1       4.456  35.209  -8.834  0.00  0.00    +0.277 C 
ENDBRANCH  35  36
ENDBRANCH  14  13
BRANCH  20  22
ATOM     22  C   UNL     1       0.529  27.816  -9.585  0.00  0.00    +0.043 A 
ATOM     23  C   UNL     1       1.819  28.215  -9.959  0.00  0.00    +0.024 A 
ATOM     24  C   UNL     1       2.883  27.333  -9.956  0.00  0.00    +0.002 A 
ATOM     25  C   UNL     1       2.691  26.012  -9.593  0.00  0.00    +0.001 A 
ATOM     26  C   UNL     1       1.421  25.572  -9.253  0.00  0.00    +0.013 A 
ATOM     27  C   UNL     1       0.336  26.466  -9.244  0.00  0.00    +0.033 A 
BRANCH  27  28
ATOM     28  P   UNL     1      -1.223  25.750  -8.741  0.00  0.00    +0.112 P 
ATOM     29  C   UNL     1      -2.756  26.442  -9.342  0.00  0.00    +0.085 C 
ATOM     30  C   UNL     1      -1.132  25.818  -6.953  0.00  0.00    +0.085 C 
ATOM     31  O   UNL     1      -1.267  24.308  -9.133  0.00  0.00    -0.317 OA
ENDBRANCH  27  28
ENDBRANCH  20  22
TORSDOF 6
