REMARK  Name = 4v04_ligand
REMARK  9 active torsions:
REMARK  status: ('A' for Active; 'I' for Inactive)
REMARK    1  A    between atoms: N3_2  and  C20_12
REMARK    2  A    between atoms: C4_3  and  C5_4
REMARK    3  A    between atoms: C6_5  and  C11_26
REMARK    4  A    between atoms: C13_9  and  N2_29
REMARK    5  A    between atoms: C17_11  and  C19_33
REMARK    6  A    between atoms: C20_12  and  C16_31
REMARK    7  A    between atoms: C2_23  and  C3_24
REMARK    8  A    between atoms: C9_25  and  C12_27
REMARK    9  A    between atoms: C25_38  and  N4_39
REMARK                            x       y       z     vdW  Elec       q    Type
REMARK                         _______ _______ _______ _____ _____    ______ ____
ROOT
ATOM      9  C   UNL     1      88.153   0.951  18.133  0.00  0.00    +0.226 C 
ATOM     10  N   UNL     1      88.599   1.274  19.405  0.00  0.00    -0.232 N 
ATOM     11  H   UNL     1      89.386   1.889  19.450  0.00  0.00    +0.224 HD
ATOM     32  O   UNL     1      87.281   0.137  17.907  0.00  0.00    -0.377 OA
ENDROOT
BRANCH   9   8
ATOM      6  C   UNL     1      88.838   2.042  14.617  0.00  0.00    +0.026 A 
ATOM      7  C   UNL     1      88.301   1.422  15.722  0.00  0.00    +0.030 A 
ATOM      8  C   UNL     1      88.802   1.677  16.996  0.00  0.00    +0.048 A 
ATOM     33  C   UNL     1      89.857   2.555  17.126  0.00  0.00    +0.014 A 
ATOM     34  C   UNL     1      90.404   3.161  16.012  0.00  0.00    +0.002 A 
ATOM     35  C   UNL     1      89.918   2.905  14.739  0.00  0.00    -0.027 A 
ATOM     36  C   UNL     1      90.534   3.547  13.546  0.00  0.00    +0.093 C 
BRANCH   6   5
ATOM      4  C   UNL     1      88.013   1.250  12.260  0.00  0.00    -0.047 C 
ATOM      5  C   UNL     1      88.342   1.694  13.325  0.00  0.00    -0.077 C 
BRANCH   4   3
ATOM      1  N   UNL     1      87.362  -0.880   9.403  0.00  0.00    -0.325 NA
ATOM      2  C   UNL     1      88.029  -0.600  10.564  0.00  0.00    +0.056 A 
ATOM      3  C   UNL     1      87.614   0.604  11.065  0.00  0.00    +0.159 A 
ATOM     37  N   UNL     1      86.644   1.068  10.218  0.00  0.00    -0.119 N 
ATOM     38  N   UNL     1      85.911   2.226  10.355  0.00  0.00    -0.141 NA
ATOM     39  C   UNL     1      85.046   2.390   9.402  0.00  0.00    +0.149 A 
ATOM     40  C   UNL     1      84.841   1.495   8.309  0.00  0.00    +0.046 A 
ATOM     41  C   UNL     1      85.571   0.382   8.211  0.00  0.00    +0.080 A 
ATOM     42  C   UNL     1      86.518   0.126   9.211  0.00  0.00    +0.169 A 
ENDBRANCH   4   3
ENDBRANCH   6   5
ENDBRANCH   9   8
BRANCH  10  12
ATOM     12  C   UNL     1      88.086   0.847  20.633  0.00  0.00    +0.088 A 
ATOM     13  C   UNL     1      87.540  -0.409  20.767  0.00  0.00    +0.045 A 
ATOM     14  C   UNL     1      87.007  -0.839  21.971  0.00  0.00    +0.039 A 
ATOM     19  C   UNL     1      87.030   0.004  23.079  0.00  0.00    +0.025 A 
ATOM     30  C   UNL     1      87.609   1.256  22.939  0.00  0.00    +0.030 A 
ATOM     31  C   UNL     1      88.123   1.679  21.727  0.00  0.00    +0.062 A 
BRANCH  14  15
ATOM     15  C   UNL     1      86.394  -2.209  22.008  0.00  0.00    +0.364 C 
ATOM     16  F   UNL     1      86.374  -2.842  20.810  0.00  0.00    -0.229 F 
ATOM     17  F   UNL     1      87.043  -3.083  22.834  0.00  0.00    -0.229 F 
ATOM     18  F   UNL     1      85.087  -2.151  22.378  0.00  0.00    -0.229 F 
ENDBRANCH  14  15
BRANCH  19  20
ATOM     20  C   UNL     1      86.449  -0.420  24.419  0.00  0.00    +0.222 C 
BRANCH  20  21
ATOM     21  N   UNL     1      85.939   0.690  25.276  0.00  0.00    +0.259 N 
ATOM     22  H   UNL     1      86.596   1.451  25.198  0.00  0.00    +0.206 HD
ATOM     23  C   UNL     1      85.857   0.315  26.698  0.00  0.00    +0.185 C 
ATOM     24  C   UNL     1      85.447   1.496  27.549  0.00  0.00    +0.183 C 
ATOM     25  N   UNL     1      84.143   2.035  27.095  0.00  0.00    +0.240 N 
ATOM     26  H   UNL     1      83.469   1.292  27.193  0.00  0.00    +0.203 HD
ATOM     27  C   UNL     1      83.660   3.155  27.929  0.00  0.00    +0.191 C 
ATOM     28  C   UNL     1      84.198   2.387  25.643  0.00  0.00    +0.183 C 
ATOM     29  C   UNL     1      84.612   1.188  24.820  0.00  0.00    +0.185 C 
ENDBRANCH  20  21
ENDBRANCH  19  20
ENDBRANCH  10  12
TORSDOF 7
