REMARK  Name = 3DKO
REMARK  7 active torsions:
REMARK  status: ('A' for Active; 'I' for Inactive)
REMARK    1  A    between atoms: C_2  and  C_5
REMARK    2  A    between atoms: C_10  and  N_11
REMARK    3  A    between atoms: C_12  and  C_14
REMARK    4  A    between atoms: C_18  and  C_19
REMARK    5  A    between atoms: C_20  and  N_21
REMARK    6  A    between atoms: N_21  and  C_22
REMARK    7  A    between atoms: C_27  and  C_28
REMARK                            x       y       z     vdW  Elec       q    Type
REMARK                         _______ _______ _______ _____ _____    ______ ____
ROOT
ATOM     11  C   UNL     1     -20.266   9.754 -10.250  0.00  0.00    +0.039 A 
ATOM     12  C   UNL     1     -21.602   9.358 -10.337  0.00  0.00    +0.013 A 
ATOM     13  C   UNL     1     -22.269   9.523 -11.552  0.00  0.00    +0.006 A 
ATOM     14  C   UNL     1     -21.629  10.068 -12.675  0.00  0.00    -0.029 A 
ATOM     15  C   UNL     1     -20.284  10.449 -12.608  0.00  0.00    +0.035 A 
ATOM     29  C   UNL     1     -22.442  10.224 -13.965  0.00  0.00    +0.045 C 
ATOM     30  C   UNL     1     -19.635  10.293 -11.376  0.00  0.00    +0.036 A 
ENDROOT
BRANCH  11  10
ATOM      8  N   UNL     1     -20.132   9.785  -7.790  0.00  0.00    -0.281 N 
ATOM      9  H   UNL     1     -21.172  10.021  -7.874  0.00  0.00    +0.155 HD
ATOM     10  C   UNL     1     -19.457   9.604  -8.948  0.00  0.00    +0.248 C 
ATOM     31  O   UNL     1     -18.253   9.359  -9.034  0.00  0.00    -0.270 OA
BRANCH   8   7
ATOM      3  C   UNL     1     -17.804   9.857  -4.921  0.00  0.00    +0.057 A 
ATOM      4  C   UNL     1     -18.675   9.501  -3.881  0.00  0.00    +0.012 A 
ATOM      5  C   UNL     1     -20.014   9.247  -4.163  0.00  0.00    +0.002 A 
ATOM      6  C   UNL     1     -20.477   9.351  -5.479  0.00  0.00    +0.023 A 
ATOM      7  C   UNL     1     -19.627   9.699  -6.530  0.00  0.00    +0.034 A 
ATOM     32  C   UNL     1     -18.282   9.943  -6.230  0.00  0.00    +0.035 A 
BRANCH   3   2
ATOM      1  F   UNL     1     -15.951  11.295  -5.196  0.00  0.00    -0.166 F 
ATOM      2  C   UNL     1     -16.306  10.129  -4.647  0.00  0.00    +0.417 C 
ATOM     33  F   UNL     1     -15.591   9.159  -5.219  0.00  0.00    -0.166 F 
ATOM     34  F   UNL     1     -16.039  10.116  -3.331  0.00  0.00    -0.166 F 
ENDBRANCH   3   2
ENDBRANCH   8   7
ENDBRANCH  11  10
BRANCH  15  16
ATOM     16  N   UNL     1     -19.592  11.009 -13.640  0.00  0.00    -0.313 N 
ATOM     17  H   UNL     1     -19.196  11.982 -13.438  0.00  0.00    +0.152 HD
BRANCH  16  18
ATOM     18  C   UNL     1     -19.324  10.532 -14.882  0.00  0.00    +0.050 A 
ATOM     19  C   UNL     1     -18.465  11.269 -15.725  0.00  0.00    +0.134 A 
ATOM     20  N   UNL     1     -18.176  10.853 -16.959  0.00  0.00    -0.261 NA
ATOM     21  C   UNL     1     -18.683   9.715 -17.443  0.00  0.00    +0.124 A 
ATOM     22  C   UNL     1     -19.551   8.920 -16.674  0.00  0.00    +0.056 A 
ATOM     28  C   UNL     1     -19.865   9.338 -15.376  0.00  0.00    +0.039 A 
BRANCH  22  23
ATOM     23  C   UNL     1     -20.154   7.592 -17.199  0.00  0.00    +0.243 C 
ATOM     24  N   UNL     1     -19.663   7.123 -18.351  0.00  0.00    -0.325 N 
ATOM     25  H   UNL     1     -20.041   6.210 -18.762  0.00  0.00    +0.145 HD
ATOM     26  H   UNL     1     -18.892   7.660 -18.862  0.00  0.00    +0.145 HD
ATOM     27  O   UNL     1     -21.038   7.016 -16.562  0.00  0.00    -0.270 OA
ENDBRANCH  22  23
ENDBRANCH  16  18
ENDBRANCH  15  16
TORSDOF 6
