REMARK  Name = 3QZH
REMARK  7 active torsions:
REMARK  status: ('A' for Active; 'I' for Inactive)
REMARK    1  A    between atoms: N_1  and  C_7
REMARK    2  A    between atoms: N_1  and  C_12
REMARK    3  A    between atoms: N_4  and  C_10
REMARK    4  A    between atoms: C_6  and  C_11
REMARK    5  A    between atoms: C_9  and  O_22
REMARK    6  A    between atoms: C_12  and  C_13
REMARK    7  A    between atoms: C_18  and  O_22
REMARK                            x       y       z     vdW  Elec       q    Type
REMARK                         _______ _______ _______ _____ _____    ______ ____
ROOT
ATOM     10  C   UNL     1     -38.664 -45.775  24.326  0.00  0.00    +0.043 A 
ATOM     11  C   UNL     1     -39.056 -45.255  25.612  0.00  0.00    +0.071 A 
ATOM     12  C   UNL     1     -40.383 -44.782  25.853  0.00  0.00    +0.152 A 
ATOM     15  C   UNL     1     -41.357 -44.818  24.795  0.00  0.00    +0.168 A 
ATOM     16  C   UNL     1     -40.971 -45.332  23.522  0.00  0.00    +0.051 A 
ATOM     20  C   UNL     1     -39.646 -45.809  23.274  0.00  0.00    +0.060 A 
ENDROOT
BRANCH  20  21
ATOM     21  C   UNL     1     -39.354 -46.285  22.024  0.00  0.00    +0.243 C 
ATOM     22  O   UNL     1     -38.478 -47.103  21.854  0.00  0.00    -0.270 OA
ATOM     23  N   UNL     1     -40.058 -45.823  20.946  0.00  0.00    -0.325 N 
ATOM     24  H   UNL     1     -39.837 -46.190  19.965  0.00  0.00    +0.145 HD
ATOM     25  H   UNL     1     -40.830 -45.095  21.083  0.00  0.00    +0.145 HD
ENDBRANCH  20  21
BRANCH  15  17
ATOM     17  N   UNL     1     -42.564 -44.396  24.971  0.00  0.00    +0.060 N 
ATOM     18  O   UNL     1     -43.547 -44.796  24.178  0.00  0.00    -0.126 OA
ATOM     19  O   UNL     1     -42.844 -43.545  25.925  0.00  0.00    -0.126 OA
ENDBRANCH  15  17
BRANCH  10   1
ATOM      1  N   UNL     1     -37.447 -46.212  24.103  0.00  0.00    -0.339 N 
ATOM      2  H   UNL     1     -37.291 -46.835  23.247  0.00  0.00    +0.146 HD
BRANCH   1   3
ATOM      3  C   UNL     1     -36.267 -45.902  24.957  0.00  0.00    +0.138 C 
BRANCH   3   4
ATOM      4  C   UNL     1     -36.059 -46.975  26.007  0.00  0.00    -0.012 A 
ATOM      5  C   UNL     1     -35.958 -46.637  27.382  0.00  0.00    +0.008 A 
ATOM      6  C   UNL     1     -35.769 -47.644  28.363  0.00  0.00    +0.020 A 
ATOM      7  C   UNL     1     -35.686 -48.974  27.923  0.00  0.00    +0.111 A 
ATOM      8  N   UNL     1     -35.780 -49.338  26.598  0.00  0.00    -0.263 NA
ATOM      9  C   UNL     1     -35.964 -48.339  25.665  0.00  0.00    +0.115 A 
ENDBRANCH   3   4
ENDBRANCH   1   3
ENDBRANCH  10   1
BRANCH  12  13
ATOM     13  O   UNL     1     -40.715 -44.293  27.088  0.00  0.00    -0.493 OA
ATOM     14  C   UNL     1     -40.951 -45.142  28.186  0.00  0.00    +0.277 C 
ENDBRANCH  12  13
TORSDOF 6
