REMARK  Name = 2vta_ligand
REMARK  0 active torsions:
REMARK  status: ('A' for Active; 'I' for Inactive)
REMARK                            x       y       z     vdW  Elec       q    Type
REMARK                         _______ _______ _______ _____ _____    ______ ____
ROOT
ATOM      1  C   UNL     1      26.647   4.430  64.263  0.00  0.00    -0.014 A 
ATOM      2  N   UNL     1      27.308   3.547  65.078  0.00  0.00    -0.334 NA
ATOM      3  N   UNL     1      28.364   4.137  65.698  0.00  0.00    -0.245 N 
ATOM      4  H   UNL     1      29.021   3.690  66.354  0.00  0.00    +0.293 HD
ATOM      5  C   UNL     1      28.384   5.413  65.290  0.00  0.00    +0.246 A 
ATOM      6  C   UNL     1      25.545   4.309  63.426  0.00  0.00    +0.003 A 
ATOM      7  C   UNL     1      25.103   5.401  62.706  0.00  0.00    +0.000 A 
ATOM      8  C   UNL     1      25.762   6.612  62.813  0.00  0.00    +0.001 A 
ATOM      9  C   UNL     1      26.864   6.738  63.640  0.00  0.00    +0.016 A 
ATOM     10  C   UNL     1      27.329   5.650  64.375  0.00  0.00    +0.033 A 
ENDROOT
TORSDOF 0
