REMARK  Name = 1p5e_ligand
REMARK  0 active torsions:
REMARK  status: ('A' for Active; 'I' for Inactive)
REMARK                            x       y       z     vdW  Elec       q    Type
REMARK                         _______ _______ _______ _____ _____    ______ ____
ROOT
ATOM      1  C   UNL     1       7.536  44.823  50.568  0.00  0.00    +0.028 A 
ATOM      2 BR   UNL     1       8.072  43.545  49.311  0.00  0.00    -0.048 Br
ATOM      3  C   UNL     1       6.210  45.057  50.882  0.00  0.00    +0.057 A 
ATOM      4 BR   UNL     1       4.858  44.086  50.030  0.00  0.00    -0.049 Br
ATOM      5  C   UNL     1       5.849  46.004  51.817  0.00  0.00    +0.128 A 
ATOM      6  N   UNL     1       4.619  46.415  52.292  0.00  0.00    -0.170 N 
ATOM      7  H   UNL     1       3.684  46.074  52.028  0.00  0.00    +0.260 HD
ATOM      8  N   UNL     1       4.962  47.431  53.241  0.00  0.00    -0.073 NA
ATOM      9  N   UNL     1       6.371  47.648  53.362  0.00  0.00    -0.194 NA
ATOM     10  C   UNL     1       6.905  46.744  52.464  0.00  0.00    +0.092 A 
ATOM     11  C   UNL     1       8.205  46.462  52.106  0.00  0.00    +0.039 A 
ATOM     12 BR   UNL     1       9.598  47.386  52.901  0.00  0.00    -0.045 Br
ATOM     13  C   UNL     1       8.541  45.520  51.172  0.00  0.00    +0.026 A 
ATOM     14 BR   UNL     1      10.349  45.157  50.717  0.00  0.00    -0.052 Br
ENDROOT
TORSDOF 0
