REMARK  Name = 4ap7_ligand
REMARK  4 active torsions:
REMARK  status: ('A' for Active; 'I' for Inactive)
REMARK    1  A    between atoms: C18_4  and  C1_7
REMARK    2  A    between atoms: C11_10  and  C10_18
REMARK    3  A    between atoms: C14_15  and  O17_16
REMARK    4  A    between atoms: C10_18  and  C9_19
REMARK                            x       y       z     vdW  Elec       q    Type
REMARK                         _______ _______ _______ _____ _____    ______ ____
ROOT
ATOM      6  C   UNL     1      18.037  12.232  41.150  0.00  0.00    +0.132 A 
ATOM      7  N   UNL     1      18.401  11.027  40.629  0.00  0.00    -0.109 NA
ATOM      8  N   UNL     1      18.226  10.799  39.210  0.00  0.00    -0.075 N 
ATOM      9  C   UNL     1      18.495   9.748  38.478  0.00  0.00    +0.184 A 
ATOM     10  N   UNL     1      18.166  10.029  37.275  0.00  0.00    -0.266 NA
ATOM     11  N   UNL     1      17.667  11.291  37.200  0.00  0.00    -0.265 NA
ATOM     21  C   UNL     1      17.702  11.793  38.441  0.00  0.00    +0.250 A 
ATOM     22  N   UNL     1      17.341  12.975  38.951  0.00  0.00    -0.226 NA
ATOM     23  C   UNL     1      17.494  13.209  40.252  0.00  0.00    +0.176 A 
ENDROOT
BRANCH   6   5
ATOM      1  F   UNL     1      18.822  13.134  46.686  0.00  0.00    -0.181 F 
ATOM      2  C   UNL     1      18.641  12.892  45.336  0.00  0.00    +0.135 A 
ATOM      3  C   UNL     1      19.249  11.759  44.733  0.00  0.00    +0.036 A 
ATOM      4  C   UNL     1      19.028  11.568  43.357  0.00  0.00    +0.012 A 
ATOM      5  C   UNL     1      18.229  12.483  42.627  0.00  0.00    +0.010 A 
ATOM     24  C   UNL     1      17.627  13.624  43.275  0.00  0.00    +0.012 A 
ATOM     25  C   UNL     1      17.858  13.796  44.644  0.00  0.00    +0.036 A 
ENDBRANCH   6   5
BRANCH   9  12
ATOM     12  C   UNL     1      19.090   8.452  39.013  0.00  0.00    +0.185 C 
BRANCH  12  13
ATOM     13  C   UNL     1      20.496   8.509  39.452  0.00  0.00    -0.036 A 
ATOM     14  C   UNL     1      20.802   8.578  40.857  0.00  0.00    -0.013 A 
ATOM     15  C   UNL     1      22.199   8.629  41.238  0.00  0.00    +0.013 A 
ATOM     16  C   UNL     1      23.272   8.614  40.271  0.00  0.00    +0.081 A 
ATOM     19  C   UNL     1      22.939   8.549  38.925  0.00  0.00    +0.013 A 
ATOM     20  C   UNL     1      21.588   8.496  38.489  0.00  0.00    -0.013 A 
BRANCH  16  17
ATOM     17  O   UNL     1      24.622   8.661  40.630  0.00  0.00    -0.337 OA
ATOM     18  H   UNL     1      25.158   8.641  39.846  0.00  0.00    +0.246 HD
ENDBRANCH  16  17
ENDBRANCH  12  13
ENDBRANCH   9  12
TORSDOF 4
