REMARK  Name = 4gu6_ligand
REMARK  8 active torsions:
REMARK  status: ('A' for Active; 'I' for Inactive)
REMARK    1  A    between atoms: C3_3  and  C30_30
REMARK    2  A    between atoms: C4_4  and  N5_5
REMARK    3  A    between atoms: N5_5  and  C6_6
REMARK    4  A    between atoms: C6_6  and  C7_7
REMARK    5  A    between atoms: N13_13  and  S14_14
REMARK    6  A    between atoms: N13_13  and  C18_18
REMARK    7  A    between atoms: S14_14  and  C17_17
REMARK    8  A    between atoms: C22_22  and  C24_24
REMARK                            x       y       z     vdW  Elec       q    Type
REMARK                         _______ _______ _______ _____ _____    ______ ____
ROOT
ATOM      1  N   UNL     1      23.630  -6.707 -39.417  0.00  0.00    -0.294 NA
ATOM      2  C   UNL     1      23.657  -7.399 -40.540  0.00  0.00    +0.130 A 
ATOM      3  N   UNL     1      24.397  -8.479 -40.898  0.00  0.00    -0.263 N 
ATOM      4  H   UNL     1      25.093  -8.940 -40.295  0.00  0.00    +0.228 HD
ATOM      5  C   UNL     1      24.089  -8.867 -42.167  0.00  0.00    +0.066 A 
ATOM     12  C   UNL     1      23.132  -8.044 -42.668  0.00  0.00    -0.009 A 
ATOM     13  C   UNL     1      22.823  -7.065 -41.624  0.00  0.00    +0.038 A 
ATOM     14  C   UNL     1      21.947  -5.966 -41.493  0.00  0.00    +0.093 A 
ATOM     30  C   UNL     1      21.977  -5.272 -40.267  0.00  0.00    +0.124 A 
ATOM     33  C   UNL     1      22.843  -5.686 -39.258  0.00  0.00    +0.094 A 
ENDROOT
BRANCH   5   6
ATOM      6  C   UNL     1      24.733 -10.016 -42.834  0.00  0.00    +0.003 A 
ATOM      7  C   UNL     1      24.180 -10.585 -43.977  0.00  0.00    +0.007 A 
ATOM      8  C   UNL     1      24.802 -11.657 -44.574  0.00  0.00    -0.001 A 
ATOM      9  C   UNL     1      25.968 -12.173 -44.043  0.00  0.00    -0.003 A 
ATOM     10  C   UNL     1      26.523 -11.617 -42.910  0.00  0.00    -0.001 A 
ATOM     11  C   UNL     1      25.910 -10.545 -42.302  0.00  0.00    +0.007 A 
ENDBRANCH   5   6
BRANCH  14  15
ATOM     15  N   UNL     1      21.077  -5.525 -42.479  0.00  0.00    -0.296 N 
ATOM     16  H   UNL     1      20.719  -4.559 -42.489  0.00  0.00    +0.190 HD
BRANCH  15  17
ATOM     17  C   UNL     1      20.690  -6.495 -43.506  0.00  0.00    +0.200 C 
BRANCH  17  18
ATOM     18  C   UNL     1      19.691  -5.840 -44.435  0.00  0.00    +0.025 A 
ATOM     19  C   UNL     1      18.313  -5.976 -44.261  0.00  0.00    +0.141 A 
ATOM     20  N   UNL     1      17.772  -6.734 -43.231  0.00  0.00    -0.166 N 
ATOM     21  C   UNL     1      17.561  -8.162 -43.439  0.00  0.00    +0.204 C 
ATOM     26  N   UNL     1      17.470  -5.394 -45.090  0.00  0.00    -0.298 NA
ATOM     27  C   UNL     1      17.882  -4.663 -46.101  0.00  0.00    +0.053 A 
ATOM     28  C   UNL     1      19.224  -4.477 -46.333  0.00  0.00    -0.006 A 
ATOM     29  C   UNL     1      20.147  -5.074 -45.490  0.00  0.00    +0.007 A 
BRANCH  20  22
ATOM     22  S   UNL     1      17.318  -6.031 -41.805  0.00  0.00    +0.061 S 
ATOM     23  C   UNL     1      17.429  -7.353 -40.582  0.00  0.00    +0.226 C 
ATOM     24  O   UNL     1      15.974  -5.684 -42.025  0.00  0.00    -0.149 OA
ATOM     25  O   UNL     1      18.267  -5.031 -41.576  0.00  0.00    -0.149 OA
ENDBRANCH  20  22
ENDBRANCH  17  18
ENDBRANCH  15  17
ENDBRANCH  14  15
BRANCH  30  31
ATOM     31  C   UNL     1      21.134  -4.148 -40.025  0.00  0.00    +0.083 C 
ATOM     32  N   UNL     1      20.472  -3.258 -39.825  0.00  0.00    -0.347 NA
ENDBRANCH  30  31
TORSDOF 6
