REMARK  Name = 6NFY
REMARK  7 active torsions:
REMARK  status: ('A' for Active; 'I' for Inactive)
REMARK    1  A    between atoms: C22_10  and  C19_16
REMARK    2  A    between atoms: C12_12  and  C18_15
REMARK    3  A    between atoms: N25_19  and  C37_23
REMARK    4  A    between atoms: C37_23  and  C38_24
REMARK    5  A    between atoms: C38_24  and  N4_25
REMARK    6  A    between atoms: N4_25  and  C39_26
REMARK    7  A    between atoms: N4_25  and  C40_27
REMARK                            x       y       z     vdW  Elec       q    Type
REMARK                         _______ _______ _______ _____ _____    ______ ____
ROOT
ATOM      1  C   UNL     1     -27.072  77.886 145.703  0.00  0.00    -0.150 C 
ATOM      2  C   UNL     1     -26.066  76.887 146.292  0.00  0.00    +0.100 A 
ATOM      3  N   UNL     1     -26.399  75.989 147.224  0.00  0.00    -0.200 NA
ATOM      4  C   UNL     1     -25.314  75.219 147.550  0.00  0.00    +0.100 A 
ATOM     17  C   UNL     1     -24.236  75.674 146.786  0.00  0.00    +0.000 A 
ATOM     18  C   UNL     1     -22.835  75.099 146.795  0.00  0.00    -0.150 C 
ATOM     19  C   UNL     1     -24.704  76.740 145.984  0.00  0.00    +0.000 A 
ENDROOT
BRANCH   4   5
ATOM      5  C   UNL     1     -25.265  74.002 148.505  0.00  0.00    -0.100 C 
ATOM      6  C   UNL     1     -26.280  73.569 149.287  0.00  0.00    +0.000 C 
ATOM      7  C   UNL     1     -27.675  73.943 149.334  0.00  0.00    +0.600 C 
ATOM      8  O   UNL     1     -28.259  74.786 148.677  0.00  0.00    -0.550 OA
ATOM      9  N   UNL     1     -28.315  73.176 150.356  0.00  0.00    -0.350 NA
ATOM     10  C   UNL     1     -27.341  72.185 150.870  0.00  0.00    +0.050 A 
ATOM     11  C   UNL     1     -27.459  71.201 151.884  0.00  0.00    -0.130 A 
ATOM     12  C   UNL     1     -26.344  70.396 152.213  0.00  0.00    -0.130 A 
ATOM     13  C   UNL     1     -25.114  70.618 151.556  0.00  0.00    +0.300 A 
ATOM     14  F   UNL     1     -24.070  69.844 151.855  0.00  0.00    -0.300 F 
ATOM     15  C   UNL     1     -24.993  71.610 150.560  0.00  0.00    -0.130 A 
ATOM     16  C   UNL     1     -26.123  72.408 150.220  0.00  0.00    +0.000 A 
ENDBRANCH   4   5
BRANCH  19  20
ATOM     20  C   UNL     1     -23.924  77.567 144.929  0.00  0.00    +0.550 C 
ATOM     21  O   UNL     1     -24.511  77.940 143.925  0.00  0.00    -0.550 OA
ATOM     22  N   UNL     1     -22.515  77.844 145.094  0.00  0.00    -0.550 NA
BRANCH  22  23
ATOM     23  C   UNL     1     -21.783  78.666 144.129  0.00  0.00    +0.100 C 
BRANCH  23  24
ATOM     24  C   UNL     1     -21.742  80.092 144.723  0.00  0.00    +0.100 C 
BRANCH  24  25
ATOM     25  N   UNL     1     -22.306  81.175 143.891  0.00  0.00    -0.600 NA
BRANCH  25  26
ATOM     26  C   UNL     1     -21.399  81.628 142.837  0.00  0.00    +0.100 C 
ATOM     27  C   UNL     1     -20.672  82.907 143.295  0.00  0.00    -0.150 C 
ENDBRANCH  25  26
BRANCH  25  28
ATOM     28  C   UNL     1     -23.696  80.959 143.481  0.00  0.00    +0.100 C 
ATOM     29  C   UNL     1     -24.455  82.283 143.253  0.00  0.00    -0.150 C 
ENDBRANCH  25  28
ENDBRANCH  24  25
ENDBRANCH  23  24
ENDBRANCH  22  23
ENDBRANCH  19  20
TORSDOF 7
