REMARK  Name = 3fz1_ligand
REMARK  4 active torsions:
REMARK  status: ('A' for Active; 'I' for Inactive)
REMARK    1  A    between atoms: C3_6  and  O2_18
REMARK    2  A    between atoms: C12_11  and  C13_13
REMARK    3  A    between atoms: C1_12  and  O2_18
REMARK    4  A    between atoms: C13_13  and  N14_16
REMARK                            x       y       z     vdW  Elec       q    Type
REMARK                         _______ _______ _______ _____ _____    ______ ____
ROOT
ATOM      1  C   UNL     1      -0.317  32.198   8.362  0.00  0.00    +0.017 A 
ATOM      2  C   UNL     1       0.510  31.140   8.080  0.00  0.00    +0.084 A 
ATOM      5  C   UNL     1       0.255  29.871   8.567  0.00  0.00    +0.020 A 
ATOM      6  C   UNL     1      -0.877  29.674   9.354  0.00  0.00    +0.006 A 
ATOM      7  C   UNL     1      -1.697  30.763   9.613  0.00  0.00    +0.028 A 
ATOM      8  S   UNL     1      -3.031  30.288  10.595  0.00  0.00    -0.056 S 
ATOM      9  C   UNL     1      -2.548  28.646  10.687  0.00  0.00    +0.102 A 
ATOM     10  C   UNL     1      -3.418  27.778  11.452  0.00  0.00    +0.189 C 
ATOM     11  O   UNL     1      -4.578  28.084  11.697  0.00  0.00    -0.405 OA
ATOM     12  N   UNL     1      -2.958  26.570  11.909  0.00  0.00    -0.282 N 
ATOM     13  H   UNL     1      -3.572  26.060  12.511  0.00  0.00    +0.183 HD
ATOM     14  C   UNL     1      -1.701  25.958  11.622  0.00  0.00    +0.162 C 
ATOM     20  C   UNL     1      -1.319  26.048  10.161  0.00  0.00    +0.159 C 
ATOM     21  N   UNL     1      -0.697  27.312   9.815  0.00  0.00    -0.323 N 
ATOM     22  H   UNL     1       0.267  27.325   9.451  0.00  0.00    +0.175 HD
ATOM     23  C   UNL     1      -1.376  28.480   9.967  0.00  0.00    +0.059 A 
ATOM     24  C   UNL     1      -1.440  32.024   9.138  0.00  0.00    +0.002 A 
ENDROOT
BRANCH   2   3
ATOM      3  O   UNL     1       1.623  31.406   7.286  0.00  0.00    -0.326 OA
ATOM      4  C   UNL     1       2.014  30.165   6.717  0.00  0.00    +0.230 C 
ENDBRANCH   2   3
BRANCH  14  15
ATOM     15  C   UNL     1      -0.663  26.389  12.634  0.00  0.00    +0.157 C 
BRANCH  15  16
ATOM     16  N   UNL     1      -1.313  26.328  13.974  0.00  0.00    +0.220 N 
ATOM     17  H   UNL     1      -2.107  26.948  13.991  0.00  0.00    +0.200 HD
ATOM     18  H   UNL     1      -1.619  25.385  14.156  0.00  0.00    +0.200 HD
ATOM     19  H   UNL     1      -0.652  26.609  14.681  0.00  0.00    +0.200 HD
ENDBRANCH  15  16
ENDBRANCH  14  15
TORSDOF 3
