REMARK  Name = B0Q
REMARK  4 active torsions:
REMARK  status: ('A' for Active; 'I' for Inactive)
REMARK    1  A    between atoms: CAM_12  and  CAS_14
REMARK    2  A    between atoms: CAM_12  and  NAY_24
REMARK    3  A    between atoms: CAR_13  and  CAU_16
REMARK    4  A    between atoms: CAT_15  and  NAQ_22
REMARK                            x       y       z     vdW  Elec       q    Type
REMARK                         _______ _______ _______ _____ _____    ______ ____
ROOT
ATOM     10  N   UNL     1      -9.997  -9.990  34.713  0.00  0.00    -0.173 NA
ATOM     11  C   UNL     1      -9.828 -10.830  33.673  0.00  0.00    +0.303 C 
ATOM     12  O   UNL     1      -8.753 -11.259  33.269  0.00  0.00    -0.265 OA
ENDROOT
BRANCH  10   8
ATOM      1  C   UNL     1      -4.608 -10.469  35.862  0.00  0.00    +0.156 C 
ATOM      2  N   UNL     1      -5.457  -9.418  36.461  0.00  0.00    -0.230 N 
ATOM      3  N   UNL     1      -5.040  -8.521  37.312  0.00  0.00    -0.064 NA
ATOM      4  N   UNL     1      -5.983  -7.787  37.620  0.00  0.00    -0.129 NA
ATOM      5  C   UNL     1      -7.085  -8.188  36.991  0.00  0.00    +0.122 A 
ATOM      6  C   UNL     1      -8.333  -7.720  36.996  0.00  0.00    +0.024 A 
ATOM      7  C   UNL     1      -9.293  -8.356  36.224  0.00  0.00    +0.018 A 
ATOM      8  C   UNL     1      -8.981  -9.455  35.443  0.00  0.00    +0.075 A 
ATOM      9  C   UNL     1      -7.656  -9.883  35.473  0.00  0.00    +0.037 A 
ATOM     25  C   UNL     1      -6.760  -9.241  36.245  0.00  0.00    +0.100 A 
ENDBRANCH  10   8
BRANCH  11  13
ATOM     13  C   UNL     1     -10.991 -11.147  33.074  0.00  0.00    +0.201 A 
ATOM     14  N   UNL     1     -12.166 -10.786  33.572  0.00  0.00    -0.221 NA
ATOM     15  C   UNL     1     -13.110 -11.233  32.741  0.00  0.00    +0.119 A 
ATOM     16  C   UNL     1     -12.506 -11.850  31.730  0.00  0.00    +0.098 A 
ATOM     17  N   UNL     1     -11.184 -11.802  31.920  0.00  0.00    -0.302 N 
BRANCH  17  18
ATOM     18  C   UNL     1     -10.250 -12.427  30.945  0.00  0.00    +0.134 C 
BRANCH  18  19
ATOM     19  C   UNL     1      -9.319 -11.497  30.480  0.00  0.00    +0.000 A 
ATOM     20  C   UNL     1      -8.000 -11.882  30.264  0.00  0.00    -0.002 A 
ATOM     21  C   UNL     1      -7.063 -10.962  29.803  0.00  0.00    -0.000 A 
ATOM     22  C   UNL     1      -7.444  -9.646  29.560  0.00  0.00    -0.000 A 
ATOM     23  C   UNL     1      -8.765  -9.259  29.778  0.00  0.00    -0.000 A 
ATOM     24  C   UNL     1      -9.699 -10.181  30.234  0.00  0.00    -0.002 A 
ENDBRANCH  18  19
ENDBRANCH  17  18
ENDBRANCH  11  13
TORSDOF 4
