REMARK  Name = 4UOG
REMARK  7 active torsions:
REMARK  status: ('A' for Active; 'I' for Inactive)
REMARK    1  A    between atoms: P_2  and  O_5
REMARK    2  A    between atoms: O_5  and  P_6
REMARK    3  A    between atoms: P_6  and  O_9
REMARK    4  A    between atoms: O_9  and  C_10
REMARK    5  A    between atoms: C_10  and  C_11
REMARK    6  A    between atoms: C_13  and  O_14
REMARK    7  A    between atoms: C_16  and  N_17
REMARK                            x       y       z     vdW  Elec       q    Type
REMARK                         _______ _______ _______ _____ _____    ______ ____
ROOT
ATOM      7  C   UNL     1       9.595 -56.340   6.792  0.00  0.00    +0.175 C 
ATOM      8  C   UNL     1       9.564 -54.787   6.852  0.00  0.00    +0.150 C 
ATOM      9  C   UNL     1      11.023 -54.419   7.032  0.00  0.00    +0.088 C 
ATOM     10  C   UNL     1      11.719 -55.390   6.461  0.00  0.00    +0.226 C 
ATOM     23  O   UNL     1      10.737 -56.631   6.270  0.00  0.00    -0.348 OA
ENDROOT
BRANCH  10  11
ATOM     11  N   UNL     1      12.293 -54.924   5.223  0.00  0.00    -0.273 N 
ATOM     12  C   UNL     1      11.502 -54.787   4.053  0.00  0.00    +0.096 C 
ATOM     13  C   UNL     1      12.077 -54.278   2.813  0.00  0.00    +0.061 C 
ATOM     14  C   UNL     1      13.504 -53.904   2.776  0.00  0.00    +0.123 C 
ATOM     15  N   UNL     1      14.065 -53.440   1.596  0.00  0.00    -0.343 N 
ATOM     16  H   UNL     1      13.462 -53.348   0.717  0.00  0.00    +0.144 HD
ATOM     17  H   UNL     1      15.101 -53.173   1.565  0.00  0.00    +0.144 HD
ATOM     18  N   UNL     1      14.287 -54.029   3.940  0.00  0.00    -0.178 NA
ATOM     19  C   UNL     1      13.691 -54.539   5.177  0.00  0.00    +0.352 C 
ATOM     20  O   UNL     1      14.385 -54.641   6.196  0.00  0.00    -0.244 OA
ENDBRANCH  10  11
BRANCH   8  21
ATOM     21  O   UNL     1       8.787 -54.379   7.884  0.00  0.00    -0.389 OA
ATOM     22  H   UNL     1       7.810 -54.739   7.751  0.00  0.00    +0.210 HD
ENDBRANCH   8  21
BRANCH   7   6
ATOM      6  C   UNL     1       8.409 -56.832   5.922  0.00  0.00    +0.202 C 
BRANCH   6   5
ATOM      5  O   UNL     1       8.380 -56.163   4.680  0.00  0.00    -0.325 OA
BRANCH   5   4
ATOM      4  P   UNL     1       6.958 -55.906   3.975  0.00  0.00    +0.215 P 
ATOM     24  O   UNL     1       7.148 -55.808   2.477  0.00  0.00    -0.517 OA
ATOM     25  O   UNL     1       5.995 -57.036   4.284  0.00  0.00    -0.437 OA
BRANCH   4   3
ATOM      3  O   UNL     1       6.360 -54.536   4.473  0.00  0.00    -0.314 OA
BRANCH   3   2
ATOM      1  O   UNL     1       6.111 -54.789   7.038  0.00  0.00    -0.637 OA
ATOM      2  P   UNL     1       5.427 -54.354   5.757  0.00  0.00    -0.007 P 
ATOM     26  O   UNL     1       4.182 -55.232   5.553  0.00  0.00    -0.577 OA
ATOM     27  O   UNL     1       5.082 -52.870   5.838  0.00  0.00    -0.577 OA
ENDBRANCH   3   2
ENDBRANCH   4   3
ENDBRANCH   5   4
ENDBRANCH   6   5
ENDBRANCH   7   6
TORSDOF 7
