REMARK  Name = 4at5_ligand
REMARK  9 active torsions:
REMARK  status: ('A' for Active; 'I' for Inactive)
REMARK    1  A    between atoms: C2_2  and  C7_7
REMARK    2  A    between atoms: C7_7  and  C8_8
REMARK    3  A    between atoms: C11_11  and  O16_16
REMARK    4  A    between atoms: C13_13  and  O14_14
REMARK    5  A    between atoms: O14_14  and  C15_15
REMARK    6  A    between atoms: O16_16  and  C17_17
REMARK    7  A    between atoms: C17_17  and  C18_18
REMARK    8  A    between atoms: C21_21  and  O24_24
REMARK    9  A    between atoms: O24_24  and  C25_25
REMARK                            x       y       z     vdW  Elec       q    Type
REMARK                         _______ _______ _______ _____ _____    ______ ____
ROOT
ATOM     10  C   UNL     1     -10.317  27.980 -17.775  0.00  0.00    -0.053 A 
ATOM     11  C   UNL     1     -11.235  26.937 -17.778  0.00  0.00    +0.007 A 
ATOM     12  C   UNL     1     -12.538  27.148 -18.180  0.00  0.00    +0.114 A 
ATOM     15  C   UNL     1     -12.945  28.426 -18.589  0.00  0.00    +0.115 A 
ATOM     26  C   UNL     1     -12.036  29.468 -18.587  0.00  0.00    +0.002 A 
ATOM     27  C   UNL     1     -10.735  29.238 -18.182  0.00  0.00    -0.035 A 
ENDROOT
BRANCH  12  13
ATOM     13  O   UNL     1     -13.506  26.183 -18.215  0.00  0.00    -0.327 OA
ATOM     14  C   UNL     1     -13.142  24.868 -17.809  0.00  0.00    +0.229 C 
ENDBRANCH  12  13
BRANCH  10   9
ATOM      9  C   UNL     1      -8.886  27.742 -17.333  0.00  0.00    +0.115 C 
BRANCH   9   8
ATOM      1  N   UNL     1      -9.266  27.116 -13.587  0.00  0.00    -0.249 NA
ATOM      2  C   UNL     1      -8.447  26.047 -13.493  0.00  0.00    +0.164 A 
ATOM      3  N   UNL     1      -8.301  25.504 -12.283  0.00  0.00    -0.310 N 
ATOM      4  H   UNL     1      -8.798  25.898 -11.484  0.00  0.00    +0.180 HD
ATOM      5  H   UNL     1      -7.693  24.695 -12.157  0.00  0.00    +0.180 HD
ATOM      6  N   UNL     1      -7.764  25.482 -14.513  0.00  0.00    -0.282 NA
ATOM      7  C   UNL     1      -7.934  26.053 -15.710  0.00  0.00    +0.079 A 
ATOM      8  C   UNL     1      -8.737  27.142 -15.948  0.00  0.00    +0.022 A 
ATOM     28  C   UNL     1      -9.416  27.667 -14.807  0.00  0.00    +0.116 A 
ATOM     29  N   UNL     1     -10.227  28.723 -14.893  0.00  0.00    -0.320 N 
ATOM     30  H   UNL     1     -10.377  29.179 -15.793  0.00  0.00    +0.179 HD
ATOM     31  H   UNL     1     -10.697  29.074 -14.059  0.00  0.00    +0.179 HD
ENDBRANCH   9   8
ENDBRANCH  10   9
BRANCH  15  16
ATOM     16  O   UNL     1     -14.254  28.546 -18.970  0.00  0.00    -0.315 OA
BRANCH  16  17
ATOM     17  C   UNL     1     -14.734  29.859 -19.285  0.00  0.00    +0.246 C 
BRANCH  17  18
ATOM     18  C   UNL     1     -16.229  29.819 -19.397  0.00  0.00    -0.024 A 
ATOM     19  C   UNL     1     -17.032  30.176 -18.325  0.00  0.00    -0.013 A 
ATOM     20  C   UNL     1     -18.410  30.140 -18.421  0.00  0.00    +0.013 A 
ATOM     21  C   UNL     1     -19.005  29.742 -19.603  0.00  0.00    +0.084 A 
ATOM     24  C   UNL     1     -18.221  29.383 -20.683  0.00  0.00    +0.013 A 
ATOM     25  C   UNL     1     -16.844  29.423 -20.574  0.00  0.00    -0.013 A 
BRANCH  21  22
ATOM     22  O   UNL     1     -20.369  29.705 -19.704  0.00  0.00    -0.326 OA
ATOM     23  C   UNL     1     -20.927  29.287 -20.946  0.00  0.00    +0.230 C 
ENDBRANCH  21  22
ENDBRANCH  17  18
ENDBRANCH  16  17
ENDBRANCH  15  16
TORSDOF 7
