REMARK  Name = S5B
REMARK  5 active torsions:
REMARK  status: ('A' for Active; 'I' for Inactive)
REMARK    1  A    between atoms: C05_7  and  C06_8
REMARK    2  A    between atoms: C10_12  and  N02_13
REMARK    3  A    between atoms: N02_13  and  C11_14
REMARK    4  A    between atoms: C16_19  and  C17_20
REMARK    5  A    between atoms: C21_24  and  C1_29
REMARK                            x       y       z     vdW  Elec       q    Type
REMARK                         _______ _______ _______ _____ _____    ______ ____
ROOT
ATOM      8  C   UNL     1      19.012  10.024  -9.789  0.00  0.00    +0.005 A 
ATOM      9  C   UNL     1      17.662   9.770  -9.863  0.00  0.00    +0.019 A 
ATOM     10  C   UNL     1      16.818  10.581 -10.656  0.00  0.00    +0.083 A 
ATOM     11  N   UNL     1      15.483  10.277 -10.684  0.00  0.00    -0.243 NA
ATOM     12  C   UNL     1      14.716  11.031 -11.431  0.00  0.00    +0.107 A 
ATOM     13  C   UNL     1      15.124  12.130 -12.188  0.00  0.00    +0.114 A 
ATOM     14  C   UNL     1      16.499  12.477 -12.178  0.00  0.00    +0.080 A 
ATOM     29  C   UNL     1      17.381  11.665 -11.383  0.00  0.00    +0.033 A 
ATOM     30  C   UNL     1      18.777  11.884 -11.277  0.00  0.00    +0.003 A 
ATOM     31  C   UNL     1      19.558  11.085 -10.502  0.00  0.00    +0.000 A 
ENDROOT
BRANCH   8   7
ATOM      1  C   UNL     1      18.896   9.419  -6.550  0.00  0.00    +0.056 C 
ATOM      2  C   UNL     1      19.844   8.908  -7.583  0.00  0.00    +0.101 A 
ATOM      3  N   UNL     1      20.802   8.096  -7.231  0.00  0.00    -0.082 NA
ATOM      4  O   UNL     1      21.521   7.791  -8.419  0.00  0.00    -0.358 OA
ATOM      5  C   UNL     1      20.947   8.446  -9.430  0.00  0.00    +0.154 A 
ATOM      6  C   UNL     1      21.555   8.255 -10.768  0.00  0.00    +0.075 C 
ATOM      7  C   UNL     1      19.892   9.159  -8.969  0.00  0.00    +0.050 A 
ENDBRANCH   8   7
BRANCH  13  26
ATOM     26  C   UNL     1      14.085  12.840 -12.991  0.00  0.00    +0.391 C 
ATOM     27  O   UNL     1      12.926  12.452 -13.026  0.00  0.00    -0.240 OA
ATOM     28  O   UNL     1      14.520  13.835 -13.705  0.00  0.00    -0.240 OA
ENDBRANCH  13  26
BRANCH  14  15
ATOM     15  N   UNL     1      16.979  13.558 -12.889  0.00  0.00    -0.212 NA
BRANCH  15  16
ATOM     16  C   UNL     1      17.875  14.509 -12.278  0.00  0.00    +0.067 A 
ATOM     17  C   UNL     1      17.764  14.813 -10.920  0.00  0.00    +0.016 A 
ATOM     18  C   UNL     1      18.644  15.704 -10.331  0.00  0.00    +0.001 A 
ATOM     19  C   UNL     1      19.638  16.294 -11.077  0.00  0.00    -0.000 A 
ATOM     20  C   UNL     1      19.770  16.005 -12.424  0.00  0.00    -0.003 A 
ATOM     21  C   UNL     1      18.908  15.110 -13.053  0.00  0.00    -0.008 A 
BRANCH  21  22
ATOM     22  C   UNL     1      19.111  14.827 -14.560  0.00  0.00    +0.020 C 
ATOM     23  C   UNL     1      19.173  13.322 -14.829  0.00  0.00    +0.004 C 
ATOM     24  C   UNL     1      20.414  15.441 -15.084  0.00  0.00    +0.004 C 
ATOM     25  C   UNL     1      17.958  15.414 -15.374  0.00  0.00    +0.004 C 
ENDBRANCH  21  22
ENDBRANCH  15  16
ENDBRANCH  14  15
TORSDOF 5
