REMARK  Name = D58
REMARK  3 active torsions:
REMARK  status: ('A' for Active; 'I' for Inactive)
REMARK    1  A    between atoms: C9_6  and  C10_7
REMARK    2  A    between atoms: C12_9  and  C15_12
REMARK    3  A    between atoms: C6_19  and  N2_20
REMARK                            x       y       z     vdW  Elec       q    Type
REMARK                         _______ _______ _______ _____ _____    ______ ____
ROOT
ATOM      8  N   UNL     1       9.787  -5.828  14.522  0.00  0.00    -0.221 NA
ATOM      9  C   UNL     1      10.041  -4.581  13.881  0.00  0.00    +0.148 A 
ATOM     10  C   UNL     1      11.200  -3.860  14.188  0.00  0.00    +0.040 A 
ATOM     11  C   UNL     1      12.248  -4.151  15.107  0.00  0.00    +0.010 A 
ATOM     12  C   UNL     1      13.244  -3.199  15.205  0.00  0.00    +0.030 A 
ATOM     19  S   UNL     1      12.896  -1.902  14.136  0.00  0.00    -0.087 S 
ATOM     20  C   UNL     1      11.436  -2.629  13.575  0.00  0.00    +0.038 A 
ATOM     21  C   UNL     1      10.548  -2.117  12.653  0.00  0.00    +0.082 A 
ATOM     22  C   UNL     1       9.446  -2.901  12.391  0.00  0.00    +0.105 A 
ATOM     26  N   UNL     1       9.188  -4.079  12.971  0.00  0.00    -0.228 NA
ENDROOT
BRANCH   8   7
ATOM      1  C   UNL     1       7.681  -4.283  16.262  0.00  0.00    +0.021 C 
ATOM      2  C   UNL     1       7.830  -5.782  16.095  0.00  0.00    +0.093 C 
ATOM      3  N   UNL     1       6.427  -6.310  16.237  0.00  0.00    -0.218 NA
ATOM      4  C   UNL     1       6.270  -7.784  16.018  0.00  0.00    +0.089 C 
ATOM      5  C   UNL     1       6.721  -8.069  14.598  0.00  0.00    +0.021 C 
ATOM      6  C   UNL     1       8.168  -7.619  14.417  0.00  0.00    +0.025 C 
ATOM      7  C   UNL     1       8.363  -6.135  14.700  0.00  0.00    +0.110 C 
ENDBRANCH   8   7
BRANCH  12  13
ATOM     13  C   UNL     1      14.435  -3.162  16.035  0.00  0.00    +0.006 A 
ATOM     14  C   UNL     1      14.732  -4.225  16.872  0.00  0.00    +0.001 A 
ATOM     15  C   UNL     1      15.843  -4.173  17.697  0.00  0.00    +0.000 A 
ATOM     16  C   UNL     1      16.668  -3.062  17.680  0.00  0.00    +0.000 A 
ATOM     17  C   UNL     1      16.394  -2.008  16.832  0.00  0.00    +0.000 A 
ATOM     18  C   UNL     1      15.277  -2.063  16.019  0.00  0.00    +0.001 A 
ENDBRANCH  12  13
BRANCH  21  23
ATOM     23  C   UNL     1      10.737  -0.796  12.030  0.00  0.00    +0.286 C 
ATOM     24  O   UNL     1      11.798  -0.197  12.137  0.00  0.00    -0.267 OA
ATOM     25  N   UNL     1       9.631  -0.292  11.402  0.00  0.00    -0.084 NA
ENDBRANCH  21  23
TORSDOF 3
