REMARK  Name = AN2
REMARK  6 active torsions:
REMARK  status: ('A' for Active; 'I' for Inactive)
REMARK    1  A    between atoms: PB_2  and  O3A_5
REMARK    2  A    between atoms: O3A_5  and  PA_6
REMARK    3  A    between atoms: PA_6  and  O5'_9
REMARK    4  A    between atoms: O5'_9  and  C5'_10
REMARK    5  A    between atoms: C5'_10  and  C4'_11
REMARK    6  A    between atoms: C1'_17  and  N9_18
REMARK                            x       y       z     vdW  Elec       q    Type
REMARK                         _______ _______ _______ _____ _____    ______ ____
ROOT
ATOM      7  C   UNL     1      35.163  24.027  61.216  0.00  0.00    +0.180 C 
ATOM      8  O   UNL     1      35.780  23.943  62.519  0.00  0.00    -0.331 OA
ATOM      9  C   UNL     1      36.408  25.184  62.855  0.00  0.00    +0.241 C 
ATOM     20  C   UNL     1      36.089  26.135  61.711  0.00  0.00    +0.234 C 
ATOM     21  O   UNL     1      34.839  26.805  62.008  0.00  0.00    -0.216 OA
ATOM     22  C   UNL     1      35.910  25.154  60.533  0.00  0.00    +0.216 C 
ATOM     23  O   UNL     1      35.084  25.724  59.508  0.00  0.00    -0.218 OA
ENDROOT
BRANCH   9  10
ATOM     10  N   UNL     1      37.862  24.913  63.006  0.00  0.00    -0.269 N 
ATOM     11  C   UNL     1      38.663  25.484  63.902  0.00  0.00    +0.169 A 
ATOM     12  N   UNL     1      38.407  26.458  64.806  0.00  0.00    -0.205 NA
ATOM     13  C   UNL     1      39.450  26.921  65.603  0.00  0.00    +0.202 A 
ATOM     14  N   UNL     1      40.725  26.389  65.437  0.00  0.00    -0.204 NA
ATOM     15  C   UNL     1      40.917  25.407  64.551  0.00  0.00    +0.192 A 
ATOM     16  N   UNL     1      42.138  24.896  64.403  0.00  0.00    -0.105 NA
ATOM     17  C   UNL     1      39.899  24.953  63.785  0.00  0.00    +0.152 A 
ATOM     18  N   UNL     1      39.840  24.031  62.820  0.00  0.00    -0.219 NA
ATOM     19  C   UNL     1      38.593  23.983  62.372  0.00  0.00    +0.182 A 
ENDBRANCH   9  10
BRANCH   7   6
ATOM      6  C   UNL     1      35.311  22.699  60.465  0.00  0.00    +0.181 C 
BRANCH   6   5
ATOM      5  O   UNL     1      36.680  22.264  60.482  0.00  0.00    -0.311 OA
BRANCH   5   4
ATOM      4  P   UNL     1      37.387  21.671  59.165  0.00  0.00    +0.222 P 
ATOM     24  O   UNL     1      38.787  21.347  59.492  0.00  0.00    -0.437 OA
ATOM     25  O   UNL     1      37.082  22.659  58.088  0.00  0.00    -0.517 OA
BRANCH   4   3
ATOM      3  O   UNL     1      36.559  20.297  58.958  0.00  0.00    -0.235 OA
BRANCH   3   2
ATOM      1  N   UNL     1      36.502  18.840  56.874  0.00  0.00    -0.018 NA
ATOM      2  P   UNL     1      35.546  19.813  57.765  0.00  0.00    +0.474 P 
ATOM     26  O   UNL     1      34.548  18.901  58.360  0.00  0.00    -0.125 OA
ATOM     27  O   UNL     1      35.068  20.933  56.923  0.00  0.00    -0.234 OA
ENDBRANCH   3   2
ENDBRANCH   4   3
ENDBRANCH   5   4
ENDBRANCH   6   5
ENDBRANCH   7   6
TORSDOF 6
