REMARK  Name = 7UU
REMARK  6 active torsions:
REMARK  status: ('A' for Active; 'I' for Inactive)
REMARK    1  A    between atoms: C10_10  and  N12_12
REMARK    2  A    between atoms: N12_12  and  C13_13
REMARK    3  A    between atoms: C13_13  and  C14_14
REMARK    4  A    between atoms: C14_14  and  C15_15
REMARK    5  A    between atoms: C15_15  and  N16_16
REMARK    6  A    between atoms: C17_17  and  C18_18
REMARK                            x       y       z     vdW  Elec       q    Type
REMARK                         _______ _______ _______ _____ _____    ______ ____
ROOT
ATOM      5  N   UNL     1     -10.515  -8.916   1.789  0.00  0.00    -0.237 NA
ENDROOT
BRANCH   5   4
ATOM      1  C   UNL     1      -8.415  -6.124  -1.685  0.00  0.00    +0.038 A 
ATOM      2  C   UNL     1      -9.512  -6.512  -0.955  0.00  0.00    +0.150 A 
ATOM      3  C   UNL     1      -9.392  -7.524   0.049  0.00  0.00    +0.050 A 
ATOM      4  C   UNL     1     -10.575  -7.874   0.784  0.00  0.00    +0.075 C 
ATOM     18  C   UNL     1     -11.758  -7.237   0.524  0.00  0.00    +0.098 C 
ATOM     19  C   UNL     1     -11.826  -6.204  -0.498  0.00  0.00    +0.347 C 
ATOM     20  O   UNL     1     -13.026  -5.545  -0.744  0.00  0.00    -0.244 OA
ATOM     21  C   UNL     1      -8.177  -8.130   0.270  0.00  0.00    +0.004 A 
ATOM     22  C   UNL     1      -7.070  -7.739  -0.480  0.00  0.00    +0.000 A 
ATOM     23  O   UNL     1     -10.739  -5.870  -1.199  0.00  0.00    -0.421 OA
ATOM     24  C   UNL     1      -7.189  -6.742  -1.456  0.00  0.00    +0.003 A 
ENDBRANCH   5   4
BRANCH   5   6
ATOM      6  C   UNL     1     -11.759  -9.439   2.317  0.00  0.00    +0.114 C 
BRANCH   6   7
ATOM      7  C   UNL     1     -12.161  -8.656   3.561  0.00  0.00    +0.045 C 
BRANCH   7   8
ATOM      8  C   UNL     1     -11.094  -8.782   4.645  0.00  0.00    +0.095 C 
BRANCH   8   9
ATOM      9  N   UNL     1     -11.306  -7.691   5.583  0.00  0.00    -0.277 N 
ATOM     10  C   UNL     1     -12.508  -7.681   6.399  0.00  0.00    +0.115 C 
ATOM     11  C   UNL     1     -10.389  -6.577   5.741  0.00  0.00    +0.235 C 
ATOM     12  O   UNL     1     -10.706  -5.765   6.542  0.00  0.00    -0.274 OA
BRANCH  11  13
ATOM     13  C   UNL     1      -9.070  -6.417   4.968  0.00  0.00    +0.124 C 
ATOM     14  S   UNL     1      -7.726  -5.321   5.537  0.00  0.00    -0.132 S 
ATOM     15  C   UNL     1      -6.963  -5.246   4.087  0.00  0.00    +0.058 C 
ATOM     16  C   UNL     1      -7.564  -6.293   3.169  0.00  0.00    +0.013 C 
ATOM     17  C   UNL     1      -8.883  -6.715   3.663  0.00  0.00    +0.021 C 
ENDBRANCH  11  13
ENDBRANCH   8   9
ENDBRANCH   7   8
ENDBRANCH   6   7
ENDBRANCH   5   6
TORSDOF 6
