REMARK  Name = 6FVG
REMARK  9 active torsions:
REMARK  status: ('A' for Active; 'I' for Inactive)
REMARK    1  A    between atoms: S_2  and  C7_4
REMARK    2  A    between atoms: S_2  and  N1_10
REMARK    3  A    between atoms: N1_10  and  C6_11
REMARK    4  A    between atoms: C6_11  and  C5_12
REMARK    5  A    between atoms: C5_12  and  N_13
REMARK    6  A    between atoms: C2_18  and  C1_19
REMARK    7  A    between atoms: C1_19  and  O1_20
REMARK    8  A    between atoms: O1_20  and  C_21
REMARK    9  A    between atoms: C_21  and  C15_23
REMARK                            x       y       z     vdW  Elec       q    Type
REMARK                         _______ _______ _______ _____ _____    ______ ____
ROOT
ATOM      6  N   UNL     1    -134.764-187.988 305.030  0.00  0.00    -0.600 NA
ATOM      7  C   UNL     1    -134.133-186.743 305.516  0.00  0.00    +0.100 C 
ATOM      8  C   UNL     1    -134.766-186.252 306.821  0.00  0.00    -0.100 C 
ATOM      9  C   UNL     1    -136.268-186.052 306.656  0.00  0.00    -0.050 C 
ATOM     23  C   UNL     1    -136.888-187.350 306.161  0.00  0.00    -0.100 C 
ATOM     24  C   UNL     1    -136.220-187.799 304.861  0.00  0.00    +0.100 C 
ENDROOT
BRANCH   6   5
ATOM      5  C   UNL     1    -134.157-188.411 303.760  0.00  0.00    +0.100 C 
BRANCH   5   4
ATOM      4  C   UNL     1    -133.520-189.784 303.822  0.00  0.00    +0.000 C 
BRANCH   4   3
ATOM      3  N   UNL     1    -133.285-190.280 302.459  0.00  0.00    -0.470 NA
BRANCH   3   2
ATOM      1  O   UNL     1    -131.923-192.210 303.107  0.00  0.00    -0.650 OA
ATOM      2  S   UNL     1    -131.996-191.187 302.108  0.00  0.00    +1.360 S 
ATOM     31  O   UNL     1    -132.117-191.559 300.732  0.00  0.00    -0.650 OA
BRANCH   2  25
ATOM     25  C   UNL     1    -130.572-190.163 302.267  0.00  0.00    +0.060 A 
ATOM     26  C   UNL     1    -129.663-190.404 303.288  0.00  0.00    -0.130 A 
ATOM     27  C   UNL     1    -128.533-189.608 303.388  0.00  0.00    -0.130 A 
ATOM     28  C   UNL     1    -128.314-188.585 302.482  0.00  0.00    -0.130 A 
ATOM     29  C   UNL     1    -129.230-188.351 301.471  0.00  0.00    -0.130 A 
ATOM     30  C   UNL     1    -130.367-189.136 301.357  0.00  0.00    -0.130 A 
ENDBRANCH   2  25
ENDBRANCH   3   2
ENDBRANCH   4   3
ENDBRANCH   5   4
ENDBRANCH   6   5
BRANCH   9  10
ATOM     10  C   UNL     1    -136.953-185.478 307.877  0.00  0.00    +0.400 C 
BRANCH  10  11
ATOM     11  O   UNL     1    -136.778-186.348 309.021  0.00  0.00    -0.650 OA
BRANCH  11  12
ATOM     12  C   UNL     1    -137.104-185.834 310.214  0.00  0.00    +0.700 C 
ATOM     22  O   UNL     1    -137.620-184.749 310.346  0.00  0.00    -0.550 OA
BRANCH  12  13
ATOM     13  C   UNL     1    -136.737-186.728 311.341  0.00  0.00    -0.050 A 
ATOM     14  C   UNL     1    -137.312-186.689 312.590  0.00  0.00    +0.000 A 
ATOM     15  N   UNL     1    -136.724-187.614 313.408  0.00  0.00    -0.300 NA
ATOM     16  C   UNL     1    -135.745-188.282 312.708  0.00  0.00    +0.200 A 
ATOM     17  C   UNL     1    -134.890-189.307 313.107  0.00  0.00    -0.130 A 
ATOM     18  C   UNL     1    -133.999-189.825 312.178  0.00  0.00    -0.130 A 
ATOM     19  C   UNL     1    -133.955-189.322 310.879  0.00  0.00    -0.130 A 
ATOM     20  C   UNL     1    -134.802-188.292 310.488  0.00  0.00    -0.130 A 
ATOM     21  C   UNL     1    -135.717-187.759 311.398  0.00  0.00    +0.050 A 
ENDBRANCH  12  13
ENDBRANCH  11  12
ENDBRANCH  10  11
ENDBRANCH   9  10
TORSDOF 9
