REMARK  Name = 6AYW
REMARK  8 active torsions:
REMARK  status: ('A' for Active; 'I' for Inactive)
REMARK    1  A    between atoms: C_2  and  C_15
REMARK    2  A    between atoms: C_4  and  C_6
REMARK    3  A    between atoms: C_4  and  N_25
REMARK    4  A    between atoms: C_6  and  N_26
REMARK    5  A    between atoms: C_7  and  N_26
REMARK    6  A    between atoms: C_8  and  C_12
REMARK    7  A    between atoms: C_10  and  C_13
REMARK    8  A    between atoms: C_21  and  N_26
REMARK                            x       y       z     vdW  Elec       q    Type
REMARK                         _______ _______ _______ _____ _____    ______ ____
ROOT
ATOM      1  C   UNL     1       9.187  51.736  29.396  0.00  0.00    +0.032 C 
ATOM      2  C   UNL     1       8.844  51.100  30.515  0.00  0.00    +0.048 C 
ATOM      3  C   UNL     1       8.546  51.843  31.674  0.00  0.00    +0.131 C 
ATOM      4  N   UNL     1       8.197  51.438  32.869  0.00  0.00    -0.344 NA
ATOM      5  H   UNL     1       8.063  50.430  33.201  0.00  0.00    +0.167 HD
ATOM      6  C   UNL     1       8.041  52.579  33.600  0.00  0.00    +0.112 C 
ATOM      7  C   UNL     1       8.238  53.720  32.856  0.00  0.00    +0.089 C 
ATOM     23  N   UNL     1       8.591  53.220  31.613  0.00  0.00    -0.237 NA
ATOM     24  N   UNL     1       8.922  53.937  30.524  0.00  0.00    -0.290 NA
ATOM     25  H   UNL     1       8.941  55.007  30.522  0.00  0.00    +0.187 HD
ATOM     26  C   UNL     1       9.219  53.227  29.469  0.00  0.00    +0.070 C 
ENDROOT
BRANCH   7   8
ATOM      8  C   UNL     1       8.257  55.105  33.320  0.00  0.00    +0.003 A 
ATOM      9  C   UNL     1       8.340  55.317  34.710  0.00  0.00    +0.010 A 
ATOM     10  C   UNL     1       8.450  56.586  35.284  0.00  0.00    +0.001 A 
ATOM     11  C   UNL     1       8.518  57.688  34.444  0.00  0.00    +0.013 A 
ATOM     12  C   UNL     1       8.462  57.506  33.059  0.00  0.00    +0.037 A 
ATOM     22  C   UNL     1       8.370  56.220  32.477  0.00  0.00    +0.023 A 
BRANCH  12  13
ATOM     13  C   UNL     1       8.578  58.678  32.158  0.00  0.00    +0.244 C 
ATOM     14  O   UNL     1       8.907  59.768  32.638  0.00  0.00    -0.270 OA
ATOM     15  N   UNL     1       8.380  58.426  30.811  0.00  0.00    -0.310 N 
ATOM     16  H   UNL     1       8.112  57.435  30.511  0.00  0.00    +0.149 HD
BRANCH  15  17
ATOM     17  C   UNL     1       8.520  59.451  29.782  0.00  0.00    +0.120 C 
BRANCH  17  18
ATOM     18  C   UNL     1       9.779  59.129  28.963  0.00  0.00    +0.102 C 
BRANCH  18  19
ATOM     19  N   UNL     1      11.078  59.210  29.681  0.00  0.00    -0.307 NA
ATOM     20  C   UNL     1      11.184  60.385  30.553  0.00  0.00    +0.104 C 
ATOM     21  C   UNL     1      11.533  57.985  30.346  0.00  0.00    +0.104 C 
ENDBRANCH  18  19
ENDBRANCH  17  18
ENDBRANCH  15  17
ENDBRANCH  12  13
ENDBRANCH   7   8
BRANCH  26  27
ATOM     27  C   UNL     1       9.542  54.020  28.304  0.00  0.00    +0.037 A 
ATOM     28  S   UNL     1       9.429  55.729  28.388  0.00  0.00    -0.095 S 
ATOM     29  C   UNL     1       9.891  55.887  26.750  0.00  0.00    +0.046 A 
ATOM     30  C   UNL     1      10.115  54.666  26.147  0.00  0.00    +0.008 A 
ATOM     31  C   UNL     1       9.901  53.578  27.042  0.00  0.00    +0.017 A 
ENDBRANCH  26  27
TORSDOF 6
