REMARK  Name = 837
REMARK  5 active torsions:
REMARK  status: ('A' for Active; 'I' for Inactive)
REMARK    1  A    between atoms: C02_8  and  O03_9
REMARK    2  A    between atoms: O03_9  and  C04_10
REMARK    3  A    between atoms: C04_10  and  C06_12
REMARK    4  A    between atoms: C09_15  and  C12_17
REMARK    5  A    between atoms: C18_21  and  N22_24
REMARK                            x       y       z     vdW  Elec       q    Type
REMARK                         _______ _______ _______ _____ _____    ______ ____
ROOT
ATOM     12  C   UNL     1     -32.707  14.428  -5.552  0.00  0.00    +0.041 A 
ATOM     13  C   UNL     1     -33.028  15.611  -4.635  0.00  0.00    +0.149 A 
ATOM     14  O   UNL     1     -34.154  15.674  -3.694  0.00  0.00    -0.463 OA
ATOM     15  C   UNL     1     -34.279  16.880  -2.895  0.00  0.00    +0.236 C 
ATOM     22  C   UNL     1     -33.203  17.920  -2.945  0.00  0.00    +0.131 C 
ATOM     23  C   UNL     1     -32.253  17.906  -4.017  0.00  0.00    +0.187 C 
ATOM     24  O   UNL     1     -31.575  18.861  -4.221  0.00  0.00    -0.290 OA
ATOM     25  C   UNL     1     -32.103  16.695  -4.809  0.00  0.00    +0.098 A 
ATOM     26  S   UNL     1     -31.003  16.277  -5.944  0.00  0.00    -0.081 S 
ATOM     27  C   UNL     1     -31.523  14.752  -6.317  0.00  0.00    +0.039 A 
ENDROOT
BRANCH  12  11
ATOM      1  C   UNL     1     -34.058  12.759  -4.294  0.00  0.00    +0.000 A 
ATOM      2  C   UNL     1     -34.827  11.608  -4.174  0.00  0.00    +0.006 A 
ATOM      3  C   UNL     1     -35.067  10.841  -5.310  0.00  0.00    +0.076 A 
ATOM      9  C   UNL     1     -34.544  11.231  -6.533  0.00  0.00    +0.006 A 
ATOM     10  C   UNL     1     -33.777  12.390  -6.652  0.00  0.00    +0.000 A 
ATOM     11  C   UNL     1     -33.550  13.158  -5.525  0.00  0.00    +0.003 A 
BRANCH   3   4
ATOM      4  C   UNL     1     -35.912   9.568  -5.193  0.00  0.00    +0.341 C 
ATOM      5  O   UNL     1     -36.156   9.099  -4.124  0.00  0.00    -0.245 OA
BRANCH   4   6
ATOM      6  O   UNL     1     -36.434   8.943  -6.327  0.00  0.00    -0.445 OA
BRANCH   6   7
ATOM      7  C   UNL     1     -37.564   8.171  -6.000  0.00  0.00    +0.209 C 
ATOM      8  C   UNL     1     -38.648   8.324  -7.071  0.00  0.00    +0.051 C 
ENDBRANCH   6   7
ENDBRANCH   4   6
ENDBRANCH   3   4
ENDBRANCH  12  11
BRANCH  15  16
ATOM     16  N   UNL     1     -34.986  16.660  -1.672  0.00  0.00    -0.235 NA
ATOM     17  C   UNL     1     -35.110  17.675  -0.613  0.00  0.00    +0.107 C 
ATOM     18  C   UNL     1     -36.423  17.546   0.129  0.00  0.00    +0.160 C 
ATOM     19  O   UNL     1     -36.502  16.265   0.637  0.00  0.00    -0.351 OA
ATOM     20  C   UNL     1     -36.711  15.338  -0.363  0.00  0.00    +0.160 C 
ATOM     21  C   UNL     1     -35.609  15.356  -1.414  0.00  0.00    +0.107 C 
ENDBRANCH  15  16
TORSDOF 5
