REMARK  Name = 2p33_ligand
REMARK  4 active torsions:
REMARK  status: ('A' for Active; 'I' for Inactive)
REMARK    1  A    between atoms: C01_1  and  C02_2
REMARK    2  A    between atoms: C02_2  and  N03_3
REMARK    3  A    between atoms: C09_9  and  N12_12
REMARK    4  A    between atoms: C15_15  and  C20_20
REMARK                            x       y       z     vdW  Elec       q    Type
REMARK                         _______ _______ _______ _____ _____    ______ ____
ROOT
ATOM     10  N   UNL     1      22.052   6.312  31.821  0.00  0.00    -0.288 N 
ATOM     11  H   UNL     1      21.783   5.320  31.889  0.00  0.00    +0.186 HD
ATOM     12  C   UNL     1      21.147   7.260  32.303  0.00  0.00    +0.178 A 
ATOM     13  N   UNL     1      19.995   6.868  32.920  0.00  0.00    -0.266 NA
ATOM     14  C   UNL     1      19.142   7.851  33.380  0.00  0.00    +0.104 A 
ATOM     15  C   UNL     1      19.360   9.225  33.257  0.00  0.00    +0.071 A 
ATOM     16 CL   UNL     1      18.174  10.303  33.895  0.00  0.00    -0.072 Cl
ATOM     17  C   UNL     1      20.594   9.552  32.589  0.00  0.00    +0.043 A 
ATOM     28  N   UNL     1      21.463   8.571  32.122  0.00  0.00    -0.266 NA
ENDROOT
BRANCH  10   9
ATOM      3  N   UNL     1      26.994   4.828  28.128  0.00  0.00    -0.273 N 
ATOM      4  H   UNL     1      26.647   3.911  28.325  0.00  0.00    +0.185 HD
ATOM      5  C   UNL     1      26.119   5.887  28.005  0.00  0.00    +0.260 C 
ATOM      6  N   UNL     1      25.479   6.296  29.212  0.00  0.00    -0.259 N 
ATOM      7  C   UNL     1      25.653   5.699  30.586  0.00  0.00    +0.140 C 
ATOM      8  C   UNL     1      24.295   5.372  31.223  0.00  0.00    +0.052 C 
ATOM      9  C   UNL     1      23.374   6.625  31.217  0.00  0.00    +0.102 C 
ATOM     29  C   UNL     1      23.178   7.106  29.756  0.00  0.00    +0.052 C 
ATOM     30  C   UNL     1      24.538   7.440  29.135  0.00  0.00    +0.140 C 
ATOM     31  O   UNL     1      25.917   6.440  26.922  0.00  0.00    -0.401 OA
BRANCH   3   2
ATOM      1  C   UNL     1      29.185   4.593  29.202  0.00  0.00    +0.030 C 
ATOM      2  C   UNL     1      28.427   5.048  27.970  0.00  0.00    +0.131 C 
ENDBRANCH   3   2
ENDBRANCH  10   9
BRANCH  17  18
ATOM     18  C   UNL     1      21.096  10.911  32.293  0.00  0.00    +0.012 A 
ATOM     19  C   UNL     1      20.374  12.087  32.455  0.00  0.00    +0.160 A 
ATOM     20  N   UNL     1      21.134  13.147  32.080  0.00  0.00    -0.267 N 
ATOM     21  H   UNL     1      20.831  14.131  32.104  0.00  0.00    +0.234 HD
ATOM     22  C   UNL     1      22.362  12.712  31.665  0.00  0.00    +0.071 A 
ATOM     23  C   UNL     1      23.472  13.451  31.180  0.00  0.00    +0.014 A 
ATOM     24  C   UNL     1      24.631  12.728  30.814  0.00  0.00    -0.021 A 
ATOM     25  C   UNL     1      24.681  11.319  30.925  0.00  0.00    -0.025 A 
ATOM     26  C   UNL     1      23.566  10.587  31.409  0.00  0.00    -0.018 A 
ATOM     27  C   UNL     1      22.373  11.295  31.786  0.00  0.00    -0.010 A 
ENDBRANCH  17  18
TORSDOF 3
