REMARK  Name = 3GI3
REMARK  14 active torsions:
REMARK  status: ('A' for Active; 'I' for Inactive)
REMARK    1  A    between atoms: N_1  and  C_2
REMARK    2  A    between atoms: C_4  and  C_10
REMARK    3  A    between atoms: C_5  and  O_8
REMARK    4  A    between atoms: C_6  and  N_33
REMARK    5  A    between atoms: O_8  and  C_9
REMARK    6  A    between atoms: C_10  and  C_11
REMARK    7  A    between atoms: C_10  and  C_12
REMARK    8  A    between atoms: C_10  and  C_13
REMARK    9  A    between atoms: N_16  and  C_17
REMARK   10  A    between atoms: C_20  and  C_27
REMARK   11  A    between atoms: C_30  and  C_38
REMARK   12  A    between atoms: N_33  and  S_34
REMARK   13  A    between atoms: S_34  and  C_37
REMARK   14  A    between atoms: C_38  and  N_39
REMARK                            x       y       z     vdW  Elec       q    Type
REMARK                         _______ _______ _______ _____ _____    ______ ____
ROOT
ATOM      1  N   UNL     1      33.391  36.255  12.407  0.00  0.00    -0.266 N 
ATOM      2  H   UNL     1      34.323  35.953  11.977  0.00  0.00    +0.157 HD
ATOM      3  C   UNL     1      33.391  37.003  13.545  0.00  0.00    +0.308 C 
ATOM      4  N   UNL     1      34.625  37.267  14.106  0.00  0.00    -0.269 N 
ATOM      5  H   UNL     1      35.474  36.765  13.691  0.00  0.00    +0.156 HD
ATOM     29  O   UNL     1      32.328  37.390  14.042  0.00  0.00    -0.252 OA
ENDROOT
BRANCH   4   6
ATOM      6  C   UNL     1      34.850  38.142  15.177  0.00  0.00    +0.043 A 
ATOM      7  C   UNL     1      33.937  38.168  16.295  0.00  0.00    +0.024 A 
ATOM      8  C   UNL     1      34.103  39.028  17.390  0.00  0.00    +0.011 A 
ATOM      9  C   UNL     1      35.197  39.930  17.470  0.00  0.00    -0.009 A 
ATOM     23  C   UNL     1      36.194  39.972  16.387  0.00  0.00    -0.008 A 
ATOM     24  C   UNL     1      37.343  40.857  16.390  0.00  0.00    +0.009 A 
ATOM     25  C   UNL     1      38.270  40.844  15.293  0.00  0.00    +0.001 A 
ATOM     26  C   UNL     1      38.075  39.962  14.175  0.00  0.00    +0.001 A 
ATOM     27  C   UNL     1      36.951  39.075  14.137  0.00  0.00    +0.010 A 
ATOM     28  C   UNL     1      35.996  39.046  15.212  0.00  0.00    +0.004 A 
BRANCH   9  10
ATOM     10  C   UNL     1      35.199  40.792  18.712  0.00  0.00    +0.001 A 
ATOM     11  C   UNL     1      34.929  42.194  18.588  0.00  0.00    +0.119 A 
ATOM     12  N   UNL     1      34.910  42.957  19.696  0.00  0.00    -0.258 NA
ATOM     13  C   UNL     1      35.131  42.474  20.957  0.00  0.00    +0.055 A 
ATOM     21  C   UNL     1      35.405  41.089  21.172  0.00  0.00    +0.025 A 
ATOM     22  C   UNL     1      35.435  40.247  20.018  0.00  0.00    +0.012 A 
BRANCH  13  14
ATOM     14  C   UNL     1      35.067  43.435  22.126  0.00  0.00    +0.140 C 
BRANCH  14  15
ATOM     15  N   UNL     1      33.851  43.233  22.933  0.00  0.00    -0.292 NA
ATOM     16  C   UNL     1      34.148  43.634  24.342  0.00  0.00    +0.113 C 
ATOM     17  C   UNL     1      32.855  43.662  25.188  0.00  0.00    +0.175 C 
ATOM     18  O   UNL     1      31.883  44.530  24.567  0.00  0.00    -0.377 OA
ATOM     19  C   UNL     1      31.516  44.100  23.242  0.00  0.00    +0.175 C 
ATOM     20  C   UNL     1      32.768  44.072  22.331  0.00  0.00    +0.113 C 
ENDBRANCH  14  15
ENDBRANCH  13  14
ENDBRANCH   9  10
ENDBRANCH   4   6
BRANCH   1  30
ATOM     30  C   UNL     1      32.204  35.877  11.795  0.00  0.00    +0.079 A 
ATOM     31  C   UNL     1      32.005  34.475  11.618  0.00  0.00    +0.163 A 
ATOM     34  C   UNL     1      30.815  33.975  11.012  0.00  0.00    +0.091 A 
ATOM     41  C   UNL     1      29.809  34.878  10.574  0.00  0.00    +0.032 A 
ATOM     42  C   UNL     1      29.961  36.297  10.727  0.00  0.00    -0.038 A 
ATOM     47  C   UNL     1      31.183  36.795  11.348  0.00  0.00    +0.031 A 
BRANCH  42  43
ATOM     43  C   UNL     1      28.849  37.276  10.247  0.00  0.00    -0.013 C 
ATOM     44  C   UNL     1      29.415  38.277   9.207  0.00  0.00    +0.015 C 
ATOM     45  C   UNL     1      27.633  36.565   9.572  0.00  0.00    +0.015 C 
ATOM     46  C   UNL     1      28.308  38.024  11.481  0.00  0.00    +0.015 C 
ENDBRANCH  42  43
BRANCH  31  32
ATOM     32  O   UNL     1      33.008  33.586  12.054  0.00  0.00    -0.491 OA
ATOM     33  C   UNL     1      32.755  33.002  13.347  0.00  0.00    +0.277 C 
ENDBRANCH  31  32
BRANCH  34  35
ATOM     35  N   UNL     1      30.623  32.642  10.847  0.00  0.00    -0.217 N 
ATOM     36  H   UNL     1      29.582  32.514  10.636  0.00  0.00    +0.173 HD
BRANCH  35  37
ATOM     37  S   UNL     1      31.429  31.779   9.711  0.00  0.00    +0.040 S 
ATOM     38  C   UNL     1      32.379  32.755   8.565  0.00  0.00    +0.218 C 
ATOM     39  O   UNL     1      32.353  30.979  10.478  0.00  0.00    -0.156 OA
ATOM     40  O   UNL     1      30.408  31.099   8.985  0.00  0.00    -0.156 OA
ENDBRANCH  35  37
ENDBRANCH  34  35
ENDBRANCH   1  30
TORSDOF 9
