REMARK  Name = 4YHF
REMARK  10 active torsions:
REMARK  status: ('A' for Active; 'I' for Inactive)
REMARK    1  A    between atoms: C_1  and  C_19
REMARK    2  A    between atoms: C_2  and  C_3
REMARK    3  A    between atoms: C_2  and  C_20
REMARK    4  A    between atoms: C_2  and  C_21
REMARK    5  A    between atoms: C_4  and  C_19
REMARK    6  A    between atoms: C_7  and  O_31
REMARK    7  A    between atoms: N_14  and  C_15
REMARK    8  A    between atoms: C_18  and  C_19
REMARK    9  A    between atoms: C_28  and  C_29
REMARK   10  A    between atoms: C_30  and  O_31
REMARK                            x       y       z     vdW  Elec       q    Type
REMARK                         _______ _______ _______ _____ _____    ______ ____
ROOT
ATOM      1  C   UNL     1     -11.102 -14.140 -13.741  0.00  0.00    -0.033 C 
ATOM      2  C   UNL     1     -12.251 -15.264 -13.949  0.00  0.00    +0.011 C 
ATOM      3  C   UNL     1     -11.813 -12.743 -13.148  0.00  0.00    +0.011 C 
ATOM      4  C   UNL     1     -10.380 -13.843 -15.130  0.00  0.00    +0.011 C 
ENDROOT
TORSDOF 0
