REMARK  Name = 4G1N
REMARK  9 active torsions:
REMARK  status: ('A' for Active; 'I' for Inactive)
REMARK    1  A    between atoms: C_10  and  S_11
REMARK    2  A    between atoms: S_11  and  N_14
REMARK    3  A    between atoms: N_14  and  C_15
REMARK    4  A    between atoms: C_20  and  C_21
REMARK    5  A    between atoms: N_23  and  C_24
REMARK    6  A    between atoms: N_23  and  C_26
REMARK    7  A    between atoms: C_24  and  C_25
REMARK    8  A    between atoms: C_25  and  N_28
REMARK    9  A    between atoms: C_27  and  N_28
REMARK                            x       y       z     vdW  Elec       q    Type
REMARK                         _______ _______ _______ _____ _____    ______ ____
ROOT
ATOM      6  C   UNL     1       1.959 -15.253  48.656  0.00  0.00    +0.048 A 
ATOM      7  C   UNL     1       2.896 -14.365  48.121  0.00  0.00    +0.025 A 
ATOM      8  C   UNL     1       2.943 -13.038  48.558  0.00  0.00    +0.015 A 
ATOM      9  C   UNL     1       2.052 -12.563  49.539  0.00  0.00    +0.037 A 
ATOM     24  C   UNL     1       1.131 -13.464  50.107  0.00  0.00    +0.015 A 
ATOM     25  C   UNL     1       1.085 -14.797  49.662  0.00  0.00    +0.025 A 
ENDROOT
BRANCH   9  10
ATOM     10  C   UNL     1       2.148 -11.205  49.954  0.00  0.00    +0.246 C 
ATOM     11  N   UNL     1       1.868 -10.167  49.101  0.00  0.00    -0.299 N 
ATOM     12  C   UNL     1       2.057  -8.734  49.561  0.00  0.00    +0.132 C 
ATOM     23  O   UNL     1       2.575 -10.997  51.093  0.00  0.00    -0.270 OA
BRANCH  11  13
ATOM     13  C   UNL     1       1.333 -10.448  47.726  0.00  0.00    +0.126 C 
BRANCH  13  14
ATOM     14  C   UNL     1       0.189  -9.480  47.374  0.00  0.00    +0.125 C 
BRANCH  14  15
ATOM     15  N   UNL     1       0.697  -8.077  47.552  0.00  0.00    -0.316 N 
ATOM     16  C   UNL     1       0.904  -7.373  46.414  0.00  0.00    +0.139 A 
ATOM     17  C   UNL     1       2.163  -6.840  46.067  0.00  0.00    +0.154 A 
ATOM     18  N   UNL     1       2.346  -6.169  44.835  0.00  0.00    -0.258 NA
ATOM     19  C   UNL     1       1.239  -6.097  43.982  0.00  0.00    +0.130 A 
ATOM     20  C   UNL     1       0.010  -6.640  44.320  0.00  0.00    +0.132 A 
ATOM     21  N   UNL     1      -0.131  -7.273  45.553  0.00  0.00    -0.237 NA
ATOM     22  C   UNL     1       1.103  -7.666  48.929  0.00  0.00    +0.131 C 
ENDBRANCH  14  15
ENDBRANCH  13  14
ENDBRANCH  11  13
ENDBRANCH   9  10
BRANCH   6   4
ATOM      4  N   UNL     1       1.986 -16.538  48.225  0.00  0.00    -0.216 N 
ATOM      5  H   UNL     1       2.901 -17.083  48.324  0.00  0.00    +0.174 HD
BRANCH   4   3
ATOM      3  S   UNL     1       0.677 -17.319  47.550  0.00  0.00    +0.074 S 
ATOM     26  O   UNL     1       0.911 -18.806  47.581  0.00  0.00    -0.150 OA
ATOM     27  O   UNL     1      -0.573 -16.965  48.359  0.00  0.00    -0.150 OA
BRANCH   3   2
ATOM      1  C   UNL     1      -0.769 -16.454  45.378  0.00  0.00    +0.031 A 
ATOM      2  C   UNL     1       0.447 -16.922  45.836  0.00  0.00    +0.134 A 
ATOM     28  C   UNL     1       1.469 -17.121  44.936  0.00  0.00    +0.098 A 
ATOM     29  N   UNL     1       2.636 -17.587  45.386  0.00  0.00    -0.253 NA
ATOM     30  C   UNL     1       3.685 -17.787  44.474  0.00  0.00    +0.111 A 
ATOM     31  C   UNL     1       3.517 -17.513  43.109  0.00  0.00    +0.020 A 
ATOM     32  C   UNL     1       2.305 -17.032  42.647  0.00  0.00    +0.011 A 
ATOM     33  C   UNL     1       1.278 -16.840  43.566  0.00  0.00    +0.002 A 
ATOM     34  C   UNL     1       0.058 -16.369  43.111  0.00  0.00    +0.010 A 
ATOM     35  C   UNL     1      -0.964 -16.178  44.038  0.00  0.00    +0.003 A 
ENDBRANCH   3   2
ENDBRANCH   4   3
ENDBRANCH   6   4
TORSDOF 7
