REMARK  Name = 2r64_ligand
REMARK  5 active torsions:
REMARK  status: ('A' for Active; 'I' for Inactive)
REMARK    1  A    between atoms: C1_1  and  N1_28
REMARK    2  A    between atoms: C4_4  and  C7_7
REMARK    3  A    between atoms: C7_7  and  C8_8
REMARK    4  A    between atoms: N9_9  and  C10_10
REMARK    5  A    between atoms: C16_16  and  N19_19
REMARK                            x       y       z     vdW  Elec       q    Type
REMARK                         _______ _______ _______ _____ _____    ______ ____
ROOT
ATOM     12  C   UNL     1      23.215  28.510  28.630  0.00  0.00    +0.245 C 
ATOM     13  O   UNL     1      23.867  27.714  27.969  0.00  0.00    -0.367 OA
ATOM     14  N   UNL     1      23.581  29.776  29.000  0.00  0.00    -0.154 N 
ATOM     15  H   UNL     1      22.883  30.235  29.549  0.00  0.00    +0.270 HD
ENDROOT
BRANCH  14  16
ATOM     16  C   UNL     1      24.784  30.626  28.770  0.00  0.00    +0.263 A 
ATOM     17  C   UNL     1      25.983  30.286  27.977  0.00  0.00    +0.061 A 
ATOM     18  C   UNL     1      26.431  29.186  27.227  0.00  0.00    +0.027 A 
ATOM     19  C   UNL     1      27.695  29.218  26.567  0.00  0.00    +0.067 A 
ATOM     27  C   UNL     1      28.529  30.388  26.672  0.00  0.00    +0.002 A 
ATOM     28  C   UNL     1      28.102  31.509  27.420  0.00  0.00    -0.027 A 
ATOM     29  C   UNL     1      26.864  31.472  28.057  0.00  0.00    -0.076 A 
ATOM     30  N   UNL     1      26.168  32.358  28.829  0.00  0.00    -0.462 NA
ATOM     31  N   UNL     1      24.974  31.861  29.232  0.00  0.00    -0.262 N 
ATOM     32  H   UNL     1      24.300  32.372  29.820  0.00  0.00    +0.246 HD
BRANCH  19  20
ATOM     20  N   UNL     1      28.137  28.146  25.821  0.00  0.00    -0.178 N 
ATOM     21  S   UNL     1      28.782  28.325  24.364  0.00  0.00    +0.063 S 
ATOM     22  O   UNL     1      30.192  28.715  24.696  0.00  0.00    -0.150 OA
ATOM     23  O   UNL     1      27.914  29.255  23.553  0.00  0.00    -0.150 OA
ATOM     24  C   UNL     1      28.648  26.654  23.761  0.00  0.00    +0.197 C 
ATOM     25  C   UNL     1      28.703  25.878  25.078  0.00  0.00    +0.053 C 
ATOM     26  C   UNL     1      28.094  26.742  26.235  0.00  0.00    +0.168 C 
ENDBRANCH  19  20
ENDBRANCH  14  16
BRANCH  12  11
ATOM     11  C   UNL     1      21.786  28.137  29.109  0.00  0.00    +0.206 C 
BRANCH  11  10
ATOM      1  C   UNL     1      21.767  24.666  31.732  0.00  0.00    +0.034 A 
ATOM      8  C   UNL     1      21.520  25.966  32.208  0.00  0.00    -0.000 A 
ATOM      9  C   UNL     1      21.527  27.067  31.350  0.00  0.00    -0.016 A 
ATOM     10  C   UNL     1      21.783  26.910  29.979  0.00  0.00    -0.036 A 
ATOM     33  C   UNL     1      22.041  25.607  29.442  0.00  0.00    -0.016 A 
ATOM     34  C   UNL     1      22.034  24.464  30.328  0.00  0.00    -0.000 A 
BRANCH   1   2
ATOM      2  N   UNL     1      21.736  23.588  32.652  0.00  0.00    -0.312 N 
ATOM      3  C   UNL     1      20.745  22.498  32.432  0.00  0.00    +0.128 C 
ATOM      4  C   UNL     1      20.993  21.216  33.260  0.00  0.00    +0.023 C 
ATOM      5  C   UNL     1      21.362  21.588  34.704  0.00  0.00    +0.004 C 
ATOM      6  C   UNL     1      22.728  22.302  34.682  0.00  0.00    +0.023 C 
ATOM      7  C   UNL     1      22.664  23.619  33.846  0.00  0.00    +0.128 C 
ENDBRANCH   1   2
ENDBRANCH  11  10
ENDBRANCH  12  11
TORSDOF 5
