REMARK  Name = 2of4_ligand
REMARK  5 active torsions:
REMARK  status: ('A' for Active; 'I' for Inactive)
REMARK    1  A    between atoms: C9_8  and  C44_20
REMARK    2  A    between atoms: C10_9  and  C33_14
REMARK    3  A    between atoms: N11_10  and  C12_11
REMARK    4  A    between atoms: C12_11  and  C13_12
REMARK    5  A    between atoms: C13_12  and  N16_13
REMARK                            x       y       z     vdW  Elec       q    Type
REMARK                         _______ _______ _______ _____ _____    ______ ____
ROOT
ATOM      1  C   UNL     1      23.794  35.515  82.249  0.00  0.00    +0.155 A 
ATOM      2  N   UNL     1      23.470  36.458  83.150  0.00  0.00    -0.269 NA
ATOM      3  C   UNL     1      24.374  37.286  83.710  0.00  0.00    +0.126 A 
ATOM      4  N   UNL     1      23.852  38.185  84.599  0.00  0.00    -0.295 N 
ATOM      5  H   UNL     1      23.776  37.943  85.597  0.00  0.00    +0.187 HD
ATOM     17  C   UNL     1      25.780  37.181  83.369  0.00  0.00    +0.076 A 
ATOM     18  C   UNL     1      26.960  37.836  83.752  0.00  0.00    +0.022 A 
ATOM     25  C   UNL     1      27.996  37.094  82.906  0.00  0.00    +0.144 A 
ATOM     32  O   UNL     1      27.395  36.101  82.170  0.00  0.00    -0.228 OA
ATOM     33  C   UNL     1      26.062  36.173  82.430  0.00  0.00    +0.201 A 
ATOM     34  N   UNL     1      25.075  35.357  81.917  0.00  0.00    -0.262 NA
ENDROOT
BRANCH  18  19
ATOM     19  C   UNL     1      27.128  38.996  84.705  0.00  0.00    -0.031 A 
ATOM     20  C   UNL     1      26.720  38.846  86.089  0.00  0.00    -0.003 A 
ATOM     21  C   UNL     1      26.928  39.908  87.013  0.00  0.00    -0.005 A 
ATOM     22  C   UNL     1      27.578  41.118  86.561  0.00  0.00    -0.008 A 
ATOM     23  C   UNL     1      27.984  41.287  85.184  0.00  0.00    -0.005 A 
ATOM     24  C   UNL     1      27.766  40.221  84.256  0.00  0.00    -0.003 A 
ENDBRANCH  18  19
BRANCH  25  26
ATOM     26  C   UNL     1      29.486  37.294  82.856  0.00  0.00    +0.019 A 
ATOM     27  C   UNL     1      30.203  37.994  83.912  0.00  0.00    +0.011 A 
ATOM     28  C   UNL     1      31.616  38.190  83.850  0.00  0.00    +0.000 A 
ATOM     29  C   UNL     1      32.325  37.686  82.718  0.00  0.00    -0.001 A 
ATOM     30  C   UNL     1      31.641  36.982  81.645  0.00  0.00    +0.000 A 
ATOM     31  C   UNL     1      30.223  36.788  81.710  0.00  0.00    +0.011 A 
ENDBRANCH  25  26
BRANCH   4   6
ATOM      6  C   UNL     1      23.406  39.483  84.125  0.00  0.00    +0.186 C 
BRANCH   6   7
ATOM      7  C   UNL     1      23.235  40.447  85.308  0.00  0.00    +0.157 C 
BRANCH   7   8
ATOM      8  N   UNL     1      22.866  41.856  84.938  0.00  0.00    +0.244 N 
ATOM      9  H   UNL     1      21.959  41.824  84.500  0.00  0.00    +0.204 HD
ATOM     10  C   UNL     1      23.831  42.472  83.917  0.00  0.00    +0.183 C 
ATOM     11  C   UNL     1      25.160  43.040  84.515  0.00  0.00    +0.181 C 
ATOM     12  N   UNL     1      25.011  43.771  85.814  0.00  0.00    +0.234 N 
ATOM     13  H   UNL     1      24.590  44.669  85.631  0.00  0.00    +0.202 HD
ATOM     14  H   UNL     1      25.927  43.904  86.214  0.00  0.00    +0.202 HD
ATOM     15  C   UNL     1      24.165  43.043  86.798  0.00  0.00    +0.181 C 
ATOM     16  C   UNL     1      22.735  42.702  86.191  0.00  0.00    +0.183 C 
ENDBRANCH   7   8
ENDBRANCH   6   7
ENDBRANCH   4   6
TORSDOF 5
