REMARK  Name = 1M17
REMARK  13 active torsions:
REMARK  status: ('A' for Active; 'I' for Inactive)
REMARK    1  A    between atoms: C_2  and  C_3
REMARK    2  A    between atoms: C_5  and  N_6
REMARK    3  A    between atoms: N_6  and  C_7
REMARK    4  A    between atoms: C_10  and  O_11
REMARK    5  A    between atoms: O_11  and  C_12
REMARK    6  A    between atoms: C_12  and  C_13
REMARK    7  A    between atoms: C_13  and  O_14
REMARK    8  A    between atoms: O_14  and  C_15
REMARK    9  A    between atoms: C_16  and  O_17
REMARK   10  A    between atoms: O_17  and  C_18
REMARK   11  A    between atoms: C_18  and  C_19
REMARK   12  A    between atoms: C_19  and  O_20
REMARK   13  A    between atoms: O_20  and  C_21
REMARK                            x       y       z     vdW  Elec       q    Type
REMARK                         _______ _______ _______ _____ _____    ______ ____
ROOT
ATOM     10  C   UNL     1      23.410  -0.217  53.908  0.00  0.00    +0.134 A 
ATOM     11  N   UNL     1      23.943  -1.023  54.940  0.00  0.00    -0.220 NA
ATOM     12  C   UNL     1      23.117  -1.934  55.642  0.00  0.00    +0.224 A 
ATOM     13  N   UNL     1      21.747  -2.039  55.319  0.00  0.00    -0.235 NA
ATOM     14  C   UNL     1      21.199  -1.222  54.264  0.00  0.00    +0.080 A 
ATOM     15  C   UNL     1      19.845  -1.318  53.942  0.00  0.00    +0.077 A 
ATOM     16  C   UNL     1      19.301  -0.535  52.923  0.00  0.00    +0.164 A 
ATOM     22  C   UNL     1      20.143   0.376  52.218  0.00  0.00    +0.163 A 
ATOM     28  C   UNL     1      21.501   0.476  52.546  0.00  0.00    +0.063 A 
ATOM     29  C   UNL     1      22.037  -0.309  53.572  0.00  0.00    +0.044 A 
ENDROOT
BRANCH  10   8
ATOM      8  N   UNL     1      24.289   0.712  53.215  0.00  0.00    -0.299 N 
ATOM      9  H   UNL     1      24.115   0.485  52.184  0.00  0.00    +0.154 HD
BRANCH   8   7
ATOM      3  C   UNL     1      27.989   0.094  53.366  0.00  0.00    +0.026 A 
ATOM      4  C   UNL     1      28.508   1.410  53.344  0.00  0.00    +0.017 A 
ATOM      5  C   UNL     1      27.625   2.509  53.279  0.00  0.00    +0.003 A 
ATOM      6  C   UNL     1      26.234   2.292  53.236  0.00  0.00    +0.023 A 
ATOM      7  C   UNL     1      25.725   0.972  53.258  0.00  0.00    +0.034 A 
ATOM     30  C   UNL     1      26.606  -0.119  53.323  0.00  0.00    +0.040 A 
BRANCH   3   2
ATOM      1  C   UNL     1      29.552  -1.989  53.496  0.00  0.00    +0.009 C 
ATOM      2  C   UNL     1      28.841  -1.022  53.432  0.00  0.00    -0.070 C 
ENDBRANCH   3   2
ENDBRANCH   8   7
ENDBRANCH  10   8
BRANCH  16  17
ATOM     17  O   UNL     1      17.828  -0.679  52.597  0.00  0.00    -0.486 OA
BRANCH  17  18
ATOM     18  C   UNL     1      17.227   0.601  52.220  0.00  0.00    +0.257 C 
BRANCH  18  19
ATOM     19  C   UNL     1      15.703   0.494  52.066  0.00  0.00    +0.200 C 
BRANCH  19  20
ATOM     20  O   UNL     1      15.108   0.167  53.335  0.00  0.00    -0.380 OA
ATOM     21  C   UNL     1      13.843  -0.695  53.221  0.00  0.00    +0.194 C 
ENDBRANCH  19  20
ENDBRANCH  18  19
ENDBRANCH  17  18
ENDBRANCH  16  17
BRANCH  22  23
ATOM     23  O   UNL     1      19.589   1.220  51.120  0.00  0.00    -0.486 OA
BRANCH  23  24
ATOM     24  C   UNL     1      20.550   1.362  50.041  0.00  0.00    +0.257 C 
BRANCH  24  25
ATOM     25  C   UNL     1      20.235   2.645  49.262  0.00  0.00    +0.200 C 
BRANCH  25  26
ATOM     26  O   UNL     1      18.990   2.485  48.543  0.00  0.00    -0.380 OA
ATOM     27  C   UNL     1      17.712   2.618  49.399  0.00  0.00    +0.194 C 
ENDBRANCH  25  26
ENDBRANCH  24  25
ENDBRANCH  23  24
ENDBRANCH  22  23
TORSDOF 11
