REMARK  Name = 1zyj_ligand
REMARK  5 active torsions:
REMARK  status: ('A' for Active; 'I' for Inactive)
REMARK    1  A    between atoms: C1_18  and  C6_23
REMARK    2  A    between atoms: C6_23  and  N2_24
REMARK    3  A    between atoms: C7_25  and  C8_26
REMARK    4  A    between atoms: C11_29  and  O1_32
REMARK    5  A    between atoms: O1_32  and  C14_33
REMARK                            x       y       z     vdW  Elec       q    Type
REMARK                         _______ _______ _______ _____ _____    ______ ____
ROOT
ATOM     11  C   UNL     1      52.537  35.898 -25.280  0.00  0.00    +0.039 A 
ATOM     12  C   UNL     1      52.663  36.689 -24.065  0.00  0.00    +0.015 A 
ATOM     13  C   UNL     1      53.384  36.140 -22.931  0.00  0.00    +0.034 A 
ATOM     14  C   UNL     1      53.951  34.809 -23.078  0.00  0.00    +0.121 A 
ATOM     22  C   UNL     1      53.835  34.038 -24.309  0.00  0.00    +0.034 A 
ATOM     23  C   UNL     1      53.113  34.575 -25.448  0.00  0.00    +0.015 A 
ENDROOT
BRANCH  11   9
ATOM      8  N   UNL     1      50.935  37.541 -26.192  0.00  0.00    -0.274 N 
ATOM      9  C   UNL     1      51.702  36.475 -26.412  0.00  0.00    +0.199 C 
ATOM     10  O   UNL     1      51.741  35.963 -27.534  0.00  0.00    -0.389 OA
ATOM     24  H   UNL     1      50.697  37.837 -25.267  0.00  0.00    +0.187 HD
BRANCH   8   7
ATOM      7  C   UNL     1      50.455  38.262 -27.384  0.00  0.00    +0.221 C 
BRANCH   7   6
ATOM      1  C   UNL     1      51.541  40.562 -27.121  0.00  0.00    +0.035 A 
ATOM      2  C   UNL     1      52.483  41.546 -27.631  0.00  0.00    +0.023 A 
ATOM      3  C   UNL     1      53.266  41.270 -28.826  0.00  0.00    +0.024 A 
ATOM      4  C   UNL     1      53.106  40.004 -29.524  0.00  0.00    +0.083 A 
ATOM      5  N   UNL     1      52.189  39.050 -29.019  0.00  0.00    -0.296 NA
ATOM      6  C   UNL     1      51.428  39.313 -27.857  0.00  0.00    +0.050 A 
ENDBRANCH   7   6
ENDBRANCH   8   7
ENDBRANCH  11   9
BRANCH  14  15
ATOM     15  O   UNL     1      54.538  34.311 -21.980  0.00  0.00    -0.255 OA
BRANCH  15  16
ATOM     16  C   UNL     1      55.035  33.072 -22.018  0.00  0.00    +0.118 A 
ATOM     17  C   UNL     1      56.379  32.836 -22.528  0.00  0.00    +0.027 A 
ATOM     18  C   UNL     1      56.916  31.482 -22.507  0.00  0.00    -0.010 A 
ATOM     19  C   UNL     1      56.071  30.420 -21.978  0.00  0.00    -0.019 A 
ATOM     20  C   UNL     1      54.724  30.668 -21.484  0.00  0.00    -0.010 A 
ATOM     21  C   UNL     1      54.181  32.017 -21.501  0.00  0.00    +0.027 A 
ENDBRANCH  15  16
ENDBRANCH  14  15
TORSDOF 5
