REMARK  Name = 5FD2
REMARK  6 active torsions:
REMARK  status: ('A' for Active; 'I' for Inactive)
REMARK    1  A    between atoms: C_1  and  N_2
REMARK    2  A    between atoms: N_2  and  C_3
REMARK    3  A    between atoms: N_2  and  S_4
REMARK    4  A    between atoms: S_4  and  N_7
REMARK    5  A    between atoms: N_7  and  C_8
REMARK    6  A    between atoms: C_15  and  N_16
REMARK                            x       y       z     vdW  Elec       q    Type
REMARK                         _______ _______ _______ _____ _____    ______ ____
ROOT
ATOM     11  N   UNL     1       5.080  26.558  -1.788  0.00  0.00    -0.196 N 
ATOM     12  H   UNL     1       4.602  27.404  -1.340  0.00  0.00    +0.299 HD
ATOM     13  C   UNL     1       4.309  25.536  -2.215  0.00  0.00    +0.322 C 
ATOM     14  C   UNL     1       2.941  25.434  -1.868  0.00  0.00    +0.075 C 
ATOM     15  C   UNL     1       2.275  26.433  -1.127  0.00  0.00    +0.106 C 
ATOM     16  C   UNL     1       0.891  26.415  -0.903  0.00  0.00    +0.132 C 
ATOM     17  N   UNL     1      -0.097  25.553  -1.184  0.00  0.00    -0.232 NA
ATOM     18  C   UNL     1      -1.243  26.032  -0.703  0.00  0.00    +0.198 C 
ATOM     19  N   UNL     1      -0.994  27.200  -0.102  0.00  0.00    -0.331 NA
ATOM     20  H   UNL     1      -1.719  27.822   0.380  0.00  0.00    +0.168 HD
ATOM     21  C   UNL     1       0.312  27.460  -0.204  0.00  0.00    +0.139 C 
ATOM     22  N   UNL     1       1.072  28.473   0.215  0.00  0.00    -0.331 NA
ATOM     23  H   UNL     1       0.628  29.286   0.751  0.00  0.00    +0.168 HD
ATOM     24  C   UNL     1       2.367  28.477  -0.028  0.00  0.00    +0.198 C 
ATOM     25  N   UNL     1       2.956  27.497  -0.684  0.00  0.00    -0.235 NA
ATOM     26  C   UNL     1       2.229  24.340  -2.359  0.00  0.00    +0.076 C 
ATOM     27  C   UNL     1       2.870  23.389  -3.128  0.00  0.00    +0.025 C 
ATOM     28  C   UNL     1       4.208  23.532  -3.429  0.00  0.00    +0.250 C 
ATOM     29  N   UNL     1       4.875  24.584  -2.991  0.00  0.00    -0.050 NA
ENDROOT
BRANCH  11  10
ATOM      6  C   UNL     1       8.356  26.939  -3.252  0.00  0.00    +0.088 A 
ATOM      7  C   UNL     1       9.175  26.655  -2.172  0.00  0.00    +0.030 A 
ATOM      8  C   UNL     1       8.627  26.331  -0.946  0.00  0.00    +0.044 A 
ATOM      9  C   UNL     1       7.256  26.293  -0.810  0.00  0.00    +0.171 A 
ATOM     10  C   UNL     1       6.419  26.565  -1.898  0.00  0.00    +0.192 A 
ATOM     30  F   UNL     1       6.781  25.994   0.400  0.00  0.00    -0.201 F 
ATOM     31  C   UNL     1       6.999  26.884  -3.117  0.00  0.00    +0.193 A 
ATOM     32  F   UNL     1       6.267  27.157  -4.196  0.00  0.00    -0.199 F 
BRANCH   6   4
ATOM      4  N   UNL     1       8.857  27.216  -4.445  0.00  0.00    -0.203 N 
ATOM      5  H   UNL     1       8.483  26.689  -5.298  0.00  0.00    +0.175 HD
BRANCH   4   3
ATOM      3  S   UNL     1      10.021  28.329  -4.660  0.00  0.00    +0.111 S 
ATOM     33  O   UNL     1      10.095  28.785  -6.074  0.00  0.00    -0.138 OA
ATOM     34  O   UNL     1      11.300  27.639  -4.309  0.00  0.00    -0.138 OA
BRANCH   3   2
ATOM      1  C   UNL     1      11.055  30.214  -3.280  0.00  0.00    +0.132 C 
ATOM      2  N   UNL     1       9.772  29.589  -3.635  0.00  0.00    -0.170 NA
ATOM     35  C   UNL     1       8.923  30.615  -4.263  0.00  0.00    +0.132 C 
ENDBRANCH   3   2
ENDBRANCH   4   3
ENDBRANCH   6   4
ENDBRANCH  11  10
TORSDOF 4
