REMARK  Name = 3v8w_ligand
REMARK  8 active torsions:
REMARK  status: ('A' for Active; 'I' for Inactive)
REMARK    1  A    between atoms: CBB_1  and  CAY_2
REMARK    2  A    between atoms: CAY_2  and  CAS_3
REMARK    3  A    between atoms: CAS_3  and  CAZ_4
REMARK    4  A    between atoms: CAS_3  and  OBA_6
REMARK    5  A    between atoms: CAS_3  and  CAH_7
REMARK    6  A    between atoms: CAZ_4  and  CBC_5
REMARK    7  A    between atoms: CAA_15  and  CAJ_16
REMARK    8  A    between atoms: CAP_23  and  CAR_24
REMARK                            x       y       z     vdW  Elec       q    Type
REMARK                         _______ _______ _______ _____ _____    ______ ____
ROOT
ATOM      4  C   UNL     1     -52.281 -16.891  31.450  0.00  0.00    -0.060 A 
ATOM      5  C   UNL     1     -53.090 -17.904  30.924  0.00  0.00    +0.001 A 
ATOM      6  C   UNL     1     -53.405 -17.922  29.563  0.00  0.00    +0.009 A 
ATOM      7  C   UNL     1     -52.925 -16.913  28.728  0.00  0.00    +0.005 A 
ATOM      8  C   UNL     1     -52.108 -15.912  29.241  0.00  0.00    +0.095 A 
ATOM      9  N   UNL     1     -51.806 -15.103  28.231  0.00  0.00    -0.256 N 
ATOM     10  H   UNL     1     -51.235 -14.260  28.295  0.00  0.00    +0.229 HD
ATOM     11  C   UNL     1     -52.372 -15.575  27.120  0.00  0.00    +0.113 A 
ATOM     27  C   UNL     1     -53.050 -16.684  27.425  0.00  0.00    +0.019 A 
ATOM     28  C   UNL     1     -51.802 -15.885  30.603  0.00  0.00    +0.057 A 
ENDROOT
BRANCH  11  12
ATOM     12  C   UNL     1     -52.259 -14.991  25.858  0.00  0.00    +0.147 A 
ATOM     13  C   UNL     1     -52.928 -15.425  24.730  0.00  0.00    +0.079 A 
ATOM     14  S   UNL     1     -54.014 -16.518  24.068  0.00  0.00    -0.044 S 
ATOM     15  C   UNL     1     -53.941 -15.902  22.500  0.00  0.00    +0.034 A 
ATOM     22  C   UNL     1     -53.093 -14.860  22.511  0.00  0.00    +0.003 A 
ATOM     23  C   UNL     1     -52.526 -14.570  23.706  0.00  0.00    +0.053 A 
ATOM     24  N   UNL     1     -51.677 -13.713  24.283  0.00  0.00    -0.207 NA
ATOM     25  N   UNL     1     -51.515 -13.952  25.487  0.00  0.00    -0.209 N 
ATOM     26  H   UNL     1     -50.898 -13.427  26.107  0.00  0.00    +0.257 HD
BRANCH  15  16
ATOM     16  C   UNL     1     -54.697 -16.413  21.443  0.00  0.00    -0.007 A 
ATOM     17  C   UNL     1     -55.368 -17.634  21.569  0.00  0.00    +0.009 A 
ATOM     18  C   UNL     1     -56.137 -18.130  20.515  0.00  0.00    +0.000 A 
ATOM     19  C   UNL     1     -56.243 -17.404  19.328  0.00  0.00    -0.001 A 
ATOM     20  C   UNL     1     -55.584 -16.182  19.199  0.00  0.00    +0.000 A 
ATOM     21  C   UNL     1     -54.815 -15.687  20.254  0.00  0.00    +0.009 A 
ENDBRANCH  15  16
ENDBRANCH  11  12
BRANCH   4   3
ATOM      3  C   UNL     1     -51.936 -16.866  32.953  0.00  0.00    +0.024 C 
BRANCH   3   2
ATOM      1  C   UNL     1     -52.575 -15.747  35.147  0.00  0.00    -0.009 C 
ATOM      2  C   UNL     1     -52.779 -15.776  33.628  0.00  0.00    -0.041 C 
ENDBRANCH   3   2
BRANCH   3  29
ATOM     29  O   UNL     1     -52.232 -18.132  33.558  0.00  0.00    -0.447 OA
ATOM     30  H   UNL     1     -53.163 -18.333  33.437  0.00  0.00    +0.188 HD
ENDBRANCH   3  29
BRANCH   3  31
ATOM     31  C   UNL     1     -50.445 -16.552  33.151  0.00  0.00    -0.041 C 
ATOM     32  C   UNL     1     -49.551 -17.628  32.528  0.00  0.00    -0.009 C 
ENDBRANCH   3  31
ENDBRANCH   4   3
TORSDOF 6
