REMARK  Name = EDT
REMARK  11 active torsions:
REMARK  status: ('A' for Active; 'I' for Inactive)
REMARK    1  A    between atoms: C5_2  and  C4_4
REMARK    2  A    between atoms: C4_4  and  N3_5
REMARK    3  A    between atoms: N3_5  and  C2_6
REMARK    4  A    between atoms: N3_5  and  C6_10
REMARK    5  A    between atoms: C2_6  and  C1_7
REMARK    6  A    between atoms: C6_10  and  C7_11
REMARK    7  A    between atoms: C7_11  and  N8_12
REMARK    8  A    between atoms: N8_12  and  C9_13
REMARK    9  A    between atoms: N8_12  and  C11_17
REMARK   10  A    between atoms: C9_13  and  C10_14
REMARK   11  A    between atoms: C11_17  and  C12_18
REMARK                            x       y       z     vdW  Elec       q    Type
REMARK                         _______ _______ _______ _____ _____    ______ ____
ROOT
ATOM      5  C   UNL     1      -4.898  50.617  -1.784  0.00  0.00    +0.090 C 
ENDROOT
BRANCH   5   4
ATOM      4  N   UNL     1      -4.439  49.356  -2.408  0.00  0.00    -0.252 NA
BRANCH   4   3
ATOM      3  C   UNL     1      -3.168  48.868  -1.756  0.00  0.00    +0.188 C 
BRANCH   3   2
ATOM      1  O   UNL     1      -1.948  51.019  -1.778  0.00  0.00    -0.244 OA
ATOM      2  C   UNL     1      -1.867  49.695  -1.974  0.00  0.00    +0.381 C 
ATOM     20  O   UNL     1      -0.810  49.155  -2.295  0.00  0.00    -0.244 OA
ENDBRANCH   3   2
ENDBRANCH   4   3
BRANCH   4  16
ATOM     16  C   UNL     1      -4.220  49.566  -3.850  0.00  0.00    +0.188 C 
BRANCH  16  17
ATOM     17  C   UNL     1      -4.642  48.392  -4.708  0.00  0.00    +0.381 C 
ATOM     18  O   UNL     1      -5.395  47.469  -4.091  0.00  0.00    -0.244 OA
ATOM     19  O   UNL     1      -4.303  48.325  -5.881  0.00  0.00    -0.244 OA
ENDBRANCH  16  17
ENDBRANCH   4  16
ENDBRANCH   5   4
BRANCH   5   6
ATOM      6  C   UNL     1      -5.648  50.547  -0.432  0.00  0.00    +0.090 C 
BRANCH   6   7
ATOM      7  N   UNL     1      -6.607  49.401  -0.386  0.00  0.00    -0.252 NA
BRANCH   7   8
ATOM      8  C   UNL     1      -6.415  48.697   0.895  0.00  0.00    +0.188 C 
BRANCH   8   9
ATOM      9  C   UNL     1      -5.099  47.912   0.906  0.00  0.00    +0.381 C 
ATOM     10  O   UNL     1      -4.111  48.446   1.672  0.00  0.00    -0.244 OA
ATOM     11  O   UNL     1      -4.979  46.887   0.240  0.00  0.00    -0.244 OA
ENDBRANCH   8   9
ENDBRANCH   7   8
BRANCH   7  12
ATOM     12  C   UNL     1      -8.006  49.857  -0.537  0.00  0.00    +0.188 C 
BRANCH  12  13
ATOM     13  C   UNL     1      -8.833  49.147  -1.622  0.00  0.00    +0.381 C 
ATOM     14  O   UNL     1     -10.065  49.100  -1.529  0.00  0.00    -0.244 OA
ATOM     15  O   UNL     1      -8.143  48.622  -2.665  0.00  0.00    -0.244 OA
ENDBRANCH  12  13
ENDBRANCH   7  12
ENDBRANCH   6   7
ENDBRANCH   5   6
TORSDOF 11
