REMARK  Name = 3QQJ
REMARK  2 active torsions:
REMARK  status: ('A' for Active; 'I' for Inactive)
REMARK    1  A    between atoms: C_6  and  C_9
REMARK    2  A    between atoms: C_10  and  O_15
REMARK                            x       y       z     vdW  Elec       q    Type
REMARK                         _______ _______ _______ _____ _____    ______ ____
ROOT
ATOM      1  N   UNL     1     -12.000 -80.216 -11.162  0.00  0.00    -0.195 NA
ATOM      2  C   UNL     1     -11.806 -80.744 -12.392  0.00  0.00    +0.170 A 
ATOM     11  N   UNL     1     -10.773 -81.585 -12.604  0.00  0.00    -0.195 NA
ATOM     12  C   UNL     1      -9.933 -81.905 -11.601  0.00  0.00    +0.217 A 
ATOM     13  N   UNL     1      -8.871 -82.775 -11.846  0.00  0.00    -0.327 N 
ATOM     14  H   UNL     1      -8.730 -83.186 -12.824  0.00  0.00    +0.145 HD
ATOM     15  H   UNL     1      -8.197 -83.032 -11.056  0.00  0.00    +0.145 HD
ATOM     16  N   UNL     1     -10.121 -81.380 -10.370  0.00  0.00    -0.181 NA
ATOM     17  C   UNL     1     -11.156 -80.535 -10.150  0.00  0.00    +0.217 A 
ATOM     18  N   UNL     1     -11.358 -79.984  -8.872  0.00  0.00    -0.327 N 
ATOM     19  H   UNL     1     -10.694 -80.233  -8.071  0.00  0.00    +0.145 HD
ATOM     20  H   UNL     1     -12.176 -79.315  -8.701  0.00  0.00    +0.145 HD
ENDROOT
BRANCH   2   3
ATOM      3  C   UNL     1     -12.723 -80.399 -13.513  0.00  0.00    +0.061 A 
ATOM      4  C   UNL     1     -13.816 -79.506 -13.289  0.00  0.00    +0.015 A 
ATOM      5  C   UNL     1     -14.691 -79.165 -14.353  0.00  0.00    +0.001 A 
ATOM      6  C   UNL     1     -14.470 -79.717 -15.655  0.00  0.00    +0.004 A 
ATOM      7  C   UNL     1     -13.382 -80.610 -15.882  0.00  0.00    +0.046 A 
ATOM      8  C   UNL     1     -12.510 -80.955 -14.819  0.00  0.00    +0.128 A 
BRANCH   8   9
ATOM      9  O   UNL     1     -11.468 -81.819 -15.048  0.00  0.00    -0.506 OA
ATOM     10  H   UNL     1     -10.560 -81.338 -14.832  0.00  0.00    +0.292 HD
ENDBRANCH   8   9
ENDBRANCH   2   3
TORSDOF 2
