REMARK  Name = B6H
REMARK  7 active torsions:
REMARK  status: ('A' for Active; 'I' for Inactive)
REMARK    1  A    between atoms: NBI_7  and  CBC_8
REMARK    2  A    between atoms: CBF_10  and  OAV_11
REMARK    3  A    between atoms: CBD_15  and  NAU_16
REMARK    4  A    between atoms: CBG_22  and  CAY_23
REMARK    5  A    between atoms: CAY_23  and  CBB_25
REMARK    6  A    between atoms: CAZ_30  and  NAT_31
REMARK    7  A    between atoms: CAX_32  and  CAG_34
REMARK                            x       y       z     vdW  Elec       q    Type
REMARK                         _______ _______ _______ _____ _____    ______ ____
ROOT
ATOM     11  N   UNL     1      -9.409 104.429 277.930  0.00  0.00    -0.186 NA
ATOM     12  C   UNL     1      -8.495 103.932 277.080  0.00  0.00    +0.185 A 
ATOM     13  N   UNL     1      -8.166 102.639 277.015  0.00  0.00    -0.204 NA
ATOM     14  C   UNL     1      -7.223 102.352 276.093  0.00  0.00    +0.181 A 
ATOM     15  N   UNL     1      -6.826 101.088 275.952  0.00  0.00    -0.107 NA
ATOM     16  C   UNL     1      -6.783 103.421 275.401  0.00  0.00    +0.106 A 
ATOM     30  S   UNL     1      -7.597 104.745 275.963  0.00  0.00    -0.045 S 
ENDROOT
BRANCH  11  10
ATOM      7  C   UNL     1     -10.199 108.497 278.104  0.00  0.00    +0.051 A 
ATOM      8  C   UNL     1      -8.909 108.034 278.384  0.00  0.00    +0.016 A 
ATOM      9  C   UNL     1      -8.621 106.671 278.333  0.00  0.00    +0.021 A 
ATOM     10  C   UNL     1      -9.621 105.755 277.988  0.00  0.00    +0.107 A 
ATOM     31  C   UNL     1     -10.914 106.214 277.716  0.00  0.00    +0.155 A 
ATOM     34  C   UNL     1     -11.202 107.582 277.764  0.00  0.00    +0.053 A 
BRANCH   7   2
ATOM      1  C   UNL     1      -9.677 110.732 277.259  0.00  0.00    +0.108 C 
ATOM      2  N   UNL     1     -10.458 109.818 278.156  0.00  0.00    -0.305 N 
ATOM      3  C   UNL     1     -11.451 110.322 279.142  0.00  0.00    +0.108 C 
ATOM      4  C   UNL     1     -12.122 111.589 278.650  0.00  0.00    +0.094 C 
ATOM      5  N   UNL     1     -11.024 112.509 278.325  0.00  0.00    -0.269 NA
ATOM      6  C   UNL     1     -11.566 113.891 278.230  0.00  0.00    +0.090 C 
ATOM     35  C   UNL     1     -10.312 112.095 277.087  0.00  0.00    +0.094 C 
ENDBRANCH   7   2
BRANCH  31  32
ATOM     32  O   UNL     1     -11.858 105.280 277.396  0.00  0.00    -0.470 OA
ATOM     33  C   UNL     1     -12.952 105.258 278.328  0.00  0.00    +0.253 C 
ENDBRANCH  31  32
ENDBRANCH  11  10
BRANCH  16  17
ATOM     17  C   UNL     1      -5.845 103.385 274.430  0.00  0.00    +0.204 C 
ATOM     18  O   UNL     1      -5.273 102.331 274.145  0.00  0.00    -0.286 OA
BRANCH  17  19
ATOM     19  C   UNL     1      -5.502 104.558 273.739  0.00  0.00    +0.040 A 
ATOM     20  C   UNL     1      -4.164 104.962 273.710  0.00  0.00    +0.004 A 
ATOM     21  C   UNL     1      -3.782 106.115 273.017  0.00  0.00    +0.017 A 
ATOM     22  C   UNL     1      -4.729 106.885 272.341  0.00  0.00    +0.073 A 
ATOM     23  C   UNL     1      -6.065 106.475 272.350  0.00  0.00    +0.017 A 
ATOM     29  C   UNL     1      -6.445 105.321 273.038  0.00  0.00    +0.004 A 
BRANCH  22  24
ATOM     24  N   UNL     1      -4.333 107.977 271.669  0.00  0.00    -0.179 NA
ATOM     25  C   UNL     1      -4.849 109.196 271.956  0.00  0.00    +0.246 C 
ATOM     26  O   UNL     1      -5.695 109.430 272.823  0.00  0.00    -0.273 OA
BRANCH  25  27
ATOM     27  C   UNL     1      -4.292 110.334 271.087  0.00  0.00    +0.087 C 
ATOM     28  C   UNL     1      -4.773 111.775 271.287  0.00  0.00    +0.010 C 
ENDBRANCH  25  27
ENDBRANCH  22  24
ENDBRANCH  17  19
ENDBRANCH  16  17
TORSDOF 7
