REMARK  Name = 3GC9
REMARK  6 active torsions:
REMARK  status: ('A' for Active; 'I' for Inactive)
REMARK    1  A    between atoms: C_9  and  C_10
REMARK    2  A    between atoms: C_11  and  C_25
REMARK    3  A    between atoms: C_14  and  N_30
REMARK    4  A    between atoms: C_26  and  C_28
REMARK    5  A    between atoms: C_27  and  C_28
REMARK    6  A    between atoms: C_28  and  N_31
REMARK                            x       y       z     vdW  Elec       q    Type
REMARK                         _______ _______ _______ _____ _____    ______ ____
ROOT
ATOM      6  N   UNL     1      28.616  -9.158  37.497  0.00  0.00    -0.221 N 
ATOM      7  C   UNL     1      29.647 -10.031  37.222  0.00  0.00    +0.311 C 
ATOM      8  O   UNL     1      30.563 -10.221  38.003  0.00  0.00    -0.252 OA
ATOM      9  N   UNL     1      29.605 -10.690  36.023  0.00  0.00    -0.294 N 
ATOM     10  H   UNL     1      30.366 -11.419  35.838  0.00  0.00    +0.151 HD
ATOM     11  C   UNL     1      28.630 -10.486  34.996  0.00  0.00    +0.143 C 
ATOM     12  C   UNL     1      27.499  -9.601  35.389  0.00  0.00    -0.001 A 
ATOM     13  C   UNL     1      26.438  -9.434  34.518  0.00  0.00    -0.010 A 
ATOM     22  C   UNL     1      25.412  -8.597  34.899  0.00  0.00    +0.013 A 
ATOM     23  C   UNL     1      25.418  -7.941  36.115  0.00  0.00    -0.042 A 
ATOM     33  C   UNL     1      26.479  -8.135  36.974  0.00  0.00    +0.028 A 
ATOM     34  C   UNL     1      27.521  -8.963  36.617  0.00  0.00    +0.048 A 
ENDROOT
BRANCH   6   5
ATOM      1  C   UNL     1      28.099  -8.110  41.527  0.00  0.00    +0.003 A 
ATOM      2  C   UNL     1      28.638  -7.210  40.634  0.00  0.00    +0.022 A 
ATOM      3  C   UNL     1      28.795  -7.586  39.317  0.00  0.00    +0.064 A 
ATOM      4 CL   UNL     1      29.461  -6.503  38.182  0.00  0.00    -0.082 Cl
ATOM      5  C   UNL     1      28.425  -8.829  38.862  0.00  0.00    +0.079 A 
ATOM     35  C   UNL     1      27.888  -9.724  39.765  0.00  0.00    +0.064 A 
ATOM     36 CL   UNL     1      27.416 -11.297  39.245  0.00  0.00    -0.082 Cl
ATOM     37  C   UNL     1      27.728  -9.363  41.087  0.00  0.00    +0.022 A 
ENDBRANCH   6   5
BRANCH  13  14
ATOM     14  C   UNL     1      26.364 -10.122  33.241  0.00  0.00    +0.001 A 
ATOM     15  C   UNL     1      26.141 -11.487  33.134  0.00  0.00    +0.051 A 
ATOM     16 CL   UNL     1      25.924 -12.511  34.511  0.00  0.00    -0.083 Cl
ATOM     17  C   UNL     1      26.083 -12.120  31.916  0.00  0.00    +0.059 A 
ATOM     18  C   UNL     1      26.248 -11.377  30.778  0.00  0.00    +0.125 A 
ATOM     19  F   UNL     1      26.196 -11.992  29.593  0.00  0.00    -0.205 F 
ATOM     20  C   UNL     1      26.474 -10.022  30.851  0.00  0.00    +0.039 A 
ATOM     21  C   UNL     1      26.527  -9.398  32.079  0.00  0.00    +0.013 A 
ENDBRANCH  13  14
BRANCH  23  24
ATOM     24  C   UNL     1      24.297  -7.036  36.526  0.00  0.00    +0.022 C 
ATOM     25  C   UNL     1      22.942  -7.430  35.960  0.00  0.00    +0.023 C 
ATOM     26  C   UNL     1      21.858  -6.400  36.251  0.00  0.00    +0.085 C 
ATOM     27  N   UNL     1      22.330  -5.032  35.862  0.00  0.00    -0.300 NA
ATOM     31  C   UNL     1      23.617  -4.652  36.507  0.00  0.00    +0.085 C 
ATOM     32  C   UNL     1      24.663  -5.645  36.055  0.00  0.00    +0.023 C 
BRANCH  27  28
ATOM     28  C   UNL     1      21.272  -3.964  35.834  0.00  0.00    +0.050 C 
ATOM     29  C   UNL     1      20.671  -3.729  37.204  0.00  0.00    +0.024 C 
ATOM     30  C   UNL     1      21.848  -2.661  35.320  0.00  0.00    +0.024 C 
ENDBRANCH  27  28
ENDBRANCH  23  24
TORSDOF 4
