REMARK  Name = 2ito_ligand
REMARK  8 active torsions:
REMARK  status: ('A' for Active; 'I' for Inactive)
REMARK    1  A    between atoms: NBE_6  and  CAN_7
REMARK    2  A    between atoms: CAN_7  and  CAJ_8
REMARK    3  A    between atoms: CAJ_8  and  CAK_9
REMARK    4  A    between atoms: CAK_9  and  OAV_10
REMARK    5  A    between atoms: OAV_10  and  CBA_11
REMARK    6  A    between atoms: CAZ_12  and  OAT_14
REMARK    7  A    between atoms: OAT_14  and  CAA_15
REMARK    8  A    between atoms: NAS_23  and  CAY_24
REMARK                            x       y       z     vdW  Elec       q    Type
REMARK                         _______ _______ _______ _____ _____    ______ ____
ROOT
ATOM      8  C   UNL     1     -50.235   0.478 -19.000  0.00  0.00    +0.132 A 
ATOM      9  C   UNL     1     -50.399   0.437 -20.394  0.00  0.00    +0.037 A 
ATOM     10  C   UNL     1     -51.458   1.101 -21.003  0.00  0.00    +0.039 A 
ATOM     11  C   UNL     1     -51.681   1.085 -22.378  0.00  0.00    +0.150 A 
ATOM     12  N   UNL     1     -50.876   0.406 -23.183  0.00  0.00    -0.251 N 
ATOM     13  H   UNL     1     -50.147  -0.193 -22.769  0.00  0.00    +0.220 HD
ATOM     22  N   UNL     1     -52.731   1.745 -22.905  0.00  0.00    -0.261 NA
ATOM     23  C   UNL     1     -53.559   2.411 -22.131  0.00  0.00    +0.154 A 
ATOM     24  N   UNL     1     -53.370   2.446 -20.819  0.00  0.00    -0.305 NA
ATOM     25  C   UNL     1     -52.352   1.807 -20.222  0.00  0.00    +0.026 A 
ATOM     26  C   UNL     1     -52.195   1.859 -18.839  0.00  0.00    +0.033 A 
ATOM     27  C   UNL     1     -51.131   1.201 -18.216  0.00  0.00    +0.132 A 
ENDROOT
BRANCH  12  14
ATOM     14  C   UNL     1     -50.978   0.472 -24.509  0.00  0.00    +0.065 A 
ATOM     15  C   UNL     1     -51.103  -0.682 -25.280  0.00  0.00    +0.015 A 
ATOM     16  C   UNL     1     -51.189  -0.585 -26.674  0.00  0.00    +0.021 A 
ATOM     17  C   UNL     1     -51.141   0.667 -27.293  0.00  0.00    +0.135 A 
ATOM     18  F   UNL     1     -51.218   0.793 -28.634  0.00  0.00    -0.192 F 
ATOM     19  C   UNL     1     -51.007   1.806 -26.512  0.00  0.00    +0.065 A 
ATOM     20 CL   UNL     1     -50.943   3.360 -27.240  0.00  0.00    -0.075 Cl
ATOM     21  C   UNL     1     -50.925   1.714 -25.133  0.00  0.00    +0.029 A 
ENDBRANCH  12  14
BRANCH  27  28
ATOM     28  O   UNL     1     -50.948   1.228 -16.851  0.00  0.00    -0.316 OA
ATOM     29  C   UNL     1     -51.165   2.487 -16.195  0.00  0.00    +0.234 C 
ENDBRANCH  27  28
BRANCH   8   7
ATOM      7  O   UNL     1     -49.194  -0.154 -18.361  0.00  0.00    -0.316 OA
BRANCH   7   6
ATOM      6  C   UNL     1     -48.831  -1.483 -18.875  0.00  0.00    +0.197 C 
BRANCH   6   5
ATOM      5  C   UNL     1     -48.276  -2.469 -17.821  0.00  0.00    +0.084 C 
BRANCH   5   4
ATOM      4  C   UNL     1     -46.751  -2.319 -17.717  0.00  0.00    +0.134 C 
BRANCH   4   2
ATOM      1  C   UNL     1     -45.480  -2.716 -15.745  0.00  0.00    +0.160 C 
ATOM      2  N   UNL     1     -46.131  -3.393 -16.914  0.00  0.00    +0.238 N 
ATOM      3  H   UNL     1     -46.839  -4.017 -16.558  0.00  0.00    +0.203 HD
ATOM     30  C   UNL     1     -45.255  -4.173 -17.846  0.00  0.00    +0.160 C 
ATOM     31  C   UNL     1     -44.075  -4.866 -17.134  0.00  0.00    +0.210 C 
ATOM     32  O   UNL     1     -43.457  -4.022 -16.108  0.00  0.00    -0.369 OA
ATOM     33  C   UNL     1     -44.406  -3.592 -15.075  0.00  0.00    +0.210 C 
ENDBRANCH   4   2
ENDBRANCH   5   4
ENDBRANCH   6   5
ENDBRANCH   7   6
ENDBRANCH   8   7
TORSDOF 7
