REMARK  Name = 2vtj_ligand
REMARK  4 active torsions:
REMARK  status: ('A' for Active; 'I' for Inactive)
REMARK    1  A    between atoms: N1_1  and  S2_2
REMARK    2  A    between atoms: S2_2  and  C5_5
REMARK    3  A    between atoms: C8_8  and  N9_9
REMARK    4  A    between atoms: N9_9  and  C10_10
REMARK                            x       y       z     vdW  Elec       q    Type
REMARK                         _______ _______ _______ _____ _____    ______ ____
ROOT
ATOM      5  C   UNL     1      31.874   9.519  64.405  0.00  0.00    +0.096 A 
ATOM      6  C   UNL     1      31.891   8.139  64.522  0.00  0.00    +0.016 A 
ATOM      7  C   UNL     1      30.711   7.429  64.473  0.00  0.00    +0.017 A 
ATOM      8  C   UNL     1      29.499   8.095  64.310  0.00  0.00    +0.063 A 
ATOM     18  C   UNL     1      29.493   9.486  64.202  0.00  0.00    +0.017 A 
ATOM     19  C   UNL     1      30.673  10.196  64.254  0.00  0.00    +0.016 A 
ENDROOT
BRANCH   5   4
ATOM      4  S   UNL     1      33.390  10.423  64.460  0.00  0.00    +0.061 S 
ATOM     20  O   UNL     1      34.420   9.550  63.949  0.00  0.00    -0.152 OA
ATOM     21  O   UNL     1      33.162  11.688  63.811  0.00  0.00    -0.152 OA
BRANCH   4   1
ATOM      1  N   UNL     1      33.728  10.715  65.998  0.00  0.00    -0.262 NA
ATOM      2  H   UNL     1      34.538  10.307  66.418  0.00  0.00    +0.163 HD
ATOM      3  H   UNL     1      33.129  11.306  66.538  0.00  0.00    +0.163 HD
ENDBRANCH   4   1
ENDBRANCH   5   4
BRANCH   8   9
ATOM      9  N   UNL     1      28.295   7.375  64.267  0.00  0.00    -0.254 N 
ATOM     10  H   UNL     1      27.456   7.956  64.125  0.00  0.00    +0.215 HD
BRANCH   9  11
ATOM     11  C   UNL     1      28.036   6.005  64.384  0.00  0.00    +0.159 A 
ATOM     12  N   UNL     1      27.011   5.558  63.641  0.00  0.00    -0.242 NA
ATOM     13  C   UNL     1      26.759   4.254  63.764  0.00  0.00    +0.133 A 
ATOM     14 CL   UNL     1      25.445   3.636  62.815  0.00  0.00    -0.033 Cl
ATOM     15  C   UNL     1      27.479   3.399  64.571  0.00  0.00    +0.123 A 
ATOM     16  N   UNL     1      28.496   3.855  65.306  0.00  0.00    -0.287 NA
ATOM     17  C   UNL     1      28.765   5.159  65.209  0.00  0.00    +0.142 A 
ENDBRANCH   9  11
ENDBRANCH   8   9
TORSDOF 4
