REMARK  Name = 3qd4_ligand
REMARK  9 active torsions:
REMARK  status: ('A' for Active; 'I' for Inactive)
REMARK    1  A    between atoms: C6_6  and  C8_8
REMARK    2  A    between atoms: C10_10  and  N28_28
REMARK    3  A    between atoms: C12_12  and  O32_32
REMARK    4  A    between atoms: C16_16  and  C18_18
REMARK    5  A    between atoms: C17_17  and  N30_30
REMARK    6  A    between atoms: C19_19  and  C22_22
REMARK    7  A    between atoms: C20_20  and  C22_22
REMARK    8  A    between atoms: C21_21  and  C22_22
REMARK    9  A    between atoms: C22_22  and  O32_32
REMARK                            x       y       z     vdW  Elec       q    Type
REMARK                         _______ _______ _______ _____ _____    ______ ____
ROOT
ATOM     13  C   UNL     1     -44.584  17.207  11.627  0.00  0.00    +0.038 A 
ATOM     14  N   UNL     1     -45.495  16.444  11.000  0.00  0.00    -0.271 NA
ATOM     15  C   UNL     1     -46.650  17.015  10.629  0.00  0.00    +0.167 A 
ATOM     16  N   UNL     1     -47.611  16.226   9.984  0.00  0.00    -0.307 N 
ATOM     17  H   UNL     1     -48.508  16.641   9.694  0.00  0.00    +0.182 HD
ATOM     18  H   UNL     1     -47.421  15.231   9.800  0.00  0.00    +0.182 HD
ATOM     19  N   UNL     1     -46.952  18.301  10.842  0.00  0.00    -0.245 NA
ATOM     20  C   UNL     1     -46.020  19.050  11.444  0.00  0.00    +0.114 A 
ATOM     21  N   UNL     1     -46.302  20.402  11.727  0.00  0.00    -0.288 N 
ATOM     22  C   UNL     1     -47.462  21.002  11.099  0.00  0.00    +0.164 C 
ATOM     23  C   UNL     1     -48.039  21.627  12.357  0.00  0.00    +0.122 C 
ATOM     33  C   UNL     1     -47.046  22.569  13.040  0.00  0.00    +0.035 C 
ATOM     34  C   UNL     1     -45.651  21.965  13.229  0.00  0.00    +0.011 C 
ATOM     35  C   UNL     1     -45.672  20.948  14.345  0.00  0.00    +0.009 C 
ATOM     36  C   UNL     1     -45.171  21.282  11.955  0.00  0.00    +0.140 C 
ATOM     37  C   UNL     1     -44.807  18.542  11.873  0.00  0.00    +0.054 A 
ENDROOT
BRANCH  13  12
ATOM      1  C   UNL     1     -41.124  16.469  12.948  0.00  0.00    +0.030 A 
ATOM      2  C   UNL     1     -41.083  15.098  12.724  0.00  0.00    +0.079 A 
ATOM      3  C   UNL     1     -40.142  14.033  12.906  0.00  0.00    +0.241 A 
ATOM      7  N   UNL     1     -40.641  12.862  12.498  0.00  0.00    -0.255 N 
ATOM      8  H   UNL     1     -40.181  11.941  12.511  0.00  0.00    +0.254 HD
ATOM      9  N   UNL     1     -41.877  13.157  12.067  0.00  0.00    -0.440 NA
ATOM     10  C   UNL     1     -42.190  14.487  12.179  0.00  0.00    -0.048 A 
ATOM     11  C   UNL     1     -43.340  15.152  11.822  0.00  0.00    +0.012 A 
ATOM     12  C   UNL     1     -43.376  16.511  12.036  0.00  0.00    -0.001 A 
ATOM     38  C   UNL     1     -42.282  17.141  12.600  0.00  0.00    +0.018 A 
BRANCH   3   4
ATOM      4  N   UNL     1     -38.897  14.194  13.427  0.00  0.00    -0.261 N 
ATOM      5  H   UNL     1     -38.272  13.382  13.528  0.00  0.00    +0.210 HD
ATOM      6  H   UNL     1     -38.579  15.128  13.721  0.00  0.00    +0.210 HD
ENDBRANCH   3   4
ENDBRANCH  13  12
BRANCH  23  24
ATOM     24  N   UNL     1     -49.269  22.313  12.096  0.00  0.00    -0.258 N 
ATOM     25  H   UNL     1     -49.249  23.246  11.737  0.00  0.00    +0.187 HD
ATOM     26  C   UNL     1     -50.474  21.703  12.333  0.00  0.00    +0.320 C 
ATOM     32  O   UNL     1     -50.660  20.644  12.915  0.00  0.00    -0.378 OA
BRANCH  26  27
ATOM     27  O   UNL     1     -51.427  22.497  11.789  0.00  0.00    -0.258 OA
BRANCH  27  28
ATOM     28  C   UNL     1     -52.807  22.166  11.991  0.00  0.00    +0.090 C 
ATOM     29  C   UNL     1     -53.192  20.878  11.295  0.00  0.00    +0.046 C 
ATOM     30  C   UNL     1     -53.561  23.292  11.317  0.00  0.00    +0.046 C 
ATOM     31  C   UNL     1     -53.151  22.124  13.473  0.00  0.00    +0.046 C 
ENDBRANCH  27  28
ENDBRANCH  26  27
ENDBRANCH  23  24
TORSDOF 5
