REMARK  Name = G4V
REMARK  4 active torsions:
REMARK  status: ('A' for Active; 'I' for Inactive)
REMARK    1  A    between atoms: C7_4  and  C11_27
REMARK    2  A    between atoms: C8_8  and  C17_11
REMARK    3  A    between atoms: C18_9  and  C17_11
REMARK    4  A    between atoms: C18_9  and  O2_19
REMARK                            x       y       z     vdW  Elec       q    Type
REMARK                         _______ _______ _______ _____ _____    ______ ____
ROOT
ATOM     10  C   UNL     1       0.027  16.550   4.408  0.00  0.00    +0.019 A 
ATOM     11  C   UNL     1      -0.186  17.690   5.176  0.00  0.00    +0.020 A 
ATOM     12  C   UNL     1       0.846  18.591   5.413  0.00  0.00    +0.088 A 
ATOM     13  N   UNL     1       0.579  19.888   5.887  0.00  0.00    -0.257 N 
ATOM     14  C   UNL     1      -0.590  20.268   6.697  0.00  0.00    +0.191 C 
ATOM     15  N   UNL     1      -1.412  21.214   6.308  0.00  0.00    -0.128 NA
ATOM     16  C   UNL     1       1.636  20.887   5.677  0.00  0.00    +0.211 C 
ATOM     17  C   UNL     1       3.071  20.327   5.970  0.00  0.00    +0.427 C 
ATOM     18  F   UNL     1       3.212  19.976   7.252  0.00  0.00    -0.161 F 
ATOM     19  F   UNL     1       4.092  21.048   5.495  0.00  0.00    -0.161 F 
ATOM     20  O   UNL     1       3.238  19.063   5.264  0.00  0.00    -0.428 OA
ATOM     21  C   UNL     1       2.135  18.298   4.960  0.00  0.00    +0.158 A 
ATOM     22  C   UNL     1       2.359  17.162   4.199  0.00  0.00    +0.038 A 
ATOM     23  C   UNL     1       1.303  16.320   3.905  0.00  0.00    +0.005 A 
ENDROOT
BRANCH  10   9
ATOM      1  N   UNL     1      -1.808  12.163   3.829  0.00  0.00    -0.225 NA
ATOM      2  C   UNL     1      -0.556  11.993   4.352  0.00  0.00    +0.097 A 
ATOM      3  C   UNL     1       0.020  13.201   4.611  0.00  0.00    +0.004 A 
ATOM      8  C   UNL     1      -0.944  14.193   4.198  0.00  0.00    +0.051 A 
ATOM      9  C   UNL     1      -1.084  15.604   4.124  0.00  0.00    +0.086 A 
ATOM     24  N   UNL     1      -2.206  16.186   3.669  0.00  0.00    -0.224 NA
ATOM     25  C   UNL     1      -3.176  15.377   3.237  0.00  0.00    +0.200 A 
ATOM     26  N   UNL     1      -3.206  14.042   3.231  0.00  0.00    -0.205 NA
ATOM     27  C   UNL     1      -2.079  13.496   3.718  0.00  0.00    +0.165 A 
BRANCH   3   4
ATOM      4  C   UNL     1       1.370  13.430   5.234  0.00  0.00    +0.060 C 
BRANCH   4   5
ATOM      5  C   UNL     1       1.444  14.289   6.480  0.00  0.00    +0.147 C 
BRANCH   5   6
ATOM      6  O   UNL     1       2.762  14.822   6.554  0.00  0.00    -0.351 OA
ATOM      7  C   UNL     1       2.969  15.711   7.645  0.00  0.00    +0.174 C 
ENDBRANCH   5   6
ENDBRANCH   4   5
ENDBRANCH   3   4
ENDBRANCH  10   9
TORSDOF 4
