REMARK  Name = 2zdx_ligand
REMARK  7 active torsions:
REMARK  status: ('A' for Active; 'I' for Inactive)
REMARK    1  A    between atoms: C3_3  and  C6_6
REMARK    2  A    between atoms: C4_4  and  C7_7
REMARK    3  A    between atoms: C5_5  and  C8_8
REMARK    4  A    between atoms: C14_11  and  O33_21
REMARK    5  A    between atoms: C21_14  and  O30_20
REMARK    6  A    between atoms: C23_16  and  O29_19
REMARK    7  A    between atoms: O33_21  and  C34_22
REMARK                            x       y       z     vdW  Elec       q    Type
REMARK                         _______ _______ _______ _____ _____    ______ ____
ROOT
ATOM      1  N   UNL     1     -28.248  13.068  10.789  0.00  0.00    -0.219 N 
ATOM      2  H   UNL     1     -28.801  13.597  10.115  0.00  0.00    +0.254 HD
ATOM      3  C   UNL     1     -27.056  12.404  10.511  0.00  0.00    +0.075 A 
ATOM      4  C   UNL     1     -26.469  12.426   9.090  0.00  0.00    +0.136 C 
ATOM      5  C   UNL     1     -26.582  11.783  11.721  0.00  0.00    -0.002 A 
ATOM     14  C   UNL     1     -27.595  12.122  12.759  0.00  0.00    +0.024 A 
ATOM     25  N   UNL     1     -28.562  12.897  12.124  0.00  0.00    -0.233 NA
ENDROOT
BRANCH   5   6
ATOM      6  C   UNL     1     -25.290  10.924  11.965  0.00  0.00    -0.052 A 
ATOM      7  C   UNL     1     -25.173   9.559  11.419  0.00  0.00    -0.020 A 
ATOM      8  C   UNL     1     -23.995   8.757  11.656  0.00  0.00    +0.014 A 
ATOM      9  C   UNL     1     -22.901   9.296  12.449  0.00  0.00    +0.085 A 
ATOM     12  C   UNL     1     -23.000  10.649  12.992  0.00  0.00    +0.014 A 
ATOM     13  C   UNL     1     -24.178  11.437  12.747  0.00  0.00    -0.020 A 
BRANCH   9  10
ATOM     10  O   UNL     1     -21.749   8.514  12.694  0.00  0.00    -0.325 OA
ATOM     11  C   UNL     1     -21.859   7.796  13.963  0.00  0.00    +0.231 C 
ENDBRANCH   9  10
ENDBRANCH   5   6
BRANCH  14  15
ATOM     15  C   UNL     1     -27.614  11.722  14.281  0.00  0.00    +0.005 A 
ATOM     16  C   UNL     1     -27.199  10.389  14.736  0.00  0.00    -0.013 A 
ATOM     17  C   UNL     1     -27.193  10.022  16.117  0.00  0.00    +0.003 A 
ATOM     18  C   UNL     1     -27.594  10.955  17.097  0.00  0.00    +0.080 A 
ATOM     21  C   UNL     1     -28.023  12.282  16.716  0.00  0.00    +0.043 A 
ATOM     22  C   UNL     1     -28.041  12.677  15.332  0.00  0.00    +0.090 A 
BRANCH  18  19
ATOM     19  O   UNL     1     -27.565  10.599  18.412  0.00  0.00    -0.335 OA
ATOM     20  H   UNL     1     -27.865  11.336  18.949  0.00  0.00    +0.249 HD
ENDBRANCH  18  19
BRANCH  22  23
ATOM     23  O   UNL     1     -28.449  13.934  15.055  0.00  0.00    -0.333 OA
ATOM     24  H   UNL     1     -28.418  14.078  14.106  0.00  0.00    +0.249 HD
ENDBRANCH  22  23
ENDBRANCH  14  15
TORSDOF 5
