REMARK  Name = 1w0x_ligand
REMARK  6 active torsions:
REMARK  status: ('A' for Active; 'I' for Inactive)
REMARK    1  A    between atoms: N_1  and  C3_10
REMARK    2  A    between atoms: N4_11  and  C4_12
REMARK    3  A    between atoms: C4_12  and  C5_13
REMARK    4  A    between atoms: C5_13  and  O_14
REMARK    5  A    between atoms: N5_15  and  C6_16
REMARK    6  A    between atoms: C6_16  and  C12_22
REMARK                            x       y       z     vdW  Elec       q    Type
REMARK                         _______ _______ _______ _____ _____    ______ ____
ROOT
ATOM      1  N   UNL     1     107.084 100.257  81.141  0.00  0.00    -0.230 N 
ATOM      2  C   UNL     1     107.303  99.574  82.490  0.00  0.00    +0.221 C 
ATOM      3  C   UNL     1     105.895 100.266  80.427  0.00  0.00    +0.142 A 
ATOM      4  N   UNL     1     104.674  99.732  80.819  0.00  0.00    -0.265 NA
ATOM      5  C   UNL     1     103.707  99.752  79.865  0.00  0.00    +0.154 A 
ATOM      6  N   UNL     1     102.493  99.041  80.092  0.00  0.00    -0.295 N 
ATOM      7  H   UNL     1     102.230  98.751  81.045  0.00  0.00    +0.185 HD
ATOM     12  N   UNL     1     103.947 100.312  78.675  0.00  0.00    -0.256 NA
ATOM     13  C   UNL     1     105.044 100.968  78.358  0.00  0.00    +0.122 A 
ATOM     14  N   UNL     1     105.029 101.676  77.200  0.00  0.00    -0.292 N 
ATOM     15  H   UNL     1     105.715 102.426  77.034  0.00  0.00    +0.188 HD
ATOM     23  C   UNL     1     106.135 100.911  79.246  0.00  0.00    +0.092 A 
ATOM     24  N   UNL     1     107.458 101.374  79.199  0.00  0.00    -0.304 NA
ATOM     25  C   UNL     1     108.000 100.948  80.336  0.00  0.00    +0.235 A 
ENDROOT
BRANCH   6   8
ATOM      8  C   UNL     1     101.588  98.714  78.912  0.00  0.00    +0.162 C 
BRANCH   8   9
ATOM      9  C   UNL     1     100.884  97.322  78.759  0.00  0.00    +0.180 C 
BRANCH   9  10
ATOM     10  O   UNL     1      99.461  97.601  78.724  0.00  0.00    -0.393 OA
ATOM     11  H   UNL     1      98.982  96.786  78.632  0.00  0.00    +0.209 HD
ENDBRANCH   9  10
ENDBRANCH   8   9
ENDBRANCH   6   8
BRANCH  14  16
ATOM     16  C   UNL     1     104.008 101.350  76.180  0.00  0.00    +0.201 C 
BRANCH  16  17
ATOM     17  C   UNL     1     102.889 102.243  76.234  0.00  0.00    -0.021 A 
ATOM     18  C   UNL     1     103.067 103.527  75.896  0.00  0.00    -0.003 A 
ATOM     19  C   UNL     1     101.952 104.368  75.839  0.00  0.00    -0.009 A 
ATOM     20  C   UNL     1     100.627 103.874  76.143  0.00  0.00    -0.013 A 
ATOM     21  C   UNL     1     100.460 102.547  76.507  0.00  0.00    -0.009 A 
ATOM     22  C   UNL     1     101.624 101.724  76.551  0.00  0.00    -0.003 A 
ENDBRANCH  16  17
ENDBRANCH  14  16
TORSDOF 5
