REMARK  Name = 5UAD
REMARK  6 active torsions:
REMARK  status: ('A' for Active; 'I' for Inactive)
REMARK    1  A    between atoms: C_4  and  C_5
REMARK    2  A    between atoms: C_8  and  C_11
REMARK    3  A    between atoms: C_10  and  N_28
REMARK    4  A    between atoms: C_11  and  N_29
REMARK    5  A    between atoms: C_16  and  N_30
REMARK    6  A    between atoms: C_19  and  C_21
REMARK                            x       y       z     vdW  Elec       q    Type
REMARK                         _______ _______ _______ _____ _____    ______ ____
ROOT
ATOM     14  C   UNL     1       5.055 -10.798  20.973  0.00  0.00    +0.055 C 
ATOM     15  N   UNL     1       5.704 -11.726  20.338  0.00  0.00    -0.294 NA
ATOM     16  H   UNL     1       6.709 -11.994  20.588  0.00  0.00    +0.187 HD
ATOM     17  N   UNL     1       5.024 -12.328  19.342  0.00  0.00    -0.243 NA
ATOM     18  C   UNL     1       3.746 -12.056  18.933  0.00  0.00    +0.132 C 
ATOM     19  N   UNL     1       3.399 -12.826  17.926  0.00  0.00    -0.327 NA
ATOM     20  H   UNL     1       2.459 -12.832  17.414  0.00  0.00    +0.169 HD
ATOM     21  C   UNL     1       4.485 -13.619  17.665  0.00  0.00    +0.123 C 
ATOM     29  C   UNL     1       3.060 -11.038  19.635  0.00  0.00    +0.048 C 
ATOM     30  C   UNL     1       5.507 -13.319  18.541  0.00  0.00    +0.154 C 
ATOM     31  C   UNL     1       3.664 -10.393  20.643  0.00  0.00    +0.028 C 
ENDROOT
BRANCH  21  22
ATOM     22  N   UNL     1       4.480 -14.571  16.642  0.00  0.00    -0.270 N 
ATOM     23  H   UNL     1       3.530 -14.881  16.261  0.00  0.00    +0.156 HD
ATOM     24  C   UNL     1       5.612 -15.145  16.083  0.00  0.00    +0.221 C 
ATOM     25  O   UNL     1       6.728 -15.170  16.577  0.00  0.00    -0.275 OA
BRANCH  24  26
ATOM     26  C   UNL     1       5.365 -15.794  14.780  0.00  0.00    +0.075 C 
ATOM     27  C   UNL     1       6.007 -17.111  14.451  0.00  0.00    +0.013 C 
ATOM     28  C   UNL     1       6.439 -15.865  13.733  0.00  0.00    +0.013 C 
ENDBRANCH  24  26
ENDBRANCH  21  22
BRANCH  14  13
ATOM     13  C   UNL     1       5.752 -10.070  22.090  0.00  0.00    +0.200 C 
BRANCH  13  10
ATOM      7  C   UNL     1       9.105  -8.867  19.197  0.00  0.00    -0.013 A 
ATOM      8  C   UNL     1       8.203  -9.451  20.066  0.00  0.00    +0.038 A 
ATOM      9  C   UNL     1       7.221  -8.635  20.588  0.00  0.00    +0.090 A 
ATOM     10  N   UNL     1       6.182  -8.823  21.459  0.00  0.00    -0.238 N 
ATOM     11  N   UNL     1       5.494  -7.695  21.667  0.00  0.00    -0.064 NA
ATOM     12  N   UNL     1       6.069  -6.741  20.949  0.00  0.00    -0.130 NA
ATOM     32  C   UNL     1       7.129  -7.287  20.282  0.00  0.00    +0.113 A 
ATOM     33  C   UNL     1       8.041  -6.713  19.414  0.00  0.00    +0.032 A 
ATOM     34  C   UNL     1       9.019  -7.526  18.879  0.00  0.00    +0.011 A 
BRANCH   7   6
ATOM      1  C   UNL     1      10.525 -11.019  18.983  0.00  0.00    +0.143 A 
ATOM      2  N   UNL     1      11.589 -11.448  18.308  0.00  0.00    -0.179 NA
ATOM      3  N   UNL     1      11.905 -10.396  17.549  0.00  0.00    -0.274 N 
ATOM      4  C   UNL     1      13.042 -10.491  16.656  0.00  0.00    +0.172 C 
ATOM      5  C   UNL     1      11.099  -9.308  17.718  0.00  0.00    +0.116 A 
ATOM      6  C   UNL     1      10.164  -9.685  18.662  0.00  0.00    +0.020 A 
ENDBRANCH   7   6
ENDBRANCH  13  10
ENDBRANCH  14  13
TORSDOF 5
