REMARK  Name = 3b2t_ligand
REMARK  10 active torsions:
REMARK  status: ('A' for Active; 'I' for Inactive)
REMARK    1  A    between atoms: PB_1  and  C3B_4
REMARK    2  A    between atoms: PB_1  and  O3A_8
REMARK    3  A    between atoms: PA_5  and  O3A_8
REMARK    4  A    between atoms: PA_5  and  O5'_9
REMARK    5  A    between atoms: O5'_9  and  C5'_10
REMARK    6  A    between atoms: C5'_10  and  C4'_11
REMARK    7  A    between atoms: C3'_13  and  O3'_14
REMARK    8  A    between atoms: C2'_15  and  O2'_16
REMARK    9  A    between atoms: C1'_17  and  N9_18
REMARK   10  A    between atoms: C6_22  and  N6_23
REMARK                            x       y       z     vdW  Elec       q    Type
REMARK                         _______ _______ _______ _____ _____    ______ ____
ROOT
ATOM      6  C   UNL     1      24.442 -26.572 -30.188  0.00  0.00    +0.184 C 
ATOM      7  C   UNL     1      24.143 -26.617 -31.689  0.00  0.00    +0.180 C 
ATOM      8  C   UNL     1      22.820 -25.857 -31.716  0.00  0.00    +0.206 C 
ATOM      9  C   UNL     1      22.142 -26.580 -30.552  0.00  0.00    +0.301 C 
ATOM     26  O   UNL     1      23.159 -26.629 -29.535  0.00  0.00    -0.336 OA
ENDROOT
BRANCH   9  10
ATOM     10  N   UNL     1      20.948 -25.842 -30.081  0.00  0.00    -0.192 N 
ATOM     11  C   UNL     1      19.724 -26.341 -29.932  0.00  0.00    +0.161 A 
ATOM     12  N   UNL     1      19.194 -27.556 -30.127  0.00  0.00    -0.271 NA
ATOM     13  C   UNL     1      17.911 -27.773 -29.897  0.00  0.00    +0.153 A 
ATOM     14  N   UNL     1      17.109 -26.813 -29.471  0.00  0.00    -0.270 NA
ATOM     15  C   UNL     1      17.568 -25.572 -29.253  0.00  0.00    +0.130 A 
ATOM     19  C   UNL     1      18.912 -25.308 -29.484  0.00  0.00    +0.105 A 
ATOM     20  N   UNL     1      19.674 -24.222 -29.377  0.00  0.00    -0.296 NA
ATOM     21  C   UNL     1      20.910 -24.555 -29.741  0.00  0.00    +0.247 A 
BRANCH  15  16
ATOM     16  N   UNL     1      16.748 -24.613 -28.833  0.00  0.00    -0.315 N 
ATOM     17  H   UNL     1      17.107 -23.661 -28.675  0.00  0.00    +0.182 HD
ATOM     18  H   UNL     1      15.754 -24.823 -28.666  0.00  0.00    +0.182 HD
ENDBRANCH  15  16
ENDBRANCH   9  10
BRANCH   8  22
ATOM     22  O   UNL     1      22.135 -26.161 -32.934  0.00  0.00    -0.384 OA
ATOM     23  H   UNL     1      21.970 -27.095 -32.978  0.00  0.00    +0.210 HD
ENDBRANCH   8  22
BRANCH   7  24
ATOM     24  O   UNL     1      23.926 -27.969 -32.101  0.00  0.00    -0.386 OA
ATOM     25  H   UNL     1      23.741 -27.989 -33.033  0.00  0.00    +0.210 HD
ENDBRANCH   7  24
BRANCH   6   5
ATOM      5  C   UNL     1      25.107 -25.235 -29.847  0.00  0.00    +0.242 C 
BRANCH   5   4
ATOM      4  O   UNL     1      24.252 -24.126 -30.143  0.00  0.00    -0.248 OA
BRANCH   4   3
ATOM      3  P   UNL     1      24.777 -22.615 -29.956  0.00  0.00    +0.295 P 
ATOM     27  O   UNL     1      25.942 -22.618 -29.041  0.00  0.00    -0.613 OA
ATOM     28  O   UNL     1      23.630 -21.737 -29.632  0.00  0.00    -0.613 OA
BRANCH   3   2
ATOM      2  O   UNL     1      25.304 -22.225 -31.429  0.00  0.00    -0.160 OA
BRANCH   2   1
ATOM      1  P   UNL     1      26.876 -22.215 -31.781  0.00  0.00    +0.159 P 
ATOM     29  C   UNL     1      26.558 -22.356 -33.558  0.00  0.00    +0.167 C 
ATOM     30  O   UNL     1      27.250 -23.496 -31.141  0.00  0.00    -0.615 OA
ATOM     31  O   UNL     1      27.188 -20.871 -31.245  0.00  0.00    -0.615 OA
ENDBRANCH   2   1
ENDBRANCH   3   2
ENDBRANCH   4   3
ENDBRANCH   5   4
ENDBRANCH   6   5
TORSDOF 9
