REMARK  Name = 2x8d_ligand
REMARK  1 active torsions:
REMARK  status: ('A' for Active; 'I' for Inactive)
REMARK    1  A    between atoms: C2_8  and  C1_11
REMARK                            x       y       z     vdW  Elec       q    Type
REMARK                         _______ _______ _______ _____ _____    ______ ____
ROOT
ATOM      1  C   UNL     1       3.439  -7.076  17.040  0.00  0.00    +0.096 A 
ATOM      2  C   UNL     1       2.491  -6.301  17.679  0.00  0.00    +0.115 A 
ATOM      3  C   UNL     1       2.850  -5.139  18.340  0.00  0.00    +0.073 A 
ATOM      4  C   UNL     1       1.855  -4.305  19.027  0.00  0.00    +0.028 A 
ATOM      5  C   UNL     1       0.436  -4.728  19.007  0.00  0.00    +0.165 C 
ATOM      6  C   UNL     1       2.230  -3.199  19.679  0.00  0.00    +0.119 A 
ATOM      7  C   UNL     1       3.669  -2.845  19.622  0.00  0.00    +0.195 A 
ATOM      8  N   UNL     1       4.529  -3.584  19.018  0.00  0.00    -0.199 N 
ATOM      9  C   UNL     1       5.870  -2.853  19.175  0.00  0.00    +0.316 A 
ATOM     10  O   UNL     1       6.934  -3.265  18.733  0.00  0.00    -0.352 OA
ATOM     11  N   UNL     1       5.530  -1.748  19.882  0.00  0.00    -0.158 N 
ATOM     12  H   UNL     1       6.163  -1.028  20.168  0.00  0.00    +0.222 HD
ATOM     13  N   UNL     1       4.185  -1.769  20.145  0.00  0.00    -0.178 N 
ATOM     14  H   UNL     1       3.667  -1.051  20.671  0.00  0.00    +0.228 HD
ATOM     15  C   UNL     1       4.177  -4.776  18.349  0.00  0.00    +0.115 A 
ATOM     16  C   UNL     1       5.129  -5.539  17.707  0.00  0.00    +0.129 A 
ATOM     17  C   UNL     1       4.756  -6.696  17.054  0.00  0.00    +0.085 A 
ENDROOT
TORSDOF 0
