REMARK  Name = 3KA0
REMARK  6 active torsions:
REMARK  status: ('A' for Active; 'I' for Inactive)
REMARK    1  A    between atoms: O_3  and  C_16
REMARK    2  A    between atoms: C_10  and  N_11
REMARK    3  A    between atoms: N_11  and  C_12
REMARK    4  A    between atoms: N_13  and  C_28
REMARK    5  A    between atoms: C_15  and  C_19
REMARK    6  A    between atoms: C_26  and  C_27
REMARK                            x       y       z     vdW  Elec       q    Type
REMARK                         _______ _______ _______ _____ _____    ______ ____
ROOT
ATOM     11  C   UNL     1     233.943  82.413 183.312  0.00  0.00    +0.033 A 
ATOM     12  C   UNL     1     233.272  83.593 183.060  0.00  0.00    +0.027 A 
ATOM     13  C   UNL     1     233.922  84.621 182.411  0.00  0.00    +0.048 A 
ATOM     14  C   UNL     1     235.232  84.482 181.996  0.00  0.00    +0.125 A 
ATOM     15  C   UNL     1     235.941  83.318 182.229  0.00  0.00    +0.025 A 
ATOM     32  C   UNL     1     235.254  82.321 182.894  0.00  0.00    +0.035 A 
ENDROOT
BRANCH  15  16
ATOM     16  C   UNL     1     237.300  83.006 181.823  0.00  0.00    -0.013 A 
ATOM     17  C   UNL     1     238.390  83.840 181.932  0.00  0.00    +0.024 A 
ATOM     18  C   UNL     1     239.607  83.339 181.493  0.00  0.00    +0.021 A 
ATOM     19  C   UNL     1     239.775  82.059 180.959  0.00  0.00    -0.010 A 
ATOM     20  C   UNL     1     241.122  81.789 180.587  0.00  0.00    +0.029 A 
ATOM     21  C   UNL     1     241.991  82.834 180.823  0.00  0.00    +0.075 A 
ATOM     27  C   UNL     1     238.681  81.225 180.853  0.00  0.00    +0.009 A 
ATOM     28  S   UNL     1     241.126  84.160 181.511  0.00  0.00    -0.084 S 
ATOM     29  C   UNL     1     237.489  81.747 181.295  0.00  0.00    +0.009 A 
BRANCH  21  22
ATOM     22  C   UNL     1     243.412  82.893 180.565  0.00  0.00    +0.251 C 
ATOM     23  N   UNL     1     244.151  82.118 181.440  0.00  0.00    -0.314 N 
ATOM     24  H   UNL     1     244.602  81.217 181.079  0.00  0.00    +0.149 HD
ATOM     25  C   UNL     1     244.334  82.486 182.830  0.00  0.00    +0.128 C 
ATOM     26  O   UNL     1     243.914  83.543 179.658  0.00  0.00    -0.270 OA
ENDBRANCH  21  22
ENDBRANCH  15  16
BRANCH  11   9
ATOM      9  N   UNL     1     233.387  81.297 183.983  0.00  0.00    -0.299 N 
ATOM     10  H   UNL     1     234.046  80.686 184.564  0.00  0.00    +0.154 HD
BRANCH   9   8
ATOM      1  C   UNL     1     229.800  81.401 183.604  0.00  0.00    +0.214 A 
ATOM      2  N   UNL     1     228.828  82.342 183.284  0.00  0.00    -0.327 N 
ATOM      3  H   UNL     1     227.798  82.056 183.247  0.00  0.00    +0.145 HD
ATOM      4  H   UNL     1     229.110  83.353 183.075  0.00  0.00    +0.145 HD
ATOM      5  N   UNL     1     229.403  80.154 183.860  0.00  0.00    -0.223 NA
ATOM      6  C   UNL     1     230.374  79.293 184.167  0.00  0.00    +0.118 A 
ATOM      7  C   UNL     1     231.706  79.628 184.220  0.00  0.00    +0.063 A 
ATOM      8  C   UNL     1     232.026  80.935 183.938  0.00  0.00    +0.128 A 
ATOM     33  N   UNL     1     231.068  81.819 183.634  0.00  0.00    -0.200 NA
ENDBRANCH   9   8
ENDBRANCH  11   9
BRANCH  14  30
ATOM     30  O   UNL     1     235.798  85.550 181.346  0.00  0.00    -0.506 OA
ATOM     31  H   UNL     1     236.635  85.885 181.885  0.00  0.00    +0.292 HD
ENDBRANCH  14  30
TORSDOF 5
