REMARK  Name = 4fod_ligand
REMARK  12 active torsions:
REMARK  status: ('A' for Active; 'I' for Inactive)
REMARK    1  A    between atoms: C24_1  and  C23_2
REMARK    2  A    between atoms: C23_2  and  C25_3
REMARK    3  A    between atoms: C23_2  and  N5_4
REMARK    4  A    between atoms: C22_5  and  C19_7
REMARK    5  A    between atoms: C16_12  and  N1_13
REMARK    6  A    between atoms: C2_16  and  C15_17
REMARK    7  A    between atoms: C15_17  and  N4_18
REMARK    8  A    between atoms: C28_23  and  C31_24
REMARK    9  A    between atoms: C31_24  and  C32_25
REMARK   10  A    between atoms: C31_24  and  C33_26
REMARK   11  A    between atoms: C31_24  and  O3_27
REMARK   12  A    between atoms: C8_34  and  C9_36
REMARK                            x       y       z     vdW  Elec       q    Type
REMARK                         _______ _______ _______ _____ _____    ______ ____
ROOT
ATOM     10  N   UNL     1      22.283   9.460   7.176  0.00  0.00    -0.214 N 
ATOM     11  C   UNL     1      22.781  10.446   7.925  0.00  0.00    +0.241 A 
ATOM     12  N   UNL     1      22.100  11.501   8.362  0.00  0.00    -0.185 N 
ATOM     13  H   UNL     1      21.160  11.660   8.060  0.00  0.00    +0.239 HD
ATOM     14  C   UNL     1      22.693  12.348   9.213  0.00  0.00    +0.240 C 
ATOM     22  O   UNL     1      23.869  12.267   9.572  0.00  0.00    -0.371 OA
ATOM     23  N   UNL     1      24.054  10.189   8.226  0.00  0.00    -0.318 NA
ATOM     24  C   UNL     1      24.372   9.022   7.637  0.00  0.00    +0.003 A 
ATOM     25  C   UNL     1      25.550   8.280   7.592  0.00  0.00    -0.025 A 
ATOM     26  C   UNL     1      25.608   7.074   6.895  0.00  0.00    -0.028 A 
ATOM     27  C   UNL     1      24.480   6.602   6.228  0.00  0.00    -0.016 A 
ATOM     41  C   UNL     1      23.300   7.346   6.264  0.00  0.00    +0.007 A 
ATOM     42  C   UNL     1      23.247   8.555   6.969  0.00  0.00    +0.070 A 
ENDROOT
BRANCH  14  15
ATOM     15  C   UNL     1      21.792  13.445   9.761  0.00  0.00    +0.054 A 
ATOM     16  C   UNL     1      22.273  14.270  10.771  0.00  0.00    +0.023 A 
ATOM     17  C   UNL     1      21.463  15.263  11.298  0.00  0.00    +0.039 A 
ATOM     18  C   UNL     1      20.167  15.415  10.830  0.00  0.00    +0.138 A 
ATOM     19  F   UNL     1      19.387  16.374  11.357  0.00  0.00    -0.179 F 
ATOM     20  C   UNL     1      19.677  14.583   9.833  0.00  0.00    +0.039 A 
ATOM     21  C   UNL     1      20.487  13.588   9.299  0.00  0.00    +0.023 A 
ENDBRANCH  14  15
BRANCH  10   9
ATOM      6  C   UNL     1      17.977  10.020   6.476  0.00  0.00    +0.103 C 
ATOM      7  C   UNL     1      18.512   8.858   7.320  0.00  0.00    +0.028 C 
ATOM      8  C   UNL     1      19.936   9.112   7.831  0.00  0.00    +0.037 C 
ATOM      9  C   UNL     1      20.891   9.365   6.660  0.00  0.00    +0.131 C 
ATOM     43  C   UNL     1      20.439  10.648   5.978  0.00  0.00    +0.037 C 
ATOM     44  C   UNL     1      19.006  10.516   5.433  0.00  0.00    +0.028 C 
BRANCH   6   5
ATOM      3  N   UNL     1      16.665  10.825   8.362  0.00  0.00    -0.284 N 
ATOM      4  H   UNL     1      16.372   9.871   8.433  0.00  0.00    +0.185 HD
ATOM      5  C   UNL     1      17.528  11.166   7.400  0.00  0.00    +0.179 C 
ATOM     45  O   UNL     1      17.935  12.310   7.221  0.00  0.00    -0.397 OA
BRANCH   3   2
ATOM      1  C   UNL     1      14.619  11.976   9.093  0.00  0.00    +0.033 C 
ATOM      2  C   UNL     1      16.127  11.815   9.328  0.00  0.00    +0.091 C 
ATOM     46  C   UNL     1      16.406  11.354  10.751  0.00  0.00    +0.033 C 
ENDBRANCH   3   2
ENDBRANCH   6   5
ENDBRANCH  10   9
BRANCH  27  28
ATOM     28  C   UNL     1      24.548   5.273   5.450  0.00  0.00    +0.188 C 
BRANCH  28  29
ATOM     29  N   UNL     1      24.433   4.114   6.352  0.00  0.00    +0.246 N 
ATOM     30  H   UNL     1      23.532   4.136   6.803  0.00  0.00    +0.205 HD
ATOM     31  C   UNL     1      24.546   2.876   5.551  0.00  0.00    +0.133 C 
ATOM     32  C   UNL     1      24.413   1.629   6.433  0.00  0.00    +0.057 C 
ATOM     33  C   UNL     1      25.448   1.641   7.554  0.00  0.00    +0.030 C 
ATOM     39  C   UNL     1      25.325   2.949   8.333  0.00  0.00    +0.057 C 
ATOM     40  C   UNL     1      25.484   4.144   7.387  0.00  0.00    +0.133 C 
BRANCH  33  34
ATOM     34  C   UNL     1      25.306   0.414   8.456  0.00  0.00    +0.064 C 
ATOM     37  C   UNL     1      26.340   0.467   9.570  0.00  0.00    +0.041 C 
ATOM     38  C   UNL     1      23.901   0.363   9.059  0.00  0.00    +0.041 C 
BRANCH  34  35
ATOM     35  O   UNL     1      25.544  -0.750   7.637  0.00  0.00    -0.389 OA
ATOM     36  H   UNL     1      26.419  -0.704   7.270  0.00  0.00    +0.210 HD
ENDBRANCH  34  35
ENDBRANCH  33  34
ENDBRANCH  28  29
ENDBRANCH  27  28
TORSDOF 8
