REMARK  Name = 4L43
REMARK  6 active torsions:
REMARK  status: ('A' for Active; 'I' for Inactive)
REMARK    1  A    between atoms: C_1  and  N_25
REMARK    2  A    between atoms: C_2  and  C_26
REMARK    3  A    between atoms: C_7  and  C_10
REMARK    4  A    between atoms: C_18  and  C_19
REMARK    5  A    between atoms: C_19  and  N_20
REMARK    6  A    between atoms: C_26  and  C_27
REMARK                            x       y       z     vdW  Elec       q    Type
REMARK                         _______ _______ _______ _____ _____    ______ ____
ROOT
ATOM      7  C   UNL     1     -36.417  31.572  -6.854  0.00  0.00    +0.158 C 
ENDROOT
BRANCH   7   8
ATOM      8  C   UNL     1     -35.853  32.703  -7.743  0.00  0.00    +0.122 A 
ATOM      9  N   UNL     1     -35.624  32.640  -9.057  0.00  0.00    -0.341 N 
ATOM     10  H   UNL     1     -35.798  31.789  -9.682  0.00  0.00    +0.167 HD
ATOM     11  C   UNL     1     -35.143  33.814  -9.457  0.00  0.00    +0.067 A 
ATOM     12  C   UNL     1     -35.075  34.628  -8.337  0.00  0.00    +0.089 A 
ATOM     13  C   UNL     1     -34.604  35.932  -8.431  0.00  0.00    +0.030 A 
ATOM     14  C   UNL     1     -34.199  36.427  -9.663  0.00  0.00    +0.014 A 
ATOM     15  C   UNL     1     -34.261  35.618 -10.793  0.00  0.00    +0.057 A 
ATOM     20  C   UNL     1     -34.734  34.306 -10.695  0.00  0.00    +0.040 A 
ATOM     21  N   UNL     1     -35.514  33.917  -7.311  0.00  0.00    -0.231 NA
BRANCH  15  16
ATOM     16  C   UNL     1     -33.804  36.196 -12.134  0.00  0.00    +0.417 C 
ATOM     17  F   UNL     1     -34.152  35.370 -13.118  0.00  0.00    -0.166 F 
ATOM     18  F   UNL     1     -32.482  36.354 -12.113  0.00  0.00    -0.166 F 
ATOM     19  F   UNL     1     -34.372  37.382 -12.324  0.00  0.00    -0.166 F 
ENDBRANCH  15  16
ENDBRANCH   7   8
BRANCH   7   5
ATOM      2  N   UNL     1     -40.582  32.451  -6.300  0.00  0.00    -0.313 N 
ATOM      3  C   UNL     1     -40.156  31.273  -7.120  0.00  0.00    +0.122 C 
ATOM      4  C   UNL     1     -38.725  31.413  -7.635  0.00  0.00    +0.104 C 
ATOM      5  N   UNL     1     -37.852  31.766  -6.504  0.00  0.00    -0.292 NA
ATOM      6  C   UNL     1     -38.173  33.119  -5.993  0.00  0.00    +0.104 C 
ATOM     22  C   UNL     1     -39.606  33.196  -5.454  0.00  0.00    +0.122 C 
BRANCH   2   1
ATOM      1  C   UNL     1     -41.962  32.776  -6.197  0.00  0.00    +0.128 A 
ATOM     23  N   UNL     1     -42.465  33.026  -4.972  0.00  0.00    -0.221 NA
ATOM     24  C   UNL     1     -43.743  33.321  -4.778  0.00  0.00    +0.223 A 
ATOM     25  N   UNL     1     -44.586  33.382  -5.794  0.00  0.00    -0.243 NA
ATOM     26  C   UNL     1     -44.169  33.143  -7.027  0.00  0.00    +0.119 A 
ATOM     27  C   UNL     1     -42.837  32.828  -7.290  0.00  0.00    +0.010 A 
BRANCH  27  28
ATOM     28  C   UNL     1     -42.481  32.574  -8.756  0.00  0.00    +0.037 C 
ATOM     29  C   UNL     1     -41.877  33.825  -9.382  0.00  0.00    +0.009 C 
ENDBRANCH  27  28
ENDBRANCH   2   1
ENDBRANCH   7   5
TORSDOF 5
