REMARK  Name = 3fdn_ligand
REMARK  10 active torsions:
REMARK  status: ('A' for Active; 'I' for Inactive)
REMARK    1  A    between atoms: CBC_1  and  CBB_2
REMARK    2  A    between atoms: NBA_4  and  CAY_5
REMARK    3  A    between atoms: CAS_10  and  NAR_11
REMARK    4  A    between atoms: CAG_12  and  CAD_14
REMARK    5  A    between atoms: CAE_15  and  CAF_16
REMARK    6  A    between atoms: CAC_19  and  NAH_20
REMARK    7  A    between atoms: NAI_21  and  CAJ_22
REMARK    8  A    between atoms: CAJ_22  and  CAL_23
REMARK    9  A    between atoms: CAO_26  and  OAT_27
REMARK   10  A    between atoms: OAT_27  and  CAU_28
REMARK                            x       y       z     vdW  Elec       q    Type
REMARK                         _______ _______ _______ _____ _____    ______ ____
ROOT
ATOM     13  C   UNL     1      -4.412 -30.609   7.681  0.00  0.00    +0.100 A 
ATOM     14  C   UNL     1      -3.698 -31.806   7.863  0.00  0.00    +0.157 A 
ATOM     26  N   UNL     1      -3.475 -31.940   9.177  0.00  0.00    -0.183 NA
ATOM     27  N   UNL     1      -3.982 -30.997   9.811  0.00  0.00    -0.201 N 
ATOM     28  H   UNL     1      -3.937 -30.885  10.834  0.00  0.00    +0.263 HD
ATOM     29  C   UNL     1      -4.595 -30.146   8.974  0.00  0.00    +0.096 A 
ATOM     30  C   UNL     1      -5.341 -28.849   9.453  0.00  0.00    +0.144 C 
ENDROOT
BRANCH  13  12
ATOM     10  N   UNL     1      -4.618 -30.522   5.228  0.00  0.00    -0.243 N 
ATOM     11  H   UNL     1      -3.922 -31.239   5.263  0.00  0.00    +0.224 HD
ATOM     12  C   UNL     1      -5.002 -29.986   6.396  0.00  0.00    +0.207 C 
ATOM     31  O   UNL     1      -5.831 -29.088   6.480  0.00  0.00    -0.393 OA
BRANCH  10   9
ATOM      5  C   UNL     1      -5.354 -30.853   1.663  0.00  0.00    +0.052 A 
ATOM      6  C   UNL     1      -6.093 -29.684   1.450  0.00  0.00    -0.018 A 
ATOM      7  C   UNL     1      -6.351 -28.772   2.480  0.00  0.00    -0.034 A 
ATOM      8  C   UNL     1      -5.858 -29.026   3.779  0.00  0.00    -0.018 A 
ATOM      9  C   UNL     1      -5.088 -30.180   4.009  0.00  0.00    +0.051 A 
ATOM     32  C   UNL     1      -4.858 -31.082   2.950  0.00  0.00    +0.015 A 
BRANCH   5   3
ATOM      1  C   UNL     1      -4.510 -33.637  -0.724  0.00  0.00    +0.173 C 
ATOM      2  C   UNL     1      -4.786 -33.007   0.647  0.00  0.00    +0.200 C 
ATOM      3  N   UNL     1      -5.094 -31.690   0.617  0.00  0.00    -0.238 N 
ATOM      4  H   UNL     1      -5.137 -31.275  -0.292  0.00  0.00    +0.225 HD
ATOM     33  O   UNL     1      -4.723 -33.730   1.642  0.00  0.00    -0.385 OA
ENDBRANCH   5   3
ENDBRANCH  10   9
ENDBRANCH  13  12
BRANCH  14  15
ATOM     15  N   UNL     1      -3.216 -32.733   7.001  0.00  0.00    -0.157 NA
ATOM     16  N   UNL     1      -2.838 -32.550   5.837  0.00  0.00    -0.195 NA
BRANCH  16  17
ATOM     17  C   UNL     1      -2.338 -33.602   5.197  0.00  0.00    +0.207 C 
BRANCH  17  18
ATOM     18  C   UNL     1      -1.911 -33.616   3.866  0.00  0.00    -0.033 A 
ATOM     19  C   UNL     1      -1.490 -34.836   3.323  0.00  0.00    -0.014 A 
ATOM     20  C   UNL     1      -1.080 -34.917   1.993  0.00  0.00    +0.013 A 
ATOM     21  C   UNL     1      -1.094 -33.780   1.191  0.00  0.00    +0.084 A 
ATOM     24  C   UNL     1      -1.517 -32.552   1.715  0.00  0.00    +0.013 A 
ATOM     25  C   UNL     1      -1.935 -32.476   3.052  0.00  0.00    -0.014 A 
BRANCH  21  22
ATOM     22  O   UNL     1      -0.694 -33.847  -0.113  0.00  0.00    -0.326 OA
ATOM     23  C   UNL     1      -0.199 -35.168  -0.489  0.00  0.00    +0.230 C 
ENDBRANCH  21  22
ENDBRANCH  17  18
ENDBRANCH  16  17
ENDBRANCH  14  15
TORSDOF 7
