REMARK  Name = 1r0p_ligand
REMARK  5 active torsions:
REMARK  status: ('A' for Active; 'I' for Inactive)
REMARK    1  A    between atoms: C22_2  and  O5_3
REMARK    2  A    between atoms: C22_2  and  C1_5
REMARK    3  A    between atoms: O5_3  and  C26_4
REMARK    4  A    between atoms: C1_5  and  O4_6
REMARK    5  A    between atoms: C2_7  and  C25_9
REMARK                            x       y       z     vdW  Elec       q    Type
REMARK                         _______ _______ _______ _____ _____    ______ ____
ROOT
ATOM      3  C   UNL     1      13.605  11.233 137.785  0.00  0.00    +0.217 C 
ATOM      4  C   UNL     1      13.925  10.642 139.158  0.00  0.00    +0.109 C 
ATOM      5  C   UNL     1      14.780   9.361 138.942  0.00  0.00    +0.256 C 
ATOM      6  N   UNL     1      16.146   9.455 139.470  0.00  0.00    -0.238 N 
ATOM      7  C   UNL     1      16.776   8.844 140.556  0.00  0.00    +0.068 A 
ATOM      8  C   UNL     1      18.104   9.238 140.592  0.00  0.00    -0.007 A 
ATOM      9  C   UNL     1      18.331  10.062 139.495  0.00  0.00    -0.002 A 
ATOM     10  C   UNL     1      19.467  10.835 138.953  0.00  0.00    +0.032 A 
ATOM     11  C   UNL     1      19.308  11.635 137.836  0.00  0.00    -0.017 A 
ATOM     12  C   UNL     1      18.000  11.723 137.161  0.00  0.00    +0.001 A 
ATOM     13  C   UNL     1      17.581  12.400 136.031  0.00  0.00    -0.007 A 
ATOM     14  C   UNL     1      18.320  13.300 135.186  0.00  0.00    -0.013 A 
ATOM     15  C   UNL     1      17.649  13.861 134.101  0.00  0.00    -0.024 A 
ATOM     16  C   UNL     1      16.293  13.583 133.893  0.00  0.00    -0.018 A 
ATOM     17  C   UNL     1      15.587  12.733 134.723  0.00  0.00    +0.013 A 
ATOM     18  C   UNL     1      16.245  12.106 135.835  0.00  0.00    +0.069 A 
ATOM     19  N   UNL     1      15.886  11.247 136.808  0.00  0.00    -0.230 N 
ATOM     20  C   UNL     1      16.923  10.996 137.619  0.00  0.00    +0.098 A 
ATOM     21  C   UNL     1      20.593  12.330 137.484  0.00  0.00    +0.196 C 
ATOM     22  N   UNL     1      21.443  11.797 138.546  0.00  0.00    -0.279 N 
ATOM     23  H   UNL     1      22.406  12.052 138.629  0.00  0.00    +0.186 HD
ATOM     24  C   UNL     1      20.868  10.960 139.390  0.00  0.00    +0.187 C 
ATOM     25  O   UNL     1      21.382  10.318 140.307  0.00  0.00    -0.396 OA
ATOM     26  C   UNL     1      18.959   8.784 141.596  0.00  0.00    -0.011 A 
ATOM     27  C   UNL     1      18.431   7.927 142.565  0.00  0.00    -0.023 A 
ATOM     28  C   UNL     1      17.085   7.524 142.525  0.00  0.00    -0.016 A 
ATOM     29  C   UNL     1      16.243   7.978 141.506  0.00  0.00    +0.014 A 
ATOM     30  C   UNL     1      17.128  10.187 138.836  0.00  0.00    +0.095 A 
ATOM     31  O   UNL     1      15.019   9.326 137.560  0.00  0.00    -0.316 OA
ATOM     32  C   UNL     1      14.559  10.540 136.932  0.00  0.00    +0.207 C 
ATOM     33  C   UNL     1      14.180  10.026 135.532  0.00  0.00    +0.078 C 
ENDROOT
BRANCH   3   2
ATOM      1  O   UNL     1      11.483  11.041 136.534  0.00  0.00    -0.309 OA
ATOM      2  C   UNL     1      12.277  10.577 137.359  0.00  0.00    +0.293 C 
BRANCH   2  36
ATOM     36  O   UNL     1      11.918   9.278 137.898  0.00  0.00    -0.279 OA
ATOM     37  C   UNL     1      10.686   8.606 137.606  0.00  0.00    +0.238 C 
ENDBRANCH   2  36
ENDBRANCH   3   2
BRANCH   3  34
ATOM     34  O   UNL     1      13.528  12.618 137.513  0.00  0.00    -0.379 OA
ATOM     35  H   UNL     1      14.341  13.036 137.771  0.00  0.00    +0.208 HD
ENDBRANCH   3  34
TORSDOF 3
