REMARK  Name = 5K7G
REMARK  4 active torsions:
REMARK  status: ('A' for Active; 'I' for Inactive)
REMARK    1  A    between atoms: C_5  and  N_20
REMARK    2  A    between atoms: C_8  and  N_26
REMARK    3  A    between atoms: C_15  and  C_28
REMARK    4  A    between atoms: N_24  and  C_25
REMARK                            x       y       z     vdW  Elec       q    Type
REMARK                         _______ _______ _______ _____ _____    ______ ____
ROOT
ATOM      8  C   UNL     1      24.191  13.189  -6.211  0.00  0.00    +0.057 C 
ATOM      9  C   UNL     1      25.182  12.108  -5.745  0.00  0.00    +0.021 C 
ATOM     10  C   UNL     1      26.208  11.760  -6.830  0.00  0.00    +0.028 C 
ATOM     11  C   UNL     1      25.521  11.414  -8.143  0.00  0.00    +0.108 C 
ATOM     29  C   UNL     1      24.674  12.578  -8.623  0.00  0.00    +0.028 C 
ATOM     30  C   UNL     1      23.595  12.918  -7.598  0.00  0.00    +0.021 C 
ENDROOT
BRANCH   8   7
ATOM      1  C   UNL     1      19.335  13.066  -3.950  0.00  0.00    +0.216 C 
ATOM      2  N   UNL     1      19.823  14.314  -4.006  0.00  0.00    -0.301 N 
ATOM      3  C   UNL     1      19.100  15.430  -4.616  0.00  0.00    +0.132 C 
ATOM      4  C   UNL     1      21.162  14.453  -3.350  0.00  0.00    +0.082 C 
ATOM      5  C   UNL     1      22.168  15.435  -3.949  0.00  0.00    +0.038 C 
ATOM      6  C   UNL     1      23.430  14.783  -4.497  0.00  0.00    +0.086 C 
ATOM      7  N   UNL     1      23.113  13.577  -5.272  0.00  0.00    -0.299 NA
ATOM     31  C   UNL     1      22.672  12.515  -4.347  0.00  0.00    +0.090 C 
ATOM     32  C   UNL     1      21.644  12.991  -3.310  0.00  0.00    +0.032 C 
ATOM     33  O   UNL     1      18.269  12.702  -4.423  0.00  0.00    -0.276 OA
ATOM     34  C   UNL     1      20.339  12.200  -3.240  0.00  0.00    +0.102 C 
ENDBRANCH   8   7
BRANCH  11  12
ATOM     12  N   UNL     1      26.457  10.949  -9.162  0.00  0.00    -0.263 NA
ATOM     13  C   UNL     1      26.767   9.652  -9.356  0.00  0.00    +0.139 A 
ATOM     14  N   UNL     1      26.199   8.761  -8.514  0.00  0.00    -0.331 N 
ATOM     15  H   UNL     1      25.523   9.067  -7.743  0.00  0.00    +0.168 HD
ATOM     16  C   UNL     1      26.526   7.479  -8.694  0.00  0.00    +0.200 A 
ATOM     17  N   UNL     1      27.354   6.953  -9.597  0.00  0.00    -0.218 NA
ATOM     18  C   UNL     1      27.923   7.863 -10.409  0.00  0.00    +0.165 A 
ATOM     19  N   UNL     1      28.778   7.596 -11.438  0.00  0.00    -0.235 NA
ATOM     20  C   UNL     1      29.128   8.759 -12.056  0.00  0.00    +0.117 A 
ATOM     21  C   UNL     1      28.464   9.808 -11.494  0.00  0.00    -0.012 A 
ATOM     28  C   UNL     1      27.678   9.257 -10.414  0.00  0.00    +0.066 A 
BRANCH  21  22
ATOM     22  C   UNL     1      28.597  11.267 -11.864  0.00  0.00    +0.026 C 
ATOM     23  C   UNL     1      29.747  11.504 -12.862  0.00  0.00    +0.036 C 
ATOM     24  C   UNL     1      29.793  12.954 -13.282  0.00  0.00    +0.160 C 
ATOM     25  O   UNL     1      28.549  13.368 -13.845  0.00  0.00    -0.380 OA
ATOM     26  C   UNL     1      27.501  13.276 -12.871  0.00  0.00    +0.160 C 
ATOM     27  C   UNL     1      27.292  11.849 -12.427  0.00  0.00    +0.036 C 
ENDBRANCH  21  22
ENDBRANCH  11  12
TORSDOF 3
