REMARK  Name = 9U4
REMARK  3 active torsions:
REMARK  status: ('A' for Active; 'I' for Inactive)
REMARK    1  A    between atoms: C13_7  and  N12_32
REMARK    2  A    between atoms: C26_20  and  C35_27
REMARK    3  A    between atoms: C27_21  and  C29_23
REMARK                            x       y       z     vdW  Elec       q    Type
REMARK                         _______ _______ _______ _____ _____    ______ ____
ROOT
ATOM      3  N   UNL     1      10.684 -17.549   9.289  0.00  0.00    -0.256 N 
ATOM      4  C   UNL     1       9.990 -17.095  10.326  0.00  0.00    +0.058 A 
ATOM      5  C   UNL     1      10.570 -16.839  11.685  0.00  0.00    +0.067 C 
ATOM      6  C   UNL     1       9.486 -16.383  12.651  0.00  0.00    +0.102 C 
ATOM      7  N   UNL     1       8.349 -15.693  12.014  0.00  0.00    -0.258 N 
ATOM      8  C   UNL     1       7.980 -14.464  12.449  0.00  0.00    +0.324 C 
ATOM      9  O   UNL     1       8.617 -13.913  13.317  0.00  0.00    -0.251 OA
ATOM     10  N   UNL     1       6.911 -13.806  11.943  0.00  0.00    -0.187 NA
ATOM     11  C   UNL     1       6.566 -12.501  12.491  0.00  0.00    +0.140 C 
ATOM     12  C   UNL     1       7.639 -16.402  10.927  0.00  0.00    +0.126 C 
ATOM     13  C   UNL     1       8.691 -16.915   9.949  0.00  0.00    +0.045 A 
ATOM     14  C   UNL     1       8.612 -17.286   8.572  0.00  0.00    +0.154 A 
ATOM     15  N   UNL     1       7.484 -17.282   7.708  0.00  0.00    -0.272 N 
ATOM     16  C   UNL     1       6.630 -16.097   7.724  0.00  0.00    +0.097 C 
ATOM     17  C   UNL     1       6.023 -15.924   6.331  0.00  0.00    +0.027 C 
ATOM     18  C   UNL     1       5.232 -17.154   5.900  0.00  0.00    +0.029 C 
ATOM     19  C   UNL     1       6.098 -18.382   5.990  0.00  0.00    -0.009 A 
ATOM     20  C   UNL     1       5.821 -19.483   5.182  0.00  0.00    -0.003 A 
ATOM     21  C   UNL     1       6.595 -20.647   5.218  0.00  0.00    +0.004 A 
ATOM     22  C   UNL     1       7.675 -20.667   6.113  0.00  0.00    +0.045 A 
ATOM     23  C   UNL     1       7.934 -19.560   6.901  0.00  0.00    +0.016 A 
ATOM     33  C   UNL     1       7.177 -18.394   6.868  0.00  0.00    +0.049 A 
ATOM     34  N   UNL     1       9.822 -17.669   8.198  0.00  0.00    -0.155 NA
ENDROOT
BRANCH   3   2
ATOM      1  C   UNL     1      12.951 -16.701   8.865  0.00  0.00    +0.057 C 
ATOM      2  C   UNL     1      12.102 -17.886   9.322  0.00  0.00    +0.110 C 
ATOM     35  C   UNL     1      12.327 -19.095   8.401  0.00  0.00    +0.057 C 
ATOM     36  C   UNL     1      13.819 -19.444   8.425  0.00  0.00    +0.144 C 
ATOM     37  O   UNL     1      14.546 -18.276   8.041  0.00  0.00    -0.354 OA
ATOM     38  C   UNL     1      14.406 -17.171   8.933  0.00  0.00    +0.144 C 
ENDBRANCH   3   2
BRANCH  21  27
ATOM     27  C   UNL     1       6.225 -21.800   4.328  0.00  0.00    +0.040 A 
ATOM     28  C   UNL     1       4.948 -22.135   3.986  0.00  0.00    +0.097 A 
ATOM     29  N   UNL     1       4.991 -23.215   3.180  0.00  0.00    -0.247 N 
ATOM     30  N   UNL     1       6.329 -23.582   3.002  0.00  0.00    -0.168 NA
ATOM     31  C   UNL     1       3.829 -23.883   2.593  0.00  0.00    +0.154 C 
ATOM     32  C   UNL     1       7.066 -22.741   3.683  0.00  0.00    +0.122 A 
ENDBRANCH  21  27
BRANCH  22  24
ATOM     24  C   UNL     1       8.595 -21.853   6.271  0.00  0.00    +0.341 C 
ATOM     25  F   UNL     1       9.523 -21.583   7.278  0.00  0.00    -0.193 F 
ATOM     26  F   UNL     1       7.853 -22.986   6.623  0.00  0.00    -0.193 F 
ENDBRANCH  22  24
TORSDOF 3
