REMARK  Name = 3qtz_ligand
REMARK  6 active torsions:
REMARK  status: ('A' for Active; 'I' for Inactive)
REMARK    1  A    between atoms: N02_2  and  C08_8
REMARK    2  A    between atoms: N03_3  and  C06_6
REMARK    3  A    between atoms: N04_4  and  S26_26
REMARK    4  A    between atoms: C05_5  and  C09_9
REMARK    5  A    between atoms: C09_9  and  C10_10
REMARK    6  A    between atoms: C18_18  and  S26_26
REMARK                            x       y       z     vdW  Elec       q    Type
REMARK                         _______ _______ _______ _____ _____    ______ ____
ROOT
ATOM      1  N   UNL     1     -65.097  25.440 -86.307  0.00  0.00    -0.272 NA
ATOM      2  C   UNL     1     -64.835  25.560 -85.027  0.00  0.00    +0.204 A 
ATOM      3  S   UNL     1     -65.872  26.638 -84.157  0.00  0.00    +0.010 S 
ATOM      4  C   UNL     1     -66.752  26.971 -85.602  0.00  0.00    +0.092 A 
ATOM     14  N   UNL     1     -63.867  24.882 -84.512  0.00  0.00    -0.233 N 
ATOM     15  H   UNL     1     -63.631  24.011 -85.008  0.00  0.00    +0.224 HD
ATOM     28  C   UNL     1     -66.179  26.231 -86.646  0.00  0.00    +0.085 A 
ENDROOT
BRANCH  14  16
ATOM     16  C   UNL     1     -63.148  25.130 -83.468  0.00  0.00    +0.070 A 
ATOM     17  C   UNL     1     -63.286  26.309 -82.659  0.00  0.00    +0.019 A 
ATOM     18  C   UNL     1     -62.444  26.512 -81.547  0.00  0.00    +0.016 A 
ATOM     19  C   UNL     1     -61.459  25.549 -81.228  0.00  0.00    +0.097 A 
ATOM     26  C   UNL     1     -61.311  24.368 -82.013  0.00  0.00    +0.016 A 
ATOM     27  C   UNL     1     -62.154  24.161 -83.128  0.00  0.00    +0.019 A 
BRANCH  19  20
ATOM     20  S   UNL     1     -60.381  25.828 -79.864  0.00  0.00    +0.061 S 
ATOM     21  O   UNL     1     -59.881  24.557 -79.369  0.00  0.00    -0.152 OA
ATOM     22  O   UNL     1     -59.281  26.619 -80.340  0.00  0.00    -0.152 OA
BRANCH  20  23
ATOM     23  N   UNL     1     -61.161  26.690 -78.633  0.00  0.00    -0.262 NA
ATOM     24  H   UNL     1     -62.115  26.968 -78.745  0.00  0.00    +0.163 HD
ATOM     25  H   UNL     1     -60.668  26.921 -77.794  0.00  0.00    +0.163 HD
ENDBRANCH  20  23
ENDBRANCH  19  20
ENDBRANCH  14  16
BRANCH  28  29
ATOM     29  N   UNL     1     -66.612  26.271 -87.839  0.00  0.00    -0.332 N 
ATOM     30  H   UNL     1     -66.156  25.709 -88.572  0.00  0.00    +0.175 HD
ATOM     31  H   UNL     1     -67.419  26.866 -88.074  0.00  0.00    +0.175 HD
ENDBRANCH  28  29
BRANCH   4   5
ATOM      5  C   UNL     1     -67.849  27.835 -85.712  0.00  0.00    +0.129 C 
ATOM      6  O   UNL     1     -68.461  27.897 -86.778  0.00  0.00    -0.402 OA
BRANCH   5   7
ATOM      7  C   UNL     1     -68.271  28.627 -84.641  0.00  0.00    +0.021 A 
ATOM      8  C   UNL     1     -69.656  28.646 -84.267  0.00  0.00    +0.054 A 
ATOM      9  C   UNL     1     -70.092  29.453 -83.171  0.00  0.00    +0.137 A 
ATOM     10  F   UNL     1     -71.374  29.467 -82.824  0.00  0.00    -0.182 F 
ATOM     11  C   UNL     1     -69.162  30.239 -82.445  0.00  0.00    +0.040 A 
ATOM     12  C   UNL     1     -67.790  30.234 -82.806  0.00  0.00    +0.003 A 
ATOM     13  C   UNL     1     -67.339  29.439 -83.894  0.00  0.00    +0.014 A 
ENDBRANCH   5   7
ENDBRANCH   4   5
TORSDOF 6
