REMARK  Name = 3zcl_ligand
REMARK  6 active torsions:
REMARK  status: ('A' for Active; 'I' for Inactive)
REMARK    1  A    between atoms: C1_1  and  C2_2
REMARK    2  A    between atoms: C2_2  and  C3_3
REMARK    3  A    between atoms: C2_2  and  N4_4
REMARK    4  A    between atoms: C11_11  and  C12_12
REMARK    5  A    between atoms: C12_12  and  C13_13
REMARK    6  A    between atoms: C12_12  and  C14_14
REMARK                            x       y       z     vdW  Elec       q    Type
REMARK                         _______ _______ _______ _____ _____    ______ ____
ROOT
ATOM      3  N   UNL     1      18.856  82.112   3.607  0.00  0.00    -0.302 N 
ATOM      4  H   UNL     1      18.457  81.238   3.235  0.00  0.00    +0.179 HD
ATOM      5  C   UNL     1      18.613  82.417   4.934  0.00  0.00    +0.147 A 
ATOM      6  N   UNL     1      18.926  83.605   5.440  0.00  0.00    -0.143 NA
ATOM      7  N   UNL     1      18.636  83.785   6.764  0.00  0.00    -0.116 N 
ATOM      8  C   UNL     1      18.862  84.914   7.515  0.00  0.00    +0.171 A 
ATOM     21  N   UNL     1      18.445  84.696   8.751  0.00  0.00    -0.271 NA
ATOM     22  N   UNL     1      17.940  83.413   8.821  0.00  0.00    -0.282 NA
ATOM     23  C   UNL     1      18.059  82.875   7.630  0.00  0.00    +0.172 A 
ATOM     24  C   UNL     1      17.723  81.603   7.094  0.00  0.00    +0.081 A 
ATOM     25  C   UNL     1      17.975  81.338   5.790  0.00  0.00    +0.071 A 
ENDROOT
BRANCH   3   2
ATOM      1  C   UNL     1      20.266  82.066   1.617  0.00  0.00    +0.033 C 
ATOM      2  C   UNL     1      19.640  82.945   2.697  0.00  0.00    +0.087 C 
ATOM     26  C   UNL     1      18.739  83.999   2.073  0.00  0.00    +0.033 C 
ENDBRANCH   3   2
BRANCH   8   9
ATOM      9  C   UNL     1      19.483  86.162   6.960  0.00  0.00    +0.116 C 
ATOM     20  C   UNL     1      18.894  87.415   7.614  0.00  0.00    +0.039 C 
BRANCH   9  10
ATOM     10  C   UNL     1      20.993  86.106   7.116  0.00  0.00    -0.018 A 
ATOM     11  C   UNL     1      21.933  85.919   6.061  0.00  0.00    +0.008 A 
ATOM     12  C   UNL     1      21.865  85.738   4.643  0.00  0.00    +0.012 A 
ATOM     13  C   UNL     1      23.070  85.579   3.908  0.00  0.00    +0.008 A 
ATOM     14  C   UNL     1      24.287  85.609   4.619  0.00  0.00    +0.068 A 
ATOM     15  N   UNL     1      24.407  85.781   5.982  0.00  0.00    -0.287 NA
ATOM     16  C   UNL     1      23.217  85.928   6.637  0.00  0.00    +0.132 A 
ATOM     17  N   UNL     1      23.078  86.112   7.981  0.00  0.00    -0.274 N 
ATOM     18  H   UNL     1      23.852  86.162   8.659  0.00  0.00    +0.226 HD
ATOM     19  C   UNL     1      21.746  86.220   8.287  0.00  0.00    +0.109 A 
ENDBRANCH   9  10
ENDBRANCH   8   9
TORSDOF 3
