REMARK  Name = M03
REMARK  4 active torsions:
REMARK  status: ('A' for Active; 'I' for Inactive)
REMARK    1  A    between atoms: C4_4  and  C5_5
REMARK    2  A    between atoms: C4_4  and  C9_9
REMARK    3  A    between atoms: C4_28  and  C5_29
REMARK    4  A    between atoms: C4_28  and  C9_33
REMARK                            x       y       z     vdW  Elec       q    Type
REMARK                         _______ _______ _______ _____ _____    ______ ____
ROOT
ATOM      1  N   UNL     1       6.849   9.678   3.154  0.00  0.00    -0.293 N 
ATOM      2  C   UNL     1       7.795  10.014   4.237  0.00  0.00    +0.093 C 
ATOM      3  C   UNL     1       8.755   8.860   4.495  0.00  0.00    +0.027 C 
ATOM      4  C   UNL     1       9.527   8.455   3.227  0.00  0.00    +0.040 C 
ATOM     14  C   UNL     1       8.471   8.147   2.162  0.00  0.00    +0.027 C 
ATOM     15  C   UNL     1       5.475   9.527   3.297  0.00  0.00    +0.133 A 
ATOM     16  N   UNL     1       5.007   9.625   4.553  0.00  0.00    -0.209 NA
ATOM     17  C   UNL     1       3.692   9.471   4.742  0.00  0.00    +0.201 A 
ATOM     18  N   UNL     1       2.746   9.214   3.838  0.00  0.00    -0.205 NA
ATOM     19  C   UNL     1       3.223   9.150   2.595  0.00  0.00    +0.163 A 
ATOM     20  N   UNL     1       2.481   8.947   1.461  0.00  0.00    -0.230 NA
ATOM     21  C   UNL     1       3.301   8.959   0.388  0.00  0.00    +0.079 C 
ATOM     22  C   UNL     1       4.591   9.169   0.824  0.00  0.00    +0.079 C 
ATOM     23  C   UNL     1       4.557   9.317   2.225  0.00  0.00    +0.051 A 
ATOM     24  C   UNL     1       7.546   9.315   1.920  0.00  0.00    +0.093 C 
ENDROOT
BRANCH   4   7
ATOM      7  C   UNL     1      10.476   9.592   2.777  0.00  0.00    -0.021 A 
ATOM      8  C   UNL     1      11.272  10.233   3.725  0.00  0.00    -0.003 A 
ATOM      9  C   UNL     1      12.133  11.249   3.353  0.00  0.00    +0.011 A 
ATOM     10  C   UNL     1      12.215  11.649   2.027  0.00  0.00    +0.058 A 
ATOM     11 CL   UNL     1      13.248  12.973   1.583  0.00  0.00    -0.082 Cl
ATOM     12  C   UNL     1      11.447  11.007   1.068  0.00  0.00    +0.011 A 
ATOM     13  C   UNL     1      10.593   9.977   1.436  0.00  0.00    -0.003 A 
ENDBRANCH   4   7
BRANCH   4   5
ATOM      5  C   UNL     1      10.295   7.152   3.495  0.00  0.00    +0.113 C 
ATOM      6  N   UNL     1      11.231   6.798   2.390  0.00  0.00    -0.131 NA
ENDBRANCH   4   5
TORSDOF 2
