REMARK  Name = 3ig7_ligand
REMARK  8 active torsions:
REMARK  status: ('A' for Active; 'I' for Inactive)
REMARK    1  A    between atoms: C1_1  and  N3_2
REMARK    2  A    between atoms: C6_4  and  N7_5
REMARK    3  A    between atoms: C9_6  and  C10_7
REMARK    4  A    between atoms: C10_7  and  C13_8
REMARK    5  A    between atoms: C18_11  and  O19_12
REMARK    6  A    between atoms: O19_12  and  C20_13
REMARK    7  A    between atoms: C35_20  and  N37_21
REMARK    8  A    between atoms: C39_22  and  C40_23
REMARK                            x       y       z     vdW  Elec       q    Type
REMARK                         _______ _______ _______ _____ _____    ______ ____
ROOT
ATOM     10  N   UNL     1      -0.116  30.943   7.900  0.00  0.00    -0.266 N 
ATOM     11  C   UNL     1       0.554  31.908   7.226  0.00  0.00    +0.209 A 
ATOM     12  N   UNL     1       1.753  31.470   6.875  0.00  0.00    -0.303 NA
ATOM     13  C   UNL     1       1.852  30.166   7.323  0.00  0.00    +0.102 A 
ATOM     27  C   UNL     1       0.689  29.823   8.014  0.00  0.00    +0.106 A 
ENDROOT
BRANCH  10   1
ATOM      1  C   UNL     1      -1.463  31.024   8.432  0.00  0.00    +0.133 C 
ATOM      2  C   UNL     1      -2.435  29.844   8.232  0.00  0.00    +0.064 C 
ATOM      3  C   UNL     1      -2.858  30.056   9.725  0.00  0.00    +0.103 C 
ATOM      9  C   UNL     1      -1.468  30.748   9.951  0.00  0.00    +0.064 C 
BRANCH   3   4
ATOM      4  N   UNL     1      -2.922  28.761  10.462  0.00  0.00    -0.284 N 
ATOM      5  H   UNL     1      -2.359  27.981  10.188  0.00  0.00    +0.185 HD
ATOM      6  C   UNL     1      -3.789  28.678  11.539  0.00  0.00    +0.173 C 
ATOM      7  O   UNL     1      -4.260  29.680  12.090  0.00  0.00    -0.397 OA
ATOM      8  C   UNL     1      -4.062  27.262  12.007  0.00  0.00    +0.166 C 
ENDBRANCH   3   4
ENDBRANCH  10   1
BRANCH  13  14
ATOM     14  N   UNL     1       3.019  29.431   7.201  0.00  0.00    -0.244 N 
ATOM     15  H   UNL     1       3.755  29.875   6.690  0.00  0.00    +0.216 HD
ATOM     16  C   UNL     1       3.310  28.167   7.687  0.00  0.00    +0.206 C 
ATOM     17  O   UNL     1       2.577  27.358   8.274  0.00  0.00    -0.386 OA
BRANCH  16  18
ATOM     18  C   UNL     1       4.745  27.723   7.429  0.00  0.00    +0.198 C 
BRANCH  18  19
ATOM     19  C   UNL     1       4.780  26.656   6.380  0.00  0.00    -0.035 A 
ATOM     20  C   UNL     1       4.494  25.315   6.633  0.00  0.00    -0.013 A 
ATOM     21  C   UNL     1       4.551  24.403   5.557  0.00  0.00    +0.013 A 
ATOM     22  C   UNL     1       4.845  24.830   4.264  0.00  0.00    +0.084 A 
ATOM     25  C   UNL     1       5.121  26.181   4.027  0.00  0.00    +0.013 A 
ATOM     26  C   UNL     1       5.096  27.078   5.082  0.00  0.00    -0.013 A 
BRANCH  22  23
ATOM     23  O   UNL     1       4.866  23.901   3.259  0.00  0.00    -0.326 OA
ATOM     24  C   UNL     1       6.155  23.686   2.669  0.00  0.00    +0.230 C 
ENDBRANCH  22  23
ENDBRANCH  18  19
ENDBRANCH  16  18
ENDBRANCH  13  14
TORSDOF 6
