REMARK  Name = 2exm_ligand
REMARK  5 active torsions:
REMARK  status: ('A' for Active; 'I' for Inactive)
REMARK    1  A    between atoms: C14_1  and  C13_2
REMARK    2  A    between atoms: C13_2  and  C15_3
REMARK    3  A    between atoms: C12_4  and  C11_5
REMARK    4  A    between atoms: C11_5  and  N10_6
REMARK    5  A    between atoms: N10_6  and  C6_7
REMARK                            x       y       z     vdW  Elec       q    Type
REMARK                         _______ _______ _______ _____ _____    ______ ____
ROOT
ATOM      7  C   UNL     1     103.411 100.192  80.082  0.00  0.00    +0.134 A 
ATOM      8  N   UNL     1     103.192 101.103  79.123  0.00  0.00    -0.270 NA
ATOM      9  C   UNL     1     104.039 102.005  78.748  0.00  0.00    +0.153 A 
ATOM     10  N   UNL     1     105.229 102.155  79.294  0.00  0.00    -0.272 NA
ATOM     11  C   UNL     1     105.620 101.216  80.309  0.00  0.00    +0.157 A 
ATOM     12  N   UNL     1     106.773 101.065  80.990  0.00  0.00    -0.236 N 
ATOM     13  H   UNL     1     107.647 101.601  80.890  0.00  0.00    +0.239 HD
ATOM     14  C   UNL     1     106.509 100.038  81.839  0.00  0.00    +0.242 A 
ATOM     15  N   UNL     1     105.329  99.463  81.692  0.00  0.00    -0.296 NA
ATOM     16  C   UNL     1     104.720 100.237  80.681  0.00  0.00    +0.105 A 
ENDROOT
BRANCH   7   5
ATOM      5  N   UNL     1     102.364  99.262  80.404  0.00  0.00    -0.297 N 
ATOM      6  H   UNL     1     102.402  98.798  81.323  0.00  0.00    +0.187 HD
BRANCH   5   4
ATOM      4  C   UNL     1     101.236  98.924  79.510  0.00  0.00    +0.156 C 
BRANCH   4   3
ATOM      1  C   UNL     1      98.546  97.033  80.888  0.00  0.00    +0.072 C 
ATOM      2  C   UNL     1      99.135  98.442  81.011  0.00  0.00    -0.085 C 
ATOM      3  C   UNL     1      99.784  99.010  79.960  0.00  0.00    -0.061 C 
ATOM     17  C   UNL     1      98.440  99.280  82.065  0.00  0.00    +0.072 C 
ENDBRANCH   4   3
ENDBRANCH   5   4
ENDBRANCH   7   5
TORSDOF 3
