REMARK  Name = 2w05_ligand
REMARK  12 active torsions:
REMARK  status: ('A' for Active; 'I' for Inactive)
REMARK    1  A    between atoms: C1_1  and  C20_20
REMARK    2  A    between atoms: N7_7  and  C8_8
REMARK    3  A    between atoms: C11_11  and  S14_14
REMARK    4  A    between atoms: S14_14  and  N15_15
REMARK    5  A    between atoms: N15_15  and  C16_16
REMARK    6  A    between atoms: C16_16  and  C17_17
REMARK    7  A    between atoms: C17_17  and  O18_18
REMARK    8  A    between atoms: O18_18  and  C19_19
REMARK    9  A    between atoms: N21_21  and  C25_25
REMARK   10  A    between atoms: C22_22  and  C28_28
REMARK   11  A    between atoms: C25_25  and  C26_26
REMARK   12  A    between atoms: C25_25  and  C27_27
REMARK                            x       y       z     vdW  Elec       q    Type
REMARK                         _______ _______ _______ _____ _____    ______ ____
ROOT
ATOM      1  C   UNL     1      -0.612  29.742   8.175  0.00  0.00    +0.066 A 
ATOM     11  C   UNL     1      -0.674  31.180   8.004  0.00  0.00    +0.041 A 
ATOM     12  C   UNL     1       0.322  31.772   7.186  0.00  0.00    +0.094 A 
ATOM     13  N   UNL     1       1.280  31.039   6.591  0.00  0.00    -0.260 NA
ATOM     14  C   UNL     1       1.280  29.719   6.787  0.00  0.00    +0.202 A 
ATOM     15  N   UNL     1       2.287  28.885   6.171  0.00  0.00    -0.243 N 
ATOM     16  H   UNL     1       2.504  29.193   5.212  0.00  0.00    +0.218 HD
ATOM     32  N   UNL     1       0.387  29.057   7.542  0.00  0.00    -0.256 NA
ENDROOT
BRANCH   1   2
ATOM      2  C   UNL     1      -1.568  29.027   8.995  0.00  0.00    +0.097 A 
ATOM      3  C   UNL     1      -2.927  29.444   9.183  0.00  0.00    +0.049 A 
ATOM      4  N   UNL     1      -3.628  28.607  10.011  0.00  0.00    -0.318 NA
ATOM      5  C   UNL     1      -2.654  27.692  10.307  0.00  0.00    +0.122 A 
ATOM      6  C   UNL     1      -3.104  26.564  11.260  0.00  0.00    +0.161 C 
ATOM      7  N   UNL     1      -1.347  27.824   9.755  0.00  0.00    -0.233 N 
BRANCH   7   8
ATOM      8  C   UNL     1      -0.074  26.988   9.918  0.00  0.00    +0.128 C 
ATOM      9  C   UNL     1      -0.266  25.537   9.402  0.00  0.00    +0.043 C 
ATOM     10  C   UNL     1       0.432  26.988  11.374  0.00  0.00    +0.043 C 
ENDBRANCH   7   8
ENDBRANCH   1   2
BRANCH  15  17
ATOM     17  C   UNL     1       3.070  27.727   6.555  0.00  0.00    +0.066 A 
ATOM     18  C   UNL     1       4.042  27.253   5.621  0.00  0.00    +0.017 A 
ATOM     19  C   UNL     1       4.847  26.128   5.928  0.00  0.00    +0.016 A 
ATOM     20  C   UNL     1       4.673  25.483   7.175  0.00  0.00    +0.097 A 
ATOM     30  C   UNL     1       3.720  25.927   8.118  0.00  0.00    +0.016 A 
ATOM     31  C   UNL     1       2.920  27.049   7.808  0.00  0.00    +0.017 A 
BRANCH  20  21
ATOM     21  S   UNL     1       5.659  24.112   7.558  0.00  0.00    +0.063 S 
ATOM     22  O   UNL     1       6.985  24.579   8.304  0.00  0.00    -0.152 OA
ATOM     23  O   UNL     1       6.013  23.309   6.227  0.00  0.00    -0.152 OA
BRANCH  21  24
ATOM     24  N   UNL     1       4.745  23.088   8.624  0.00  0.00    -0.246 NA
ATOM     25  H   UNL     1       4.556  23.307   9.581  0.00  0.00    +0.167 HD
BRANCH  24  26
ATOM     26  C   UNL     1       4.280  21.856   7.953  0.00  0.00    +0.149 C 
BRANCH  26  27
ATOM     27  C   UNL     1       3.497  20.969   8.923  0.00  0.00    +0.179 C 
BRANCH  27  28
ATOM     28  O   UNL     1       3.066  19.776   8.240  0.00  0.00    -0.381 OA
ATOM     29  C   UNL     1       2.313  18.854   9.063  0.00  0.00    +0.193 C 
ENDBRANCH  27  28
ENDBRANCH  26  27
ENDBRANCH  24  26
ENDBRANCH  21  24
ENDBRANCH  20  21
ENDBRANCH  15  17
TORSDOF 8
