REMARK  Name = 7DQ
REMARK  5 active torsions:
REMARK  status: ('A' for Active; 'I' for Inactive)
REMARK    1  A    between atoms: C17_1  and  C18_18
REMARK    2  A    between atoms: C02_7  and  C04_9
REMARK    3  A    between atoms: C07_12  and  C08_13
REMARK    4  A    between atoms: C08_13  and  C09_14
REMARK    5  A    between atoms: C14_17  and  N13_22
REMARK                            x       y       z     vdW  Elec       q    Type
REMARK                         _______ _______ _______ _____ _____    ______ ____
ROOT
ATOM      5  N   UNL     1     -34.554  -8.917 -14.315  0.00  0.00    -0.288 N 
ATOM      6  C   UNL     1     -35.571  -9.078 -13.236  0.00  0.00    +0.114 C 
ATOM      7  C   UNL     1     -35.373 -10.407 -12.548  0.00  0.00    +0.115 C 
ATOM      8  N   UNL     1     -34.054 -10.517 -12.063  0.00  0.00    -0.276 N 
ATOM      9  C   UNL     1     -33.800 -10.881 -10.709  0.00  0.00    +0.230 C 
ATOM     10  O   UNL     1     -34.717 -11.096 -10.000  0.00  0.00    -0.275 OA
ATOM     21  C   UNL     1     -32.987 -10.270 -12.952  0.00  0.00    +0.115 C 
ATOM     22  C   UNL     1     -33.159  -9.054 -13.840  0.00  0.00    +0.114 C 
ENDROOT
BRANCH   5   4
ATOM      1  C   UNL     1     -35.510  -6.976 -17.815  0.00  0.00    +0.171 A 
ATOM      2  N   UNL     1     -36.391  -7.185 -16.881  0.00  0.00    -0.136 NA
ATOM      3  N   UNL     1     -36.057  -7.807 -15.755  0.00  0.00    -0.132 NA
ATOM      4  C   UNL     1     -34.851  -8.244 -15.549  0.00  0.00    +0.154 A 
ATOM     23  C   UNL     1     -33.834  -8.068 -16.494  0.00  0.00    +0.038 A 
ATOM     24  C   UNL     1     -34.185  -7.401 -17.680  0.00  0.00    +0.034 A 
BRANCH   1  25
ATOM     25  C   UNL     1     -35.943  -6.264 -19.077  0.00  0.00    +0.122 C 
ATOM     26  N   UNL     1     -36.241  -5.732 -20.020  0.00  0.00    -0.189 NA
ENDBRANCH   1  25
ENDBRANCH   5   4
BRANCH   9  11
ATOM     11  C   UNL     1     -32.354 -10.987 -10.254  0.00  0.00    +0.112 C 
BRANCH  11  12
ATOM     12  C   UNL     1     -32.225 -11.856  -9.013  0.00  0.00    -0.013 A 
ATOM     13  C   UNL     1     -32.113 -11.271  -7.761  0.00  0.00    -0.004 A 
ATOM     14  C   UNL     1     -31.988 -12.076  -6.643  0.00  0.00    -0.005 A 
ATOM     15  C   UNL     1     -31.977 -13.462  -6.762  0.00  0.00    -0.022 A 
ATOM     19  C   UNL     1     -32.094 -14.049  -8.018  0.00  0.00    -0.005 A 
ATOM     20  C   UNL     1     -32.228 -13.240  -9.132  0.00  0.00    -0.004 A 
BRANCH  15  16
ATOM     16  C   UNL     1     -31.859 -14.329  -5.509  0.00  0.00    +0.022 C 
ATOM     17  C   UNL     1     -33.151 -15.116  -5.331  0.00  0.00    +0.005 C 
ATOM     18  C   UNL     1     -30.637 -15.239  -5.577  0.00  0.00    +0.005 C 
ENDBRANCH  15  16
ENDBRANCH  11  12
ENDBRANCH   9  11
TORSDOF 5
