REMARK  Name = 5JFX
REMARK  10 active torsions:
REMARK  status: ('A' for Active; 'I' for Inactive)
REMARK    1  A    between atoms: C_1  and  C_11
REMARK    2  A    between atoms: C_1  and  O_13
REMARK    3  A    between atoms: C_3  and  C_15
REMARK    4  A    between atoms: C_4  and  N_21
REMARK    5  A    between atoms: C_5  and  C_23
REMARK    6  A    between atoms: C_6  and  C_23
REMARK    7  A    between atoms: C_10  and  C_11
REMARK    8  A    between atoms: C_11  and  C_12
REMARK    9  A    between atoms: C_11  and  N_14
REMARK   10  A    between atoms: C_15  and  C_17
REMARK                            x       y       z     vdW  Elec       q    Type
REMARK                         _______ _______ _______ _____ _____    ______ ____
ROOT
ATOM     16  C   UNL     1      47.915  -4.973   2.963  0.00  0.00    +0.197 C 
ATOM     35  O   UNL     1      47.410  -5.402   3.943  0.00  0.00    -0.286 OA
ENDROOT
BRANCH  16  15
ATOM      5  N   UNL     1      50.119  -6.437   0.387  0.00  0.00    -0.323 N 
ATOM      6  C   UNL     1      50.246  -7.451   1.331  0.00  0.00    +0.147 A 
ATOM      7  N   UNL     1      50.937  -8.577   1.356  0.00  0.00    -0.197 NA
ATOM      8  C   UNL     1      50.861  -9.423   2.452  0.00  0.00    +0.214 A 
ATOM      9  N   UNL     1      51.561 -10.586   2.440  0.00  0.00    -0.327 N 
ATOM     10  H   UNL     1      52.162 -10.840   1.592  0.00  0.00    +0.145 HD
ATOM     11  H   UNL     1      51.512 -11.249   3.279  0.00  0.00    +0.145 HD
ATOM     12  N   UNL     1      50.091  -9.113   3.556  0.00  0.00    -0.222 NA
ATOM     13  C   UNL     1      49.402  -7.961   3.584  0.00  0.00    +0.126 A 
ATOM     14  C   UNL     1      49.399  -7.097   2.478  0.00  0.00    +0.048 A 
ATOM     15  C   UNL     1      48.830  -5.798   2.175  0.00  0.00    +0.051 A 
ATOM     36  C   UNL     1      49.345  -5.442   0.915  0.00  0.00    +0.100 A 
BRANCH   5   4
ATOM      4  C   UNL     1      50.766  -6.530  -0.965  0.00  0.00    +0.064 C 
ATOM     37  C   UNL     1      52.283  -6.654  -0.845  0.00  0.00    +0.037 C 
ATOM     38  C   UNL     1      50.185  -7.833  -1.641  0.00  0.00    +0.037 C 
BRANCH   4   1
ATOM      1  C   UNL     1      50.303  -5.374  -1.887  0.00  0.00    +0.183 C 
BRANCH   1   2
ATOM      2  O   UNL     1      50.726  -4.145  -1.284  0.00  0.00    -0.393 OA
ATOM      3  H   UNL     1      50.290  -4.053  -0.333  0.00  0.00    +0.209 HD
ENDBRANCH   1   2
ENDBRANCH   4   1
ENDBRANCH   5   4
ENDBRANCH  16  15
BRANCH  16  17
ATOM     17  C   UNL     1      47.611  -3.598   2.514  0.00  0.00    +0.042 A 
ATOM     18  C   UNL     1      46.336  -3.031   2.647  0.00  0.00    +0.038 A 
ATOM     19  C   UNL     1      46.099  -1.712   2.229  0.00  0.00    +0.052 A 
ATOM     32  C   UNL     1      47.171  -0.915   1.695  0.00  0.00    +0.134 A 
ATOM     33  N   UNL     1      48.404  -1.490   1.634  0.00  0.00    -0.261 NA
ATOM     34  C   UNL     1      48.652  -2.764   2.006  0.00  0.00    +0.122 A 
BRANCH  19  20
ATOM     20  N   UNL     1      44.858  -1.090   2.283  0.00  0.00    -0.284 N 
ATOM     21  H   UNL     1      44.849  -0.042   2.498  0.00  0.00    +0.155 HD
ATOM     22  C   UNL     1      43.662  -1.687   2.089  0.00  0.00    +0.223 C 
ATOM     31  O   UNL     1      43.562  -2.886   1.850  0.00  0.00    -0.275 OA
BRANCH  22  23
ATOM     23  C   UNL     1      42.503  -0.727   2.179  0.00  0.00    +0.151 C 
BRANCH  23  24
ATOM     24  C   UNL     1      41.161  -1.407   2.112  0.00  0.00    +0.050 A 
ATOM     25  N   UNL     1      40.795  -2.425   3.001  0.00  0.00    -0.258 NA
ATOM     26  C   UNL     1      39.576  -3.026   2.938  0.00  0.00    +0.131 A 
ATOM     27  C   UNL     1      38.684  -2.602   1.927  0.00  0.00    +0.059 A 
ATOM     28 CL   UNL     1      37.126  -3.337   1.724  0.00  0.00    -0.082 Cl
ATOM     29  C   UNL     1      39.058  -1.577   1.029  0.00  0.00    +0.023 A 
ATOM     30  C   UNL     1      40.305  -0.972   1.128  0.00  0.00    +0.025 A 
ENDBRANCH  23  24
ENDBRANCH  22  23
ENDBRANCH  19  20
ENDBRANCH  16  17
TORSDOF 8
