REMARK  Name = 2c3i_ligand
REMARK  5 active torsions:
REMARK  status: ('A' for Active; 'I' for Inactive)
REMARK    1  A    between atoms: CAV_3  and  CAL_4
REMARK    2  A    between atoms: CAL_4  and  NAO_5
REMARK    3  A    between atoms: CAT_14  and  CAR_15
REMARK    4  A    between atoms: CAQ_20  and  CAP_21
REMARK    5  A    between atoms: CAP_21  and  CAA_22
REMARK                            x       y       z     vdW  Elec       q    Type
REMARK                         _______ _______ _______ _____ _____    ______ ____
ROOT
ATOM      4  N   UNL     1      27.063  52.692  -2.294  0.00  0.00    -0.304 N 
ATOM      5  H   UNL     1      27.621  53.269  -2.939  0.00  0.00    +0.179 HD
ATOM      6  C   UNL     1      27.130  52.917  -1.006  0.00  0.00    +0.147 A 
ATOM      7  N   UNL     1      26.867  51.921  -0.147  0.00  0.00    -0.146 NA
ATOM      8  N   UNL     1      26.922  52.130   1.065  0.00  0.00    -0.143 N 
ATOM      9  C   UNL     1      26.733  51.348   2.164  0.00  0.00    +0.112 A 
ATOM     19  C   UNL     1      26.895  52.088   3.251  0.00  0.00    +0.044 A 
ATOM     20  N   UNL     1      27.217  53.320   2.888  0.00  0.00    -0.328 NA
ATOM     21  C   UNL     1      27.248  53.396   1.585  0.00  0.00    +0.161 A 
ATOM     22  C   UNL     1      27.502  54.450   0.749  0.00  0.00    +0.079 A 
ATOM     23  C   UNL     1      27.447  54.201  -0.608  0.00  0.00    +0.068 A 
ENDROOT
BRANCH   9  10
ATOM     10  C   UNL     1      26.348  50.031   2.126  0.00  0.00    +0.006 A 
ATOM     11  C   UNL     1      26.030  49.447   3.346  0.00  0.00    +0.007 A 
ATOM     12  C   UNL     1      25.590  48.132   3.424  0.00  0.00    +0.001 A 
ATOM     13  C   UNL     1      25.483  47.420   2.246  0.00  0.00    +0.015 A 
ATOM     14  C   UNL     1      25.803  48.017   1.035  0.00  0.00    +0.028 A 
ATOM     18  C   UNL     1      26.215  49.322   0.943  0.00  0.00    +0.024 A 
BRANCH  14  15
ATOM     15  C   UNL     1      25.639  47.157  -0.182  0.00  0.00    +0.129 C 
ATOM     16  O   UNL     1      25.509  45.958   0.020  0.00  0.00    -0.379 OA
ATOM     17  C   UNL     1      25.613  47.733  -1.603  0.00  0.00    +0.146 C 
ENDBRANCH  14  15
ENDBRANCH   9  10
BRANCH   4   3
ATOM      3  C   UNL     1      26.202  51.625  -2.834  0.00  0.00    +0.133 C 
BRANCH   3   2
ATOM      1  C   UNL     1      28.541  50.608  -2.666  0.00  0.00    +0.006 C 
ATOM      2  C   UNL     1      27.103  50.429  -3.146  0.00  0.00    +0.011 C 
ATOM     24  C   UNL     1      28.211  50.748  -4.147  0.00  0.00    +0.006 C 
ENDBRANCH   3   2
ENDBRANCH   4   3
TORSDOF 4
