REMARK  Name = 3H1V
REMARK  7 active torsions:
REMARK  status: ('A' for Active; 'I' for Inactive)
REMARK    1  A    between atoms: C_1  and  S_34
REMARK    2  A    between atoms: C_14  and  C_18
REMARK    3  A    between atoms: C_14  and  N_28
REMARK    4  A    between atoms: C_15  and  O_33
REMARK    5  A    between atoms: C_16  and  S_34
REMARK    6  A    between atoms: C_17  and  C_22
REMARK    7  A    between atoms: C_21  and  O_33
REMARK                            x       y       z     vdW  Elec       q    Type
REMARK                         _______ _______ _______ _____ _____    ______ ____
ROOT
ATOM     10  C   UNL     1      39.400  17.814  65.654  0.00  0.00    +0.135 A 
ATOM     11  C   UNL     1      39.959  16.973  64.687  0.00  0.00    +0.015 A 
ATOM     20  C   UNL     1      39.528  17.056  63.380  0.00  0.00    +0.038 A 
ATOM     21  C   UNL     1      38.538  18.001  63.103  0.00  0.00    +0.090 A 
ATOM     22  N   UNL     1      37.924  18.321  61.909  0.00  0.00    -0.226 NA
ATOM     23  C   UNL     1      36.980  19.311  62.152  0.00  0.00    +0.158 A 
ATOM     24  N   UNL     1      36.965  19.631  63.431  0.00  0.00    -0.337 N 
ATOM     25  H   UNL     1      36.333  20.353  63.904  0.00  0.00    +0.167 HD
ATOM     32  C   UNL     1      37.943  18.837  64.047  0.00  0.00    +0.070 A 
ATOM     33  C   UNL     1      38.376  18.731  65.385  0.00  0.00    +0.074 A 
ENDROOT
BRANCH  23  26
ATOM     26  C   UNL     1      36.192  19.923  61.100  0.00  0.00    +0.106 A 
ATOM     27  N   UNL     1      36.629  19.654  59.866  0.00  0.00    -0.252 NA
ATOM     28  C   UNL     1      35.959  20.209  58.850  0.00  0.00    +0.111 A 
ATOM     29  C   UNL     1      34.895  21.071  59.012  0.00  0.00    +0.020 A 
ATOM     30  C   UNL     1      34.490  21.352  60.295  0.00  0.00    +0.004 A 
ATOM     31  C   UNL     1      35.129  20.772  61.363  0.00  0.00    +0.031 A 
ENDBRANCH  23  26
BRANCH  10   9
ATOM      9  O   UNL     1      39.784  17.727  66.969  0.00  0.00    -0.456 OA
BRANCH   9   8
ATOM      5  C   UNL     1      43.423  18.890  68.224  0.00  0.00    +0.088 A 
ATOM      6  C   UNL     1      42.631  18.209  69.115  0.00  0.00    +0.030 A 
ATOM      7  C   UNL     1      41.383  17.843  68.661  0.00  0.00    +0.048 A 
ATOM      8  C   UNL     1      41.014  18.160  67.376  0.00  0.00    +0.129 A 
ATOM     34  C   UNL     1      41.839  18.830  66.506  0.00  0.00    +0.048 A 
ATOM     35  C   UNL     1      43.061  19.201  66.944  0.00  0.00    +0.030 A 
BRANCH   5   2
ATOM      1  C   UNL     1      44.965  21.148  68.367  0.00  0.00    +0.200 C 
ATOM      2  S   UNL     1      45.018  19.399  68.735  0.00  0.00    -0.006 S 
ATOM      3  O   UNL     1      46.024  18.840  67.838  0.00  0.00    -0.170 OA
ATOM      4  O   UNL     1      45.019  19.114  70.174  0.00  0.00    -0.170 OA
ENDBRANCH   5   2
ENDBRANCH   9   8
ENDBRANCH  10   9
BRANCH  11  12
ATOM     12  C   UNL     1      41.036  15.954  64.986  0.00  0.00    +0.155 C 
BRANCH  12  13
ATOM     13  N   UNL     1      40.964  14.714  64.188  0.00  0.00    -0.238 N 
ATOM     14  C   UNL     1      40.539  13.548  64.756  0.00  0.00    +0.223 C 
ATOM     15  O   UNL     1      39.980  13.535  65.821  0.00  0.00    -0.275 OA
ATOM     16  C   UNL     1      40.957  12.334  63.923  0.00  0.00    +0.105 C 
ATOM     17  C   UNL     1      41.795  12.990  62.805  0.00  0.00    +0.105 C 
ATOM     18  C   UNL     1      41.767  14.482  63.098  0.00  0.00    +0.223 C 
ATOM     19  O   UNL     1      42.372  15.341  62.467  0.00  0.00    -0.275 OA
ENDBRANCH  12  13
ENDBRANCH  11  12
TORSDOF 6
