REMARK  Name = 4J1R
REMARK  2 active torsions:
REMARK  status: ('A' for Active; 'I' for Inactive)
REMARK    1  A    between atoms: C_11  and  C_12
REMARK    2  A    between atoms: C_12  and  C_13
REMARK                            x       y       z     vdW  Elec       q    Type
REMARK                         _______ _______ _______ _____ _____    ______ ____
ROOT
ATOM      1  O   UNL     1      40.481  32.894  28.501  0.00  0.00    -0.271 OA
ATOM      2  C   UNL     1      39.489  33.343  29.060  0.00  0.00    +0.267 C 
ATOM      3  C   UNL     1      38.329  32.522  29.160  0.00  0.00    +0.175 C 
ATOM     14  N   UNL     1      37.184  33.218  29.750  0.00  0.00    -0.227 NA
ATOM     15  C   UNL     1      37.309  34.381  30.427  0.00  0.00    +0.099 A 
ATOM     16  C   UNL     1      36.284  34.943  31.165  0.00  0.00    +0.021 A 
ATOM     17  C   UNL     1      36.440  36.064  31.932  0.00  0.00    +0.022 A 
ATOM     18  C   UNL     1      37.722  36.648  32.025  0.00  0.00    +0.101 A 
ATOM     19  N   UNL     1      38.793  36.041  31.317  0.00  0.00    -0.226 NA
ATOM     20  C   UNL     1      38.672  35.013  30.653  0.00  0.00    +0.169 A 
ATOM     21  N   UNL     1      39.678  34.401  29.900  0.00  0.00    -0.158 NA
ENDROOT
BRANCH   3   4
ATOM      4  C   UNL     1      38.663  31.578  30.350  0.00  0.00    +0.059 C 
BRANCH   4   5
ATOM      5  C   UNL     1      37.495  30.584  30.599  0.00  0.00    +0.001 A 
ATOM      6  C   UNL     1      37.358  29.525  29.796  0.00  0.00    +0.095 A 
ATOM      7  N   UNL     1      36.295  28.856  30.239  0.00  0.00    -0.244 NA
ATOM      8  C   UNL     1      35.795  29.487  31.304  0.00  0.00    +0.081 A 
ATOM      9  C   UNL     1      34.744  29.186  32.079  0.00  0.00    +0.019 A 
ATOM     10  C   UNL     1      34.382  29.991  33.157  0.00  0.00    +0.002 A 
ATOM     11  C   UNL     1      35.146  31.121  33.417  0.00  0.00    +0.000 A 
ATOM     12  C   UNL     1      36.237  31.394  32.581  0.00  0.00    +0.001 A 
ATOM     13  C   UNL     1      36.557  30.582  31.537  0.00  0.00    +0.015 A 
ENDBRANCH   4   5
ENDBRANCH   3   4
TORSDOF 2
