REMARK  Name = 5HCX
REMARK  8 active torsions:
REMARK  status: ('A' for Active; 'I' for Inactive)
REMARK    1  A    between atoms: C_3  and  C_7
REMARK    2  A    between atoms: C_3  and  C_8
REMARK    3  A    between atoms: C_3  and  N_13
REMARK    4  A    between atoms: C_10  and  C_11
REMARK    5  A    between atoms: N_14  and  C_15
REMARK    6  A    between atoms: C_19  and  C_21
REMARK    7  A    between atoms: N_24  and  S_26
REMARK    8  A    between atoms: S_26  and  C_29
REMARK                            x       y       z     vdW  Elec       q    Type
REMARK                         _______ _______ _______ _____ _____    ______ ____
ROOT
ATOM     14  C   UNL     1     -55.455   0.965 -24.294  0.00  0.00    +0.128 A 
ATOM     15  N   UNL     1     -54.474   0.164 -24.751  0.00  0.00    -0.212 NA
ATOM     16  C   UNL     1     -54.632  -0.548 -25.879  0.00  0.00    +0.165 A 
ATOM     28  N   UNL     1     -55.779  -0.493 -26.565  0.00  0.00    -0.235 NA
ATOM     29  C   UNL     1     -56.782   0.295 -26.182  0.00  0.00    +0.116 A 
ATOM     30  C   UNL     1     -56.650   1.061 -25.027  0.00  0.00    +0.063 A 
ENDROOT
BRANCH  14  12
ATOM      1  C   UNL     1     -53.334   1.058 -19.537  0.00  0.00    +0.107 A 
ATOM      2  N   UNL     1     -52.544   0.625 -18.512  0.00  0.00    -0.231 NA
ATOM      3  C   UNL     1     -51.801  -0.376 -18.909  0.00  0.00    +0.108 A 
ATOM      4  N   UNL     1     -52.046  -0.641 -20.246  0.00  0.00    -0.325 N 
ATOM      8  C   UNL     1     -50.818  -1.052 -17.980  0.00  0.00    +0.086 C 
ATOM      9  C   UNL     1     -53.015   0.249 -20.661  0.00  0.00    +0.074 A 
ATOM     10  C   UNL     1     -53.668   0.479 -21.878  0.00  0.00    +0.071 A 
ATOM     11  C   UNL     1     -54.652   1.455 -21.950  0.00  0.00    +0.126 A 
ATOM     12  N   UNL     1     -55.342   1.734 -23.143  0.00  0.00    -0.284 N 
ATOM     13  H   UNL     1     -55.853   2.674 -23.168  0.00  0.00    +0.155 HD
ATOM     31  N   UNL     1     -54.921   2.206 -20.868  0.00  0.00    -0.238 NA
ATOM     32  C   UNL     1     -54.307   2.060 -19.696  0.00  0.00    +0.142 A 
BRANCH   4   5
ATOM      5  C   UNL     1     -51.475  -1.624 -21.182  0.00  0.00    +0.083 C 
ATOM      6  C   UNL     1     -51.912  -3.053 -20.877  0.00  0.00    +0.030 C 
ATOM      7  C   UNL     1     -49.981  -1.435 -21.455  0.00  0.00    +0.030 C 
ENDBRANCH   4   5
ENDBRANCH  14  12
BRANCH  16  17
ATOM     17  C   UNL     1     -53.579  -1.490 -26.344  0.00  0.00    +0.059 A 
ATOM     18  C   UNL     1     -52.685  -2.139 -25.547  0.00  0.00    +0.147 A 
ATOM     19  N   UNL     1     -51.955  -2.970 -26.320  0.00  0.00    -0.140 N 
ATOM     26  N   UNL     1     -52.422  -2.855 -27.635  0.00  0.00    -0.158 NA
ATOM     27  C   UNL     1     -53.394  -1.988 -27.651  0.00  0.00    +0.147 A 
BRANCH  19  20
ATOM     20  S   UNL     1     -50.728  -3.974 -25.778  0.00  0.00    +0.072 S 
ATOM     24  O   UNL     1     -50.104  -3.215 -24.742  0.00  0.00    -0.151 OA
ATOM     25  O   UNL     1     -50.030  -4.339 -26.968  0.00  0.00    -0.151 OA
BRANCH  20  21
ATOM     21  C   UNL     1     -51.547  -5.438 -25.064  0.00  0.00    +0.155 C 
ATOM     22  C   UNL     1     -51.127  -5.896 -23.667  0.00  0.00    +0.030 C 
ATOM     23  C   UNL     1     -50.692  -6.697 -24.893  0.00  0.00    +0.030 C 
ENDBRANCH  20  21
ENDBRANCH  19  20
ENDBRANCH  16  17
TORSDOF 5
