REMARK  Name = 4mpe_ligand
REMARK  4 active torsions:
REMARK  status: ('A' for Active; 'I' for Inactive)
REMARK    1  A    between atoms: O01_2  and  C02_3
REMARK    2  A    between atoms: C08_9  and  S09_10
REMARK    3  A    between atoms: S09_10  and  N10_11
REMARK    4  A    between atoms: C15_15  and  O16_16
REMARK                            x       y       z     vdW  Elec       q    Type
REMARK                         _______ _______ _______ _____ _____    ______ ____
ROOT
ATOM     12  S   UNL     1      12.829   1.020 -36.623  0.00  0.00    +0.134 S 
ATOM     13  O   UNL     1      13.196   0.591 -35.310  0.00  0.00    -0.126 OA
ATOM     14  O   UNL     1      12.100  -0.159 -37.262  0.00  0.00    -0.126 OA
ENDROOT
BRANCH  12  11
ATOM      1  C   UNL     1      15.035   2.238 -37.067  0.00  0.00    +0.075 A 
ATOM      2  C   UNL     1      16.386   1.895 -37.635  0.00  0.00    -0.043 A 
ATOM      3  C   UNL     1      17.631   2.640 -37.681  0.00  0.00    -0.012 A 
ATOM      4  C   UNL     1      18.692   2.067 -38.279  0.00  0.00    +0.021 A 
ATOM      5  C   UNL     1      18.585   0.745 -38.844  0.00  0.00    +0.087 A 
ATOM      8  C   UNL     1      17.399   0.030 -38.802  0.00  0.00    +0.020 A 
ATOM      9  C   UNL     1      16.301   0.625 -38.181  0.00  0.00    -0.041 A 
ATOM     10  C   UNL     1      14.912   0.126 -38.003  0.00  0.00    +0.080 A 
ATOM     11  N   UNL     1      14.150   1.257 -37.634  0.00  0.00    -0.171 N 
BRANCH   5   6
ATOM      6  O   UNL     1      19.667   0.164 -39.432  0.00  0.00    -0.333 OA
ATOM      7  H   UNL     1      20.406   0.760 -39.391  0.00  0.00    +0.248 HD
ENDBRANCH   5   6
ENDBRANCH  12  11
BRANCH  12  15
ATOM     15  C   UNL     1      11.945   2.524 -36.567  0.00  0.00    +0.339 C 
ATOM     16  C   UNL     1      11.803   3.119 -35.305  0.00  0.00    +0.078 C 
ATOM     17  C   UNL     1      11.102   4.340 -35.239  0.00  0.00    +0.023 C 
ATOM     18  C   UNL     1      10.588   4.891 -36.402  0.00  0.00    +0.074 C 
ATOM     19  O   UNL     1       9.964   6.047 -36.311  0.00  0.00    -0.438 OA
ATOM     20  C   UNL     1      10.735   4.300 -37.656  0.00  0.00    +0.018 C 
ATOM     21  C   UNL     1      11.432   3.081 -37.741  0.00  0.00    +0.137 C 
BRANCH  21  22
ATOM     22  O   UNL     1      11.605   2.472 -38.934  0.00  0.00    -0.307 OA
ATOM     23  H   UNL     1      10.757   2.274 -39.313  0.00  0.00    +0.263 HD
ENDBRANCH  21  22
ENDBRANCH  12  15
TORSDOF 4
