REMARK  Name = 4D2R
REMARK  7 active torsions:
REMARK  status: ('A' for Active; 'I' for Inactive)
REMARK    1  A    between atoms: C_1  and  N_2
REMARK    2  A    between atoms: O_3  and  C_9
REMARK    3  A    between atoms: O_3  and  C_15
REMARK    4  A    between atoms: N_5  and  C_18
REMARK    5  A    between atoms: O_6  and  C_19
REMARK    6  A    between atoms: O_6  and  C_21
REMARK    7  A    between atoms: C_25  and  C_26
REMARK                            x       y       z     vdW  Elec       q    Type
REMARK                         _______ _______ _______ _____ _____    ______ ____
ROOT
ATOM     13  N   UNL     1      10.619  -2.456  55.200  0.00  0.00    -0.281 N 
ATOM     14  H   UNL     1      10.313  -1.940  56.086  0.00  0.00    +0.155 HD
ATOM     15  C   UNL     1      11.965  -2.396  54.963  0.00  0.00    +0.220 A 
ATOM     16  N   UNL     1      12.461  -3.325  54.124  0.00  0.00    -0.214 NA
ATOM     17  C   UNL     1      13.783  -3.276  53.891  0.00  0.00    +0.078 A 
ATOM     27  C   UNL     1      14.603  -2.322  54.486  0.00  0.00    +0.048 A 
ATOM     28  C   UNL     1      13.987  -1.419  55.334  0.00  0.00    +0.116 A 
ATOM     29  N   UNL     1      12.672  -1.429  55.594  0.00  0.00    -0.223 NA
ENDROOT
BRANCH  17  18
ATOM     18  C   UNL     1      14.322  -4.277  52.969  0.00  0.00    +0.028 A 
ATOM     19  C   UNL     1      13.564  -5.321  52.278  0.00  0.00    +0.014 A 
ATOM     20  C   UNL     1      12.226  -5.713  52.258  0.00  0.00    +0.030 A 
ATOM     21  C   UNL     1      11.891  -6.793  51.453  0.00  0.00    +0.111 A 
ATOM     22  N   UNL     1      12.764  -7.483  50.699  0.00  0.00    -0.261 NA
ATOM     23  C   UNL     1      14.050  -7.107  50.715  0.00  0.00    +0.139 A 
ATOM     24  C   UNL     1      14.489  -6.035  51.491  0.00  0.00    +0.090 A 
ATOM     25  N   UNL     1      15.730  -5.466  51.678  0.00  0.00    -0.253 NA
ATOM     26  C   UNL     1      15.623  -4.418  52.554  0.00  0.00    +0.122 A 
ENDBRANCH  17  18
BRANCH  13  11
ATOM      8  C   UNL     1       7.356  -4.168  53.186  0.00  0.00    +0.125 A 
ATOM      9  C   UNL     1       7.255  -3.883  54.541  0.00  0.00    +0.093 A 
ATOM     10  C   UNL     1       8.334  -3.310  55.197  0.00  0.00    +0.145 A 
ATOM     11  C   UNL     1       9.553  -3.069  54.500  0.00  0.00    +0.076 A 
ATOM     12  C   UNL     1       9.625  -3.381  53.143  0.00  0.00    +0.030 A 
ATOM     32  C   UNL     1       8.544  -3.960  52.497  0.00  0.00    +0.048 A 
BRANCH  10  30
ATOM     30  O   UNL     1       8.360  -3.010  56.532  0.00  0.00    -0.493 OA
ATOM     31  C   UNL     1       7.215  -3.358  57.324  0.00  0.00    +0.277 C 
ENDBRANCH  10  30
BRANCH   8   7
ATOM      7  O   UNL     1       6.215  -4.741  52.661  0.00  0.00    -0.489 OA
BRANCH   7   5
ATOM      1  C   UNL     1       1.510  -3.980  53.174  0.00  0.00    +0.105 C 
ATOM      2  N   UNL     1       2.687  -3.813  52.312  0.00  0.00    -0.305 NA
ATOM      3  C   UNL     1       3.266  -5.113  51.971  0.00  0.00    +0.087 C 
ATOM      4  C   UNL     1       4.436  -4.959  50.995  0.00  0.00    +0.060 C 
ATOM      5  C   UNL     1       5.491  -4.042  51.579  0.00  0.00    +0.176 C 
ATOM      6  C   UNL     1       4.895  -2.727  52.049  0.00  0.00    +0.060 C 
ATOM     33  C   UNL     1       3.695  -2.980  52.971  0.00  0.00    +0.087 C 
ENDBRANCH   7   5
ENDBRANCH   8   7
ENDBRANCH  13  11
TORSDOF 5
