REMARK  Name = EVK
REMARK  7 active torsions:
REMARK  status: ('A' for Active; 'I' for Inactive)
REMARK    1  A    between atoms: C2_2  and  N4_4
REMARK    2  A    between atoms: N4_4  and  C5_5
REMARK    3  A    between atoms: C7_7  and  C8_8
REMARK    4  A    between atoms: C11_9  and  C13_11
REMARK    5  A    between atoms: C16_12  and  C19_13
REMARK    6  A    between atoms: C16_12  and  N15_23
REMARK    7  A    between atoms: C16_12  and  C17_24
REMARK                            x       y       z     vdW  Elec       q    Type
REMARK                         _______ _______ _______ _____ _____    ______ ____
ROOT
ATOM     10  C   UNL     1       8.179   7.674  44.145  0.00  0.00    +0.022 A 
ATOM     11  C   UNL     1       7.176   7.440  45.104  0.00  0.00    +0.025 A 
ATOM     12  CA  UNL     1       6.001   8.001  44.646  0.00  0.00    +0.136 A 
ATOM     26  N   UNL     1       6.278   8.583  43.436  0.00  0.00    -0.239 NA
ATOM     27  C   UNL     1       7.575   8.388  43.114  0.00  0.00    +0.099 A 
ENDROOT
BRANCH  10   9
ATOM      4  C   UNL     1      11.854   7.551  43.436  0.00  0.00    +0.147 A 
ATOM      5  N   UNL     1      12.268   6.392  43.975  0.00  0.00    -0.227 NA
ATOM      6  C   UNL     1      11.370   5.646  44.612  0.00  0.00    +0.112 A 
ATOM      7  C   UNL     1      10.040   6.007  44.711  0.00  0.00    +0.077 A 
ATOM      8 CL   UNL     1       8.987   4.961  45.584  0.00  0.00    -0.081 Cl
ATOM      9  C   UNL     1       9.591   7.217  44.178  0.00  0.00    +0.017 A 
ATOM     28  C   UNL     1      10.518   7.969  43.486  0.00  0.00    +0.037 A 
BRANCH   4   3
ATOM      3  N   UNL     1      12.806   8.272  42.795  0.00  0.00    -0.222 NA
BRANCH   3   2
ATOM      1  C   UNL     1      13.848  10.189  41.733  0.00  0.00    +0.023 C 
ATOM      2  C   UNL     1      12.562   9.404  41.919  0.00  0.00    +0.094 C 
ATOM     29  C   UNL     1      12.001   8.901  40.590  0.00  0.00    +0.023 C 
ENDBRANCH   3   2
ENDBRANCH   4   3
ENDBRANCH  10   9
BRANCH  12  13
ATOM     13  C   UNL     1       4.651   8.132  45.201  0.00  0.00    +0.283 C 
ATOM     14  O   UNL     1       4.162   7.252  45.908  0.00  0.00    -0.267 OA
ATOM     15  N   UNL     1       3.990   9.267  44.887  0.00  0.00    -0.195 NA
BRANCH  15  16
ATOM     16  CA  UNL     1       2.617   9.549  45.293  0.00  0.00    +0.151 C 
BRANCH  16  17
ATOM     17  C   UNL     1       2.474  10.223  46.654  0.00  0.00    +0.001 A 
ATOM     18  C   UNL     1       3.548  10.839  47.293  0.00  0.00    -0.003 A 
ATOM     19  C   UNL     1       3.390  11.429  48.547  0.00  0.00    +0.001 A 
ATOM     20  C   UNL     1       2.154  11.437  49.141  0.00  0.00    +0.011 A 
ATOM     21  C   UNL     1       1.091  10.853  48.507  0.00  0.00    +0.057 A 
ATOM     22 CL   UNL     1      -0.465  10.851  49.278  0.00  0.00    -0.082 Cl
ATOM     23  C   UNL     1       1.239  10.231  47.282  0.00  0.00    +0.009 A 
ENDBRANCH  16  17
BRANCH  16  24
ATOM     24  C   UNL     1       1.976  10.416  44.217  0.00  0.00    +0.208 C 
ATOM     25  O   UNL     1       1.938   9.726  42.971  0.00  0.00    -0.218 OA
ENDBRANCH  16  24
ENDBRANCH  15  16
ENDBRANCH  12  13
TORSDOF 7
