REMARK  Name = 5LJJ
REMARK  3 active torsions:
REMARK  status: ('A' for Active; 'I' for Inactive)
REMARK    1  A    between atoms: C_6  and  N_7
REMARK    2  A    between atoms: N_17  and  C_18
REMARK    3  A    between atoms: C_23  and  N_24
REMARK                            x       y       z     vdW  Elec       q    Type
REMARK                         _______ _______ _______ _____ _____    ______ ____
ROOT
ATOM      3  N   UNL     1     -36.595 -17.059 -12.958  0.00  0.00    -0.262 NA
ATOM      4  C   UNL     1     -36.015 -17.971 -12.143  0.00  0.00    +0.159 C 
ATOM      5  C   UNL     1     -36.133 -19.363 -12.317  0.00  0.00    +0.148 C 
ATOM      6  C   UNL     1     -35.477 -20.172 -11.409  0.00  0.00    +0.142 C 
ATOM      7  N   UNL     1     -34.727 -19.735 -10.370  0.00  0.00    -0.310 N 
ATOM      8  H   UNL     1     -34.233 -20.394  -9.686  0.00  0.00    +0.170 HD
ATOM      9  C   UNL     1     -34.661 -18.392 -10.278  0.00  0.00    +0.209 C 
ATOM     10  N   UNL     1     -33.902 -17.899  -9.260  0.00  0.00    -0.214 NA
ATOM     23  N   UNL     1     -35.744 -21.454 -11.789  0.00  0.00    -0.331 NA
ATOM     24  H   UNL     1     -35.402 -22.349 -11.313  0.00  0.00    +0.168 HD
ATOM     25  C   UNL     1     -36.532 -21.367 -12.893  0.00  0.00    +0.198 C 
ATOM     26  N   UNL     1     -36.807 -20.136 -13.256  0.00  0.00    -0.231 NA
ATOM     27  N   UNL     1     -35.276 -17.518 -11.118  0.00  0.00    -0.309 N 
ATOM     28  H   UNL     1     -35.171 -16.465 -10.962  0.00  0.00    +0.170 HD
ENDROOT
BRANCH   3   2
ATOM      1  C   UNL     1     -37.573 -14.878 -13.564  0.00  0.00    +0.027 C 
ATOM      2  C   UNL     1     -36.457 -15.605 -12.846  0.00  0.00    +0.108 C 
ATOM     29  C   UNL     1     -35.127 -15.120 -13.390  0.00  0.00    +0.027 C 
ATOM     30  C   UNL     1     -34.976 -13.610 -13.194  0.00  0.00    +0.002 C 
ATOM     31  C   UNL     1     -36.145 -12.832 -13.772  0.00  0.00    +0.000 C 
ATOM     32  C   UNL     1     -37.473 -13.381 -13.289  0.00  0.00    +0.002 C 
ENDBRANCH   3   2
BRANCH  10  11
ATOM     11  C   UNL     1     -33.679 -16.563  -8.852  0.00  0.00    +0.068 A 
ATOM     12  C   UNL     1     -33.741 -15.467  -9.711  0.00  0.00    +0.029 A 
ATOM     13  C   UNL     1     -33.518 -14.199  -9.239  0.00  0.00    +0.025 A 
ATOM     14  C   UNL     1     -33.208 -13.985  -7.889  0.00  0.00    +0.030 A 
ATOM     21  C   UNL     1     -33.148 -15.098  -7.035  0.00  0.00    +0.025 A 
ATOM     22  C   UNL     1     -33.371 -16.361  -7.512  0.00  0.00    +0.029 A 
BRANCH  14  15
ATOM     15  N   UNL     1     -32.992 -12.691  -7.385  0.00  0.00    -0.326 N 
ATOM     16  C   UNL     1     -31.802 -12.354  -6.612  0.00  0.00    +0.133 C 
ATOM     17  C   UNL     1     -31.261 -11.009  -7.036  0.00  0.00    +0.178 C 
ATOM     18  O   UNL     1     -32.272 -10.004  -7.039  0.00  0.00    -0.377 OA
ATOM     19  C   UNL     1     -33.313 -10.352  -7.945  0.00  0.00    +0.178 C 
ATOM     20  C   UNL     1     -33.987 -11.638  -7.536  0.00  0.00    +0.133 C 
ENDBRANCH  14  15
ENDBRANCH  10  11
TORSDOF 3
