REMARK  Name = 1GIJ
REMARK  3 active torsions:
REMARK  status: ('A' for Active; 'I' for Inactive)
REMARK    1  A    between atoms: C_4  and  N_10
REMARK    2  A    between atoms: N_16  and  C_18
REMARK    3  A    between atoms: C_21  and  C_23
REMARK                            x       y       z     vdW  Elec       q    Type
REMARK                         _______ _______ _______ _____ _____    ______ ____
ROOT
ATOM      3  N   UNL     1       4.993   8.832  25.576  0.00  0.00    -0.269 N 
ATOM      4  H   UNL     1       5.973   9.108  25.246  0.00  0.00    +0.156 HD
ATOM      5  C   UNL     1       4.340   7.987  24.769  0.00  0.00    +0.309 C 
ATOM      6  O   UNL     1       3.186   7.609  25.050  0.00  0.00    -0.252 OA
ATOM      7  N   UNL     1       4.972   7.636  23.657  0.00  0.00    -0.254 N 
ATOM      8  H   UNL     1       4.438   7.057  22.933  0.00  0.00    +0.158 HD
ENDROOT
BRANCH   3   2
ATOM      1  C   UNL     1       5.314  10.427  27.521  0.00  0.00    +0.006 A 
ATOM      2  C   UNL     1       4.578   9.427  26.821  0.00  0.00    +0.040 A 
ATOM     21  C   UNL     1       3.350   8.960  27.389  0.00  0.00    +0.024 A 
ATOM     22  C   UNL     1       2.867   9.456  28.621  0.00  0.00    +0.003 A 
ATOM     23  C   UNL     1       3.605  10.447  29.347  0.00  0.00    +0.013 A 
ATOM     24  C   UNL     1       4.819  10.928  28.791  0.00  0.00    +0.044 A 
ATOM     25  C   UNL     1       5.762  11.946  29.344  0.00  0.00    +0.248 C 
ATOM     26  O   UNL     1       5.620  12.543  30.429  0.00  0.00    -0.270 OA
ATOM     27  N   UNL     1       6.772  12.064  28.412  0.00  0.00    -0.290 N 
ATOM     28  C   UNL     1       8.141  12.442  28.736  0.00  0.00    +0.109 C 
ATOM     29  C   UNL     1       8.922  11.733  27.603  0.00  0.00    +0.021 C 
ATOM     30  C   UNL     1       8.024  10.587  27.177  0.00  0.00    +0.029 C 
ATOM     31  C   UNL     1       6.638  11.202  27.221  0.00  0.00    +0.109 C 
ENDBRANCH   3   2
BRANCH   7   9
ATOM      9  C   UNL     1       6.287   7.979  23.382  0.00  0.00    +0.122 A 
ATOM     10  N   UNL     1       6.968   8.997  23.998  0.00  0.00    -0.264 N 
ATOM     11  H   UNL     1       6.569   9.653  24.744  0.00  0.00    +0.190 HD
ATOM     12  N   UNL     1       8.220   9.035  23.510  0.00  0.00    -0.176 NA
ATOM     13  C   UNL     1       8.331   8.043  22.573  0.00  0.00    +0.082 A 
ATOM     20  C   UNL     1       7.098   7.364  22.486  0.00  0.00    +0.070 A 
BRANCH  13  14
ATOM     14  C   UNL     1       9.591   7.725  21.802  0.00  0.00    +0.105 C 
ATOM     15  N   UNL     1       9.626   7.752  20.367  0.00  0.00    -0.308 NA
ATOM     16  H   UNL     1       9.368   8.725  20.004  0.00  0.00    +0.123 HD
ATOM     17  C   UNL     1      11.041   7.412  20.000  0.00  0.00    +0.081 C 
ATOM     18  C   UNL     1      11.912   8.016  21.147  0.00  0.00    +0.017 C 
ATOM     19  C   UNL     1      10.873   8.470  22.232  0.00  0.00    +0.026 C 
ENDBRANCH  13  14
ENDBRANCH   7   9
TORSDOF 3
