REMARK  Name = 4EUT
REMARK  7 active torsions:
REMARK  status: ('A' for Active; 'I' for Inactive)
REMARK    1  A    between atoms: N_6  and  C_17
REMARK    2  A    between atoms: N_7  and  C_21
REMARK    3  A    between atoms: N_8  and  C_22
REMARK    4  A    between atoms: N_9  and  C_23
REMARK    5  A    between atoms: C_19  and  C_21
REMARK    6  A    between atoms: C_19  and  C_23
REMARK    7  A    between atoms: C_29  and  C_31
REMARK                            x       y       z     vdW  Elec       q    Type
REMARK                         _______ _______ _______ _____ _____    ______ ____
ROOT
ATOM      1  I   UNL     1      73.436   2.717  90.670  0.00  0.00    -0.039 I 
ATOM      2  C   UNL     1      73.087   1.700  92.531  0.00  0.00    +0.071 A 
ATOM      3  C   UNL     1      73.645   2.131  93.774  0.00  0.00    +0.132 A 
ATOM      4  N   UNL     1      73.419   1.473  94.945  0.00  0.00    -0.222 NA
ATOM      5  C   UNL     1      72.650   0.367  94.975  0.00  0.00    +0.221 A 
ATOM      6  N   UNL     1      72.104  -0.067  93.829  0.00  0.00    -0.198 NA
ATOM      7  N   UNL     1      72.407  -0.351  96.210  0.00  0.00    -0.283 N 
ATOM      8  H   UNL     1      73.365  -0.696  96.537  0.00  0.00    +0.155 HD
ATOM     24  C   UNL     1      72.288   0.547  92.629  0.00  0.00    +0.137 A 
ATOM     25  N   UNL     1      71.624  -0.047  91.443  0.00  0.00    -0.328 N 
ATOM     26  H   UNL     1      71.098   0.741  90.946  0.00  0.00    +0.147 HD
ENDROOT
BRANCH   7   9
ATOM      9  C   UNL     1      71.522  -1.488  96.327  0.00  0.00    +0.035 A 
ATOM     10  C   UNL     1      70.827  -1.998  95.229  0.00  0.00    +0.023 A 
ATOM     11  C   UNL     1      69.973  -3.081  95.357  0.00  0.00    +0.004 A 
ATOM     12  C   UNL     1      69.793  -3.696  96.588  0.00  0.00    +0.023 A 
ATOM     13  C   UNL     1      70.487  -3.200  97.691  0.00  0.00    +0.036 A 
ATOM     23  C   UNL     1      71.326  -2.109  97.560  0.00  0.00    +0.046 A 
BRANCH  13  14
ATOM     14  N   UNL     1      70.302  -3.795  98.999  0.00  0.00    -0.269 N 
ATOM     15  H   UNL     1      71.203  -4.331  99.214  0.00  0.00    +0.156 HD
ATOM     16  C   UNL     1      69.201  -4.714  99.282  0.00  0.00    +0.310 C 
ATOM     17  N   UNL     1      69.024  -5.265 100.589  0.00  0.00    -0.262 N 
ATOM     18  C   UNL     1      67.993  -6.150 100.884  0.00  0.00    +0.075 C 
ATOM     19  C   UNL     1      67.883  -6.150 102.390  0.00  0.00    -0.010 C 
ATOM     20  C   UNL     1      69.133  -5.370 102.896  0.00  0.00    +0.048 C 
ATOM     21  C   UNL     1      69.872  -4.953 101.647  0.00  0.00    +0.119 C 
ATOM     22  O   UNL     1      68.423  -5.023  98.386  0.00  0.00    -0.252 OA
ENDBRANCH  13  14
ENDBRANCH   7   9
BRANCH  25  27
ATOM     27  C   UNL     1      70.679  -1.128  91.655  0.00  0.00    +0.104 C 
BRANCH  27  28
ATOM     28  C   UNL     1      69.450  -0.565  92.355  0.00  0.00    +0.037 C 
BRANCH  28  29
ATOM     29  C   UNL     1      68.518   0.141  91.371  0.00  0.00    +0.106 C 
BRANCH  29  30
ATOM     30  N   UNL     1      68.426  -0.645  90.181  0.00  0.00    -0.311 N 
ATOM     31  H   UNL     1      67.812  -1.520  90.131  0.00  0.00    +0.149 HD
ATOM     32  C   UNL     1      69.203  -0.199  89.050  0.00  0.00    +0.251 C 
ATOM     38  O   UNL     1      69.905   0.820  89.170  0.00  0.00    -0.270 OA
BRANCH  32  33
ATOM     33  C   UNL     1      69.193  -0.990  87.740  0.00  0.00    +0.074 A 
ATOM     34  C   UNL     1      68.445  -2.189  87.499  0.00  0.00    +0.020 A 
ATOM     35  C   UNL     1      68.714  -2.698  86.075  0.00  0.00    +0.008 A 
ATOM     36  C   UNL     1      69.643  -1.828  85.425  0.00  0.00    +0.046 A 
ATOM     37  S   UNL     1      70.066  -0.609  86.429  0.00  0.00    -0.092 S 
ENDBRANCH  32  33
ENDBRANCH  29  30
ENDBRANCH  28  29
ENDBRANCH  27  28
ENDBRANCH  25  27
TORSDOF 7
