REMARK  Name = 8J2
REMARK  5 active torsions:
REMARK  status: ('A' for Active; 'I' for Inactive)
REMARK    1  A    between atoms: C4_2  and  N_21
REMARK    2  A    between atoms: N2_8  and  C20_25
REMARK    3  A    between atoms: C13_13  and  C16_23
REMARK    4  A    between atoms: C3_16  and  O_17
REMARK    5  A    between atoms: O_17  and  C1_18
REMARK                            x       y       z     vdW  Elec       q    Type
REMARK                         _______ _______ _______ _____ _____    ______ ____
ROOT
ATOM      4  C   UNL     1      20.584  14.086  25.722  0.00  0.00    +0.124 C 
ATOM      5  C   UNL     1      21.762  14.084  26.688  0.00  0.00    +0.047 C 
ATOM      6  C   UNL     1      23.013  13.366  26.172  0.00  0.00    +0.082 C 
ATOM      7  C   UNL     1      24.284  13.923  26.796  0.00  0.00    +0.022 C 
ATOM      8  N   UNL     1      23.084  13.396  24.687  0.00  0.00    -0.261 N 
ATOM      9  C   UNL     1      23.805  12.405  24.043  0.00  0.00    +0.230 C 
ATOM     10  O   UNL     1      24.507  11.630  24.659  0.00  0.00    -0.275 OA
ATOM     11  C   UNL     1      23.660  12.269  22.551  0.00  0.00    +0.095 C 
ATOM     12  C   UNL     1      22.392  14.454  24.016  0.00  0.00    +0.051 A 
ATOM     13  C   UNL     1      22.987  15.204  23.003  0.00  0.00    +0.015 A 
ATOM     14  C   UNL     1      22.298  16.273  22.454  0.00  0.00    +0.001 A 
ATOM     15  C   UNL     1      21.003  16.583  22.856  0.00  0.00    -0.000 A 
ATOM     16  C   UNL     1      20.414  15.813  23.859  0.00  0.00    -0.001 A 
ATOM     27  C   UNL     1      21.101  14.763  24.458  0.00  0.00    +0.011 A 
ENDROOT
BRANCH  15  17
ATOM     17  C   UNL     1      20.229  17.642  22.179  0.00  0.00    +0.001 A 
ATOM     18  C   UNL     1      19.363  18.482  22.883  0.00  0.00    +0.000 A 
ATOM     19  C   UNL     1      18.651  19.471  22.214  0.00  0.00    +0.001 A 
ATOM     20  C   UNL     1      18.807  19.652  20.839  0.00  0.00    +0.017 A 
ATOM     21  C   UNL     1      19.700  18.843  20.130  0.00  0.00    +0.073 A 
ATOM     26  C   UNL     1      20.370  17.839  20.805  0.00  0.00    +0.017 A 
BRANCH  21  22
ATOM     22  N   UNL     1      20.036  18.959  18.735  0.00  0.00    -0.179 NA
ATOM     23  C   UNL     1      19.682  19.904  17.813  0.00  0.00    +0.246 C 
ATOM     24  O   UNL     1      19.214  20.992  18.121  0.00  0.00    -0.273 OA
ATOM     25  C   UNL     1      20.151  19.622  16.413  0.00  0.00    +0.097 C 
ENDBRANCH  21  22
ENDBRANCH  15  17
BRANCH   4   3
ATOM      1  O   UNL     1      17.116  15.023  26.233  0.00  0.00    -0.225 OA
ATOM      2  C   UNL     1      18.129  14.453  25.858  0.00  0.00    +0.421 C 
ATOM      3  N   UNL     1      19.377  14.687  26.312  0.00  0.00    -0.166 NA
BRANCH   2  28
ATOM     28  O   UNL     1      18.180  13.517  24.897  0.00  0.00    -0.437 OA
BRANCH  28  29
ATOM     29  C   UNL     1      16.950  12.761  24.615  0.00  0.00    +0.171 C 
ATOM     30  C   UNL     1      15.993  12.626  25.813  0.00  0.00    +0.047 C 
ATOM     31  C   UNL     1      16.375  13.343  23.469  0.00  0.00    +0.047 C 
ENDBRANCH  28  29
ENDBRANCH   2  28
ENDBRANCH   4   3
TORSDOF 5
