REMARK  Name = 3R1N
REMARK  2 active torsions:
REMARK  status: ('A' for Active; 'I' for Inactive)
REMARK    1  A    between atoms: C_14  and  C_16
REMARK    2  A    between atoms: C_20  and  C_22
REMARK                            x       y       z     vdW  Elec       q    Type
REMARK                         _______ _______ _______ _____ _____    ______ ____
ROOT
ATOM      1  C   UNL     1      16.850   8.271  12.722  0.00  0.00    +0.031 C 
ATOM      2  C   UNL     1      15.393   8.677  12.389  0.00  0.00    +0.062 A 
ATOM      3  N   UNL     1      14.634   9.522  13.041  0.00  0.00    -0.249 NA
ATOM      4  C   UNL     1      13.414   9.647  12.413  0.00  0.00    +0.090 A 
ATOM     20  C   UNL     1      13.426   8.878  11.313  0.00  0.00    +0.044 A 
ATOM     21  C   UNL     1      14.675   8.268  11.268  0.00  0.00    +0.061 A 
ATOM     22  C   UNL     1      15.242   7.266  10.323  0.00  0.00    +0.246 C 
ATOM     23  O   UNL     1      14.607   6.717   9.379  0.00  0.00    -0.270 OA
ATOM     24  N   UNL     1      16.573   7.024  10.563  0.00  0.00    -0.310 N 
ATOM     25  H   UNL     1      17.006   6.146  10.130  0.00  0.00    +0.149 HD
ATOM     26  C   UNL     1      17.636   9.460  13.319  0.00  0.00    +0.030 C 
ATOM     27  C   UNL     1      19.029   9.175  13.949  0.00  0.00    +0.082 C 
ATOM     28  N   UNL     1      18.941   8.002  14.790  0.00  0.00    -0.316 NA
ATOM     29  H   UNL     1      18.360   8.260  15.650  0.00  0.00    +0.122 HD
ATOM     30  C   UNL     1      18.335   6.814  14.180  0.00  0.00    +0.082 C 
ATOM     31  C   UNL     1      16.883   7.100  13.685  0.00  0.00    +0.030 C 
ATOM     32  C   UNL     1      17.450   7.894  11.379  0.00  0.00    +0.117 C 
ENDROOT
BRANCH   4   5
ATOM      5  C   UNL     1      12.389  10.558  12.924  0.00  0.00    +0.093 A 
ATOM      6  N   UNL     1      12.677  11.327  13.984  0.00  0.00    -0.226 NA
ATOM      7  C   UNL     1      11.747  12.167  14.473  0.00  0.00    +0.161 A 
ATOM     17  N   UNL     1      10.509  12.282  13.955  0.00  0.00    -0.236 NA
ATOM     18  C   UNL     1      10.227  11.553  12.904  0.00  0.00    +0.115 A 
ATOM     19  C   UNL     1      11.129  10.672  12.349  0.00  0.00    +0.050 A 
BRANCH   7   8
ATOM      8  C   UNL     1      12.022  12.980  15.633  0.00  0.00    +0.023 A 
ATOM      9  C   UNL     1      12.803  12.527  16.695  0.00  0.00    +0.061 A 
ATOM     10  C   UNL     1      13.005  13.392  17.761  0.00  0.00    +0.167 A 
ATOM     11  O   UNL     1      13.688  13.247  18.917  0.00  0.00    -0.453 OA
ATOM     12  C   UNL     1      13.223  14.311  19.822  0.00  0.00    +0.466 C 
ATOM     13  O   UNL     1      12.736  15.340  18.942  0.00  0.00    -0.453 OA
ATOM     14  C   UNL     1      12.437  14.683  17.778  0.00  0.00    +0.166 A 
ATOM     15  C   UNL     1      11.658  15.092  16.724  0.00  0.00    +0.050 A 
ATOM     16  C   UNL     1      11.475  14.249  15.648  0.00  0.00    +0.015 A 
ENDBRANCH   7   8
ENDBRANCH   4   5
TORSDOF 2
