REMARK  Name = 2hxl_ligand
REMARK  6 active torsions:
REMARK  status: ('A' for Active; 'I' for Inactive)
REMARK    1  A    between atoms: C1_1  and  C7_20
REMARK    2  A    between atoms: C12_8  and  C14_10
REMARK    3  A    between atoms: C21_17  and  C23_19
REMARK    4  A    between atoms: C7_20  and  N2_21
REMARK    5  A    between atoms: C17_26  and  C18_27
REMARK    6  A    between atoms: C18_27  and  N3_28
REMARK                            x       y       z     vdW  Elec       q    Type
REMARK                         _______ _______ _______ _____ _____    ______ ____
ROOT
ATOM      1  C   UNL     1      22.383  -2.635   8.810  0.00  0.00    -0.016 A 
ATOM     15  C   UNL     1      22.520  -1.385   8.040  0.00  0.00    -0.019 A 
ATOM     16  C   UNL     1      21.328  -0.522   7.888  0.00  0.00    +0.006 A 
ATOM     17  C   UNL     1      20.060  -0.941   8.504  0.00  0.00    +0.058 A 
ATOM     18  N   UNL     1      18.769  -0.361   8.581  0.00  0.00    -0.278 N 
ATOM     19  H   UNL     1      18.505   0.550   8.179  0.00  0.00    +0.222 HD
ATOM     20  C   UNL     1      17.937  -1.178   9.258  0.00  0.00    +0.073 A 
ATOM     33  C   UNL     1      18.583  -2.373   9.744  0.00  0.00    -0.026 A 
ATOM     34  C   UNL     1      19.942  -2.205   9.266  0.00  0.00    -0.032 A 
ATOM     35  C   UNL     1      21.109  -3.057   9.429  0.00  0.00    -0.024 A 
ENDROOT
BRANCH  20  21
ATOM     21  C   UNL     1      16.478  -0.774   9.470  0.00  0.00    +0.093 A 
ATOM     22  N   UNL     1      15.911   0.400   8.984  0.00  0.00    -0.190 NA
ATOM     23  N   UNL     1      14.602   0.496   9.368  0.00  0.00    -0.207 N 
ATOM     24  H   UNL     1      13.963   1.255   9.091  0.00  0.00    +0.249 HD
ATOM     25  C   UNL     1      14.266  -0.537  10.157  0.00  0.00    +0.102 A 
ATOM     26  C   UNL     1      12.996  -0.751  10.854  0.00  0.00    +0.069 A 
ATOM     27  C   UNL     1      12.916  -1.955  11.709  0.00  0.00    +0.087 A 
ATOM     30  C   UNL     1      14.044  -2.912  11.844  0.00  0.00    +0.022 A 
ATOM     31  C   UNL     1      15.309  -2.619  11.116  0.00  0.00    +0.006 A 
ATOM     32  C   UNL     1      15.432  -1.403  10.256  0.00  0.00    +0.027 A 
BRANCH  27  28
ATOM     28  C   UNL     1      11.715  -2.203  12.479  0.00  0.00    +0.096 C 
ATOM     29  N   UNL     1      10.735  -2.422  13.066  0.00  0.00    -0.331 NA
ENDBRANCH  27  28
ENDBRANCH  20  21
BRANCH   1   2
ATOM      2  C   UNL     1      23.643  -3.495   8.956  0.00  0.00    +0.188 C 
BRANCH   2   3
ATOM      3  N   UNL     1      23.691  -4.748   8.156  0.00  0.00    +0.246 N 
ATOM      4  H   UNL     1      23.366  -5.454   8.797  0.00  0.00    +0.205 HD
ATOM      5  C   UNL     1      25.075  -5.165   7.776  0.00  0.00    +0.133 C 
ATOM      6  C   UNL     1      25.058  -6.609   7.279  0.00  0.00    +0.059 C 
ATOM      7  C   UNL     1      24.138  -6.835   6.079  0.00  0.00    +0.044 C 
ATOM     13  C   UNL     1      22.770  -6.318   6.522  0.00  0.00    +0.059 C 
ATOM     14  C   UNL     1      22.791  -4.867   6.989  0.00  0.00    +0.133 C 
BRANCH   7   8
ATOM      8  C   UNL     1      24.068  -8.327   5.737  0.00  0.00    +0.131 C 
BRANCH   8   9
ATOM      9  N   UNL     1      23.119  -8.495   4.622  0.00  0.00    +0.219 N 
ATOM     10  H   UNL     1      22.210  -8.159   4.901  0.00  0.00    +0.199 HD
ATOM     11  H   UNL     1      23.442  -7.970   3.824  0.00  0.00    +0.199 HD
ATOM     12  H   UNL     1      23.056  -9.471   4.379  0.00  0.00    +0.199 HD
ENDBRANCH   8   9
ENDBRANCH   7   8
ENDBRANCH   2   3
ENDBRANCH   1   2
TORSDOF 6
