REMARK  Name = 2QLU
REMARK  1 active torsions:
REMARK  status: ('A' for Active; 'I' for Inactive)
REMARK    1  A    between atoms: C_5  and  N_6
REMARK                            x       y       z     vdW  Elec       q    Type
REMARK                         _______ _______ _______ _____ _____    ______ ____
ROOT
ATOM      1  N   UNL     1      33.645  39.990  14.236  0.00  0.00    -0.329 N 
ATOM      2  H   UNL     1      33.924  40.491  13.332  0.00  0.00    +0.168 HD
ATOM      3  C   UNL     1      34.442  39.788  15.414  0.00  0.00    +0.163 A 
ATOM      4  N   UNL     1      35.693  40.131  15.645  0.00  0.00    -0.216 NA
ATOM      5  C   UNL     1      36.229  39.861  16.861  0.00  0.00    +0.225 A 
ATOM      6  N   UNL     1      35.640  39.238  17.851  0.00  0.00    -0.219 NA
ATOM      7  C   UNL     1      34.360  38.840  17.605  0.00  0.00    +0.147 A 
ATOM     11  C   UNL     1      33.719  39.116  16.322  0.00  0.00    +0.147 A 
ATOM     12  N   UNL     1      32.457  38.887  15.789  0.00  0.00    -0.231 NA
ATOM     13  C   UNL     1      32.462  39.403  14.529  0.00  0.00    +0.198 A 
ENDROOT
BRANCH   7   8
ATOM      8  N   UNL     1      33.723  38.207  18.578  0.00  0.00    -0.341 N 
ATOM      9  H   UNL     1      34.218  38.019  19.508  0.00  0.00    +0.144 HD
ATOM     10  H   UNL     1      32.713  37.884  18.435  0.00  0.00    +0.144 HD
ENDBRANCH   7   8
TORSDOF 1
