REMARK  Name = 3QEJ
REMARK  8 active torsions:
REMARK  status: ('A' for Active; 'I' for Inactive)
REMARK    1  A    between atoms: N_1  and  C_9
REMARK    2  A    between atoms: C_10  and  O_11
REMARK    3  A    between atoms: C_12  and  O_15
REMARK    4  A    between atoms: C_13  and  C_16
REMARK    5  A    between atoms: C_16  and  O_17
REMARK    6  A    between atoms: O_17  and  P_18
REMARK    7  A    between atoms: P_18  and  O_21
REMARK    8  A    between atoms: O_21  and  P_22
REMARK                            x       y       z     vdW  Elec       q    Type
REMARK                         _______ _______ _______ _____ _____    ______ ____
ROOT
ATOM      2  C   UNL     1      28.461  26.231   1.835  0.00  0.00    +0.255 C 
ATOM      3  O   UNL     1      27.352  27.106   1.957  0.00  0.00    -0.346 OA
ATOM      4  C   UNL     1      26.761  27.330   0.683  0.00  0.00    +0.178 C 
ATOM     15  C   UNL     1      27.492  26.442  -0.325  0.00  0.00    +0.178 C 
ATOM     18  C   UNL     1      28.220  25.443   0.563  0.00  0.00    +0.195 C 
ENDROOT
BRANCH   2   1
ATOM      1  N   UNL     1      28.546  25.271   2.945  0.00  0.00    -0.272 N 
ATOM     21  C   UNL     1      27.398  24.691   3.437  0.00  0.00    +0.098 C 
ATOM     22  C   UNL     1      27.497  23.635   4.334  0.00  0.00    +0.088 C 
ATOM     23  C   UNL     1      28.711  23.435   4.997  0.00  0.00    +0.254 C 
ATOM     24  O   UNL     1      28.787  22.628   5.917  0.00  0.00    -0.268 OA
ATOM     25  N   UNL     1      29.835  24.159   4.629  0.00  0.00    -0.275 N 
ATOM     26  H   UNL     1      30.761  24.008   5.143  0.00  0.00    +0.173 HD
ATOM     27  C   UNL     1      29.757  25.075   3.599  0.00  0.00    +0.331 C 
ATOM     28  O   UNL     1      30.762  25.708   3.280  0.00  0.00    -0.246 OA
ENDBRANCH   2   1
BRANCH  15  16
ATOM     16  O   UNL     1      28.375  27.228  -1.105  0.00  0.00    -0.386 OA
ATOM     17  H   UNL     1      29.015  27.769  -0.472  0.00  0.00    +0.210 HD
ENDBRANCH  15  16
BRANCH  18  19
ATOM     19  O   UNL     1      29.407  24.909   0.022  0.00  0.00    -0.385 OA
ATOM     20  H   UNL     1      30.071  25.690  -0.204  0.00  0.00    +0.210 HD
ENDBRANCH  18  19
BRANCH   4   5
ATOM      5  C   UNL     1      25.264  27.022   0.734  0.00  0.00    +0.202 C 
BRANCH   5   6
ATOM      6  O   UNL     1      25.035  25.662   1.043  0.00  0.00    -0.325 OA
BRANCH   6   7
ATOM      7  P   UNL     1      24.216  24.695   0.055  0.00  0.00    +0.215 P 
ATOM     13  O   UNL     1      24.638  23.286   0.212  0.00  0.00    -0.517 OA
ATOM     14  O   UNL     1      24.344  25.123  -1.360  0.00  0.00    -0.437 OA
BRANCH   7   8
ATOM      8  O   UNL     1      22.761  25.020   0.673  0.00  0.00    -0.314 OA
BRANCH   8   9
ATOM      9  P   UNL     1      21.388  24.283   0.295  0.00  0.00    -0.007 P 
ATOM     10  O   UNL     1      20.729  23.783   1.522  0.00  0.00    -0.577 OA
ATOM     11  O   UNL     1      20.477  25.222  -0.400  0.00  0.00    -0.577 OA
ATOM     12  O   UNL     1      21.721  23.176  -0.598  0.00  0.00    -0.637 OA
ENDBRANCH   8   9
ENDBRANCH   7   8
ENDBRANCH   6   7
ENDBRANCH   5   6
ENDBRANCH   4   5
TORSDOF 8
