REMARK  Name = 4QMT
REMARK  9 active torsions:
REMARK  status: ('A' for Active; 'I' for Inactive)
REMARK    1  A    between atoms: N_6  and  C_7
REMARK    2  A    between atoms: C_7  and  C_8
REMARK    3  A    between atoms: C_13  and  N_14
REMARK    4  A    between atoms: C_15  and  C_16
REMARK    5  A    between atoms: C_15  and  C_22
REMARK    6  A    between atoms: C_31  and  N_32
REMARK    7  A    between atoms: N_32  and  S_33
REMARK    8  A    between atoms: S_33  and  C_36
REMARK    9  A    between atoms: C_36  and  C_37
REMARK                            x       y       z     vdW  Elec       q    Type
REMARK                         _______ _______ _______ _____ _____    ______ ____
ROOT
ATOM      8  N   UNL     1      21.499  10.130  70.652  0.00  0.00    -0.247 NA
ATOM      9  C   UNL     1      22.628  10.103  71.426  0.00  0.00    +0.084 C 
ENDROOT
BRANCH   9  10
ATOM     10  C   UNL     1      23.243  11.286  71.689  0.00  0.00    +0.074 C 
ATOM     11  C   UNL     1      22.844  12.498  71.116  0.00  0.00    +0.270 C 
ATOM     12  N   UNL     1      23.735  13.455  71.345  0.00  0.00    -0.176 NA
ATOM     13  C   UNL     1      24.729  12.940  72.052  0.00  0.00    +0.065 A 
ATOM     14  C   UNL     1      25.864  13.616  72.502  0.00  0.00    +0.028 A 
ATOM     15  C   UNL     1      26.803  12.886  73.238  0.00  0.00    +0.026 A 
ATOM     16  C   UNL     1      26.631  11.518  73.542  0.00  0.00    +0.048 A 
ATOM     24  C   UNL     1      25.456  10.860  73.065  0.00  0.00    +0.035 A 
ATOM     25  O   UNL     1      21.800  12.770  70.460  0.00  0.00    -0.268 OA
ATOM     26  C   UNL     1      24.481  11.583  72.308  0.00  0.00    +0.014 A 
BRANCH  16  17
ATOM     17  N   UNL     1      27.584  10.853  74.274  0.00  0.00    -0.221 N 
ATOM     18  H   UNL     1      27.575  11.325  75.234  0.00  0.00    +0.173 HD
BRANCH  17  19
ATOM     19  S   UNL     1      27.632   9.177  74.606  0.00  0.00    +0.043 S 
ATOM     22  O   UNL     1      26.235   8.667  75.188  0.00  0.00    -0.155 OA
ATOM     23  O   UNL     1      28.834   8.862  75.622  0.00  0.00    -0.155 OA
BRANCH  19  20
ATOM     20  C   UNL     1      27.869   8.298  73.015  0.00  0.00    +0.185 C 
ATOM     21  C   UNL     1      29.334   8.294  72.573  0.00  0.00    +0.030 C 
ENDBRANCH  19  20
ENDBRANCH  17  19
ENDBRANCH  16  17
ENDBRANCH   9  10
BRANCH   8   7
ATOM      4  C   UNL     1      18.476   7.500  69.307  0.00  0.00    -0.033 A 
ATOM      5  C   UNL     1      19.563   6.980  70.034  0.00  0.00    +0.007 A 
ATOM      6  C   UNL     1      20.590   7.812  70.496  0.00  0.00    +0.028 A 
ATOM      7  C   UNL     1      20.559   9.206  70.254  0.00  0.00    +0.065 A 
ATOM     33  C   UNL     1      19.467   9.727  69.529  0.00  0.00    +0.028 A 
ATOM     34  C   UNL     1      18.437   8.895  69.066  0.00  0.00    +0.007 A 
BRANCH   4   3
ATOM      3  C   UNL     1      17.394   6.601  68.821  0.00  0.00    +0.119 C 
BRANCH   3   2
ATOM      1  C   UNL     1      18.007   6.882  66.475  0.00  0.00    +0.085 C 
ATOM      2  N   UNL     1      17.584   5.878  67.511  0.00  0.00    -0.298 NA
ATOM     35  C   UNL     1      16.345   5.157  67.077  0.00  0.00    +0.085 C 
ATOM     36  C   UNL     1      16.304   4.709  65.596  0.00  0.00    +0.015 C 
ATOM     37  C   UNL     1      16.786   5.775  64.593  0.00  0.00    +0.002 C 
ATOM     38  C   UNL     1      18.152   6.305  65.052  0.00  0.00    +0.015 C 
ENDBRANCH   3   2
ENDBRANCH   4   3
ENDBRANCH   8   7
BRANCH   9  27
ATOM     27  C   UNL     1      23.164   8.905  71.887  0.00  0.00    +0.001 A 
ATOM     28  C   UNL     1      22.876   8.460  73.205  0.00  0.00    +0.010 A 
ATOM     29  C   UNL     1      23.431   7.254  73.677  0.00  0.00    +0.001 A 
ATOM     30  C   UNL     1      24.268   6.494  72.843  0.00  0.00    +0.000 A 
ATOM     31  C   UNL     1      24.564   6.927  71.537  0.00  0.00    +0.001 A 
ATOM     32  C   UNL     1      24.017   8.130  71.060  0.00  0.00    +0.010 A 
ENDBRANCH   9  27
TORSDOF 8
