REMARK  Name = 6IL3
REMARK  3 active torsions:
REMARK  status: ('A' for Active; 'I' for Inactive)
REMARK    1  A    between atoms: C6_4  and  C7_5
REMARK    2  A    between atoms: C8_6  and  O9_14
REMARK    3  A    between atoms: C17_8  and  C18_21
REMARK                            x       y       z     vdW  Elec       q    Type
REMARK                         _______ _______ _______ _____ _____    ______ ____
ROOT
ATOM      6  C   UNL     1      74.439  54.176  28.946  0.00  0.00    +0.000 A 
ATOM      7  C   UNL     1      75.777  54.157  29.022  0.00  0.00    -0.030 A 
ATOM      8  N   UNL     1      76.380  54.311  30.214  0.00  0.00    +0.800 N 
ATOM      9  C   UNL     1      75.660  54.486  31.353  0.00  0.00    +0.300 A 
ATOM     10  N   UNL     1      76.496  54.625  32.365  0.00  0.00    -0.600 NA
ATOM     11  C   UNL     1      77.732  54.555  31.913  0.00  0.00    -0.050 A 
ATOM     12  C   UNL     1      74.269  54.495  31.296  0.00  0.00    -0.130 A 
ATOM     13  C   UNL     1      77.692  54.352  30.578  0.00  0.00    +0.050 A 
ATOM     20  C   UNL     1      73.662  54.339  30.096  0.00  0.00    +0.185 A 
ENDROOT
BRANCH   6   5
ATOM      1  N   UNL     1      72.676  53.073  26.002  0.00  0.00    -0.100 NA
ATOM      2  N   UNL     1      72.757  54.442  25.772  0.00  0.00    -0.150 N 
ATOM      3  C   UNL     1      72.210  55.081  24.592  0.00  0.00    -0.100 C 
ATOM      4  C   UNL     1      73.407  55.026  26.798  0.00  0.00    -0.050 A 
ATOM      5  C   UNL     1      73.731  54.028  27.664  0.00  0.00    +0.100 A 
ATOM     23  C   UNL     1      73.256  52.829  27.133  0.00  0.00    -0.050 A 
ENDBRANCH   6   5
BRANCH  13  14
ATOM     14  C   UNL     1      78.841  54.210  29.702  0.00  0.00    +0.100 A 
ATOM     15  N   UNL     1      80.047  54.191  30.237  0.00  0.00    -0.480 NA
ATOM     16  C   UNL     1      81.122  54.055  29.492  0.00  0.00    +0.250 A 
ATOM     17  C   UNL     1      81.008  53.927  28.119  0.00  0.00    -0.130 A 
ATOM     18  C   UNL     1      79.760  53.942  27.539  0.00  0.00    -0.130 A 
ATOM     19  C   UNL     1      78.652  54.081  28.340  0.00  0.00    -0.130 A 
ENDBRANCH  13  14
BRANCH  20  21
ATOM     21  O   UNL     1      72.320  54.344  29.948  0.00  0.00    -0.365 OA
ATOM     22  C   UNL     1      71.512  53.855  31.008  0.00  0.00    +0.030 C 
ENDBRANCH  20  21
TORSDOF 3
