REMARK  Name = 5AAF
REMARK  9 active torsions:
REMARK  status: ('A' for Active; 'I' for Inactive)
REMARK    1  A    between atoms: C_1  and  N_2
REMARK    2  A    between atoms: N_2  and  C_3
REMARK    3  A    between atoms: C_4  and  C_6
REMARK    4  A    between atoms: C_10  and  C_11
REMARK    5  A    between atoms: C_11  and  N_12
REMARK    6  A    between atoms: C_14  and  C_15
REMARK    7  A    between atoms: C_22  and  C_23
REMARK    8  A    between atoms: N_25  and  C_26
REMARK    9  A    between atoms: C_28  and  C_29
REMARK                            x       y       z     vdW  Elec       q    Type
REMARK                         _______ _______ _______ _____ _____    ______ ____
ROOT
ATOM     12  C   UNL     1      -4.684  30.624  -6.837  0.00  0.00    +0.032 A 
ATOM     13  C   UNL     1      -3.800  31.732  -6.549  0.00  0.00    +0.095 A 
ATOM     14  N   UNL     1      -3.346  32.311  -5.367  0.00  0.00    -0.336 N 
ATOM     15  H   UNL     1      -3.603  31.997  -4.377  0.00  0.00    +0.167 HD
ATOM     16  C   UNL     1      -2.523  33.341  -5.684  0.00  0.00    +0.140 A 
ATOM     25  N   UNL     1      -2.440  33.433  -7.050  0.00  0.00    -0.208 NA
ATOM     26  C   UNL     1      -3.228  32.440  -7.601  0.00  0.00    +0.179 A 
ATOM     27  N   UNL     1      -3.504  32.081  -8.923  0.00  0.00    -0.233 NA
ATOM     28  C   UNL     1      -4.332  31.038  -9.235  0.00  0.00    +0.134 A 
ATOM     29  C   UNL     1      -4.937  30.293  -8.188  0.00  0.00    +0.069 A 
ATOM     30 CL   UNL     1      -5.976  28.989  -8.575  0.00  0.00    -0.081 Cl
ENDROOT
BRANCH  16  17
ATOM     17  C   UNL     1      -1.837  34.210  -4.765  0.00  0.00    +0.028 C 
ATOM     18  C   UNL     1      -1.974  34.310  -3.384  0.00  0.00    +0.024 C 
ATOM     19  C   UNL     1      -2.890  33.509  -2.494  0.00  0.00    +0.062 C 
ATOM     20  N   UNL     1      -1.130  35.263  -2.953  0.00  0.00    -0.282 N 
ATOM     21  H   UNL     1      -1.007  35.568  -1.935  0.00  0.00    +0.166 HD
ATOM     22  N   UNL     1      -0.467  35.771  -4.002  0.00  0.00    -0.228 NA
ATOM     23  C   UNL     1       0.518  36.809  -3.941  0.00  0.00    +0.128 C 
ATOM     24  C   UNL     1      -0.877  35.150  -5.119  0.00  0.00    +0.145 C 
ENDBRANCH  16  17
BRANCH  12  11
ATOM      8  N   UNL     1      -6.713  29.104  -4.265  0.00  0.00    -0.267 N 
ATOM      9  N   UNL     1      -5.519  28.561  -4.006  0.00  0.00    -0.179 NA
ATOM     10  C   UNL     1      -4.611  29.022  -4.878  0.00  0.00    +0.143 A 
ATOM     11  C   UNL     1      -5.274  29.898  -5.750  0.00  0.00    +0.023 A 
ATOM     31  C   UNL     1      -6.583  29.933  -5.347  0.00  0.00    +0.117 A 
BRANCH   8   7
ATOM      7  C   UNL     1      -7.938  28.842  -3.538  0.00  0.00    +0.178 C 
BRANCH   7   6
ATOM      4  C   UNL     1      -6.789  30.501  -0.274  0.00  0.00    +0.037 A 
ATOM      5  C   UNL     1      -6.765  29.935  -1.562  0.00  0.00    +0.018 A 
ATOM      6  C   UNL     1      -7.929  29.457  -2.138  0.00  0.00    -0.025 A 
ATOM     32  C   UNL     1      -9.145  29.534  -1.418  0.00  0.00    +0.005 A 
ATOM     33  C   UNL     1      -9.171  30.089  -0.132  0.00  0.00    +0.001 A 
ATOM     34  C   UNL     1      -8.013  30.561   0.441  0.00  0.00    +0.013 A 
BRANCH   4   3
ATOM      1  C   UNL     1      -4.042  32.820   1.325  0.00  0.00    +0.132 C 
ATOM      2  N   UNL     1      -5.272  32.440   0.768  0.00  0.00    -0.304 N 
ATOM      3  C   UNL     1      -5.473  31.018   0.348  0.00  0.00    +0.246 C 
ATOM     35  O   UNL     1      -4.568  30.245   0.501  0.00  0.00    -0.270 OA
ATOM     36  C   UNL     1      -6.309  33.438   0.620  0.00  0.00    +0.132 C 
ENDBRANCH   4   3
ENDBRANCH   7   6
ENDBRANCH   8   7
ENDBRANCH  12  11
TORSDOF 5
