REMARK  Name = 1uu7_ligand
REMARK  6 active torsions:
REMARK  status: ('A' for Active; 'I' for Inactive)
REMARK    1  A    between atoms: CBD_1  and  NBC_2
REMARK    2  A    between atoms: CBB_6  and  CBA_7
REMARK    3  A    between atoms: CBA_7  and  CAY_8
REMARK    4  A    between atoms: CAY_8  and  NAH_9
REMARK    5  A    between atoms: CAG_17  and  CAI_18
REMARK    6  A    between atoms: CAJ_24  and  CAK_25
REMARK                            x       y       z     vdW  Elec       q    Type
REMARK                         _______ _______ _______ _____ _____    ______ ____
ROOT
ATOM     10  N   UNL     1      19.768  86.753   5.482  0.00  0.00    -0.259 N 
ATOM     11  C   UNL     1      20.592  87.729   5.122  0.00  0.00    +0.142 A 
ATOM     12  C   UNL     1      19.868  88.784   4.743  0.00  0.00    -0.005 A 
ATOM     31  C   UNL     1      18.523  88.444   4.916  0.00  0.00    -0.013 A 
ATOM     32  C   UNL     1      17.320  89.089   4.714  0.00  0.00    -0.017 A 
ATOM     33  C   UNL     1      16.130  88.452   5.005  0.00  0.00    -0.026 A 
ATOM     34  C   UNL     1      16.132  87.134   5.465  0.00  0.00    -0.021 A 
ATOM     35  C   UNL     1      17.329  86.470   5.667  0.00  0.00    +0.014 A 
ATOM     36  C   UNL     1      18.513  87.127   5.379  0.00  0.00    +0.071 A 
ENDROOT
BRANCH  12  13
ATOM     13  C   UNL     1      20.409  90.033   4.352  0.00  0.00    +0.044 C 
ATOM     14  C   UNL     1      21.620  90.318   3.678  0.00  0.00    +0.044 C 
ATOM     25  C   UNL     1      21.739  91.718   3.654  0.00  0.00    +0.224 C 
ATOM     26  N   UNL     1      20.709  92.281   4.289  0.00  0.00    -0.204 N 
ATOM     27  H   UNL     1      20.552  93.262   4.404  0.00  0.00    +0.220 HD
ATOM     28  O   UNL     1      22.665  92.331   3.118  0.00  0.00    -0.372 OA
ATOM     29  C   UNL     1      19.907  91.275   4.754  0.00  0.00    +0.224 C 
ATOM     30  O   UNL     1      18.850  91.411   5.388  0.00  0.00    -0.372 OA
BRANCH  14  15
ATOM     15  C   UNL     1      22.569  89.444   3.095  0.00  0.00    -0.005 A 
ATOM     16  C   UNL     1      23.889  89.677   3.076  0.00  0.00    +0.139 A 
ATOM     17  N   UNL     1      24.498  88.686   2.472  0.00  0.00    -0.274 N 
ATOM     18  H   UNL     1      25.516  88.615   2.329  0.00  0.00    +0.231 HD
ATOM     19  C   UNL     1      23.604  87.785   2.071  0.00  0.00    +0.069 A 
ATOM     20  C   UNL     1      23.770  86.569   1.395  0.00  0.00    +0.014 A 
ATOM     21  C   UNL     1      22.662  85.786   1.081  0.00  0.00    -0.021 A 
ATOM     22  C   UNL     1      21.387  86.220   1.431  0.00  0.00    -0.026 A 
ATOM     23  C   UNL     1      21.230  87.443   2.123  0.00  0.00    -0.017 A 
ATOM     24  C   UNL     1      22.348  88.227   2.439  0.00  0.00    -0.013 A 
ENDBRANCH  14  15
ENDBRANCH  12  13
BRANCH  10   9
ATOM      9  C   UNL     1      20.198  85.435   5.963  0.00  0.00    +0.181 C 
BRANCH   9   8
ATOM      8  C   UNL     1      21.402  85.001   5.175  0.00  0.00    +0.087 C 
BRANCH   8   7
ATOM      1  C   UNL     1      18.689  83.928   4.363  0.00  0.00    +0.191 C 
ATOM      2  N   UNL     1      19.945  83.508   3.707  0.00  0.00    +0.235 N 
ATOM      3  H   UNL     1      19.718  83.344   2.739  0.00  0.00    +0.203 HD
ATOM      4  C   UNL     1      20.521  82.262   4.277  0.00  0.00    +0.131 C 
ATOM      5  C   UNL     1      21.946  82.209   3.680  0.00  0.00    +0.056 C 
ATOM      6  C   UNL     1      22.250  83.646   3.243  0.00  0.00    +0.060 C 
ATOM      7  C   UNL     1      21.063  84.487   3.761  0.00  0.00    +0.067 C 
ENDBRANCH   8   7
ENDBRANCH   9   8
ENDBRANCH  10   9
TORSDOF 5
