REMARK  Name = 1h01_ligand
REMARK  11 active torsions:
REMARK  status: ('A' for Active; 'I' for Inactive)
REMARK    1  A    between atoms: C22_24  and  O21_43
REMARK    2  A    between atoms: C22_24  and  C23_48
REMARK    3  A    between atoms: C4_28  and  N7_44
REMARK    4  A    between atoms: C8_34  and  N7_44
REMARK    5  A    between atoms: C15_39  and  N14_45
REMARK    6  A    between atoms: C18_40  and  O21_43
REMARK    7  A    between atoms: C23_48  and  C24_49
REMARK    8  A    between atoms: C23_48  and  O28_53
REMARK    9  A    between atoms: C24_49  and  N25_50
REMARK   10  A    between atoms: N25_50  and  C26_51
REMARK   11  A    between atoms: N25_50  and  C27_52
REMARK                            x       y       z     vdW  Elec       q    Type
REMARK                         _______ _______ _______ _____ _____    ______ ____
ROOT
ATOM     15  N   UNL     1       2.882  28.726   6.518  0.00  0.00    -0.250 N 
ATOM     16  C   UNL     1       1.712  29.410   7.010  0.00  0.00    +0.193 A 
ATOM     17  N   UNL     1       0.888  28.742   7.809  0.00  0.00    -0.235 NA
ATOM     18  C   UNL     1      -0.205  29.331   8.299  0.00  0.00    +0.134 A 
ATOM     19  C   UNL     1      -0.501  30.690   7.987  0.00  0.00    +0.056 A 
ATOM     20  C   UNL     1       0.446  31.334   7.119  0.00  0.00    +0.086 A 
ATOM     31  N   UNL     1       1.545  30.683   6.643  0.00  0.00    -0.270 NA
ATOM     32  H   UNL     1       3.469  29.314   5.910  0.00  0.00    +0.215 HD
ENDROOT
BRANCH  15  14
ATOM     11  C   UNL     1       4.340  24.722   7.215  0.00  0.00    +0.080 A 
ATOM     12  C   UNL     1       3.446  25.362   8.124  0.00  0.00    +0.010 A 
ATOM     13  C   UNL     1       2.997  26.668   7.869  0.00  0.00    +0.005 A 
ATOM     14  C   UNL     1       3.414  27.373   6.698  0.00  0.00    +0.055 A 
ATOM     33  C   UNL     1       4.313  26.735   5.792  0.00  0.00    +0.005 A 
ATOM     34  C   UNL     1       4.768  25.413   6.050  0.00  0.00    +0.010 A 
BRANCH  11  10
ATOM     10  O   UNL     1       4.775  23.418   7.473  0.00  0.00    -0.323 OA
BRANCH  10   1
ATOM      1  C   UNL     1       3.869  22.360   7.918  0.00  0.00    +0.226 C 
BRANCH   1   2
ATOM      2  C   UNL     1       4.606  21.055   8.263  0.00  0.00    +0.189 C 
BRANCH   2   3
ATOM      3  O   UNL     1       5.022  20.530   7.018  0.00  0.00    -0.384 OA
ATOM      4  H   UNL     1       4.278  20.483   6.430  0.00  0.00    +0.210 HD
ENDBRANCH   2   3
BRANCH   2   5
ATOM      5  C   UNL     1       5.848  21.133   9.242  0.00  0.00    +0.165 C 
BRANCH   5   6
ATOM      6  N   UNL     1       5.581  21.272  10.738  0.00  0.00    +0.233 N 
ATOM      7  C   UNL     1       4.381  20.496  11.186  0.00  0.00    +0.190 C 
ATOM      8  C   UNL     1       6.741  20.909  11.597  0.00  0.00    +0.190 C 
ATOM      9  H   UNL     1       5.386  22.247  10.902  0.00  0.00    +0.203 HD
ENDBRANCH   5   6
ENDBRANCH   2   5
ENDBRANCH   1   2
ENDBRANCH  10   1
ENDBRANCH  11  10
ENDBRANCH  15  14
BRANCH  18  21
ATOM     21  N   UNL     1      -1.078  28.569   9.156  0.00  0.00    -0.255 N 
ATOM     30  H   UNL     1      -1.896  29.088   9.507  0.00  0.00    +0.216 HD
BRANCH  21  22
ATOM     22  C   UNL     1      -0.996  27.189   9.607  0.00  0.00    +0.079 A 
ATOM     23  C   UNL     1      -0.646  26.145   8.712  0.00  0.00    +0.030 A 
ATOM     24  C   UNL     1      -0.561  24.817   9.148  0.00  0.00    +0.031 A 
ATOM     25 CL   UNL     1      -0.110  23.585   7.998  0.00  0.00    -0.073 Cl
ATOM     26  C   UNL     1      -0.826  24.491  10.495  0.00  0.00    -0.006 A 
ATOM     27  C   UNL     1      -1.177  25.516  11.407  0.00  0.00    +0.002 A 
ATOM     28  C   UNL     1      -1.259  26.864  10.966  0.00  0.00    +0.063 A 
ATOM     29 CL   UNL     1      -1.682  28.100  12.132  0.00  0.00    -0.079 Cl
ENDBRANCH  21  22
ENDBRANCH  18  21
TORSDOF 9
