REMARK  Name = 57F
REMARK  8 active torsions:
REMARK  status: ('A' for Active; 'I' for Inactive)
REMARK    1  A    between atoms: C2_2  and  C3_3
REMARK    2  A    between atoms: C4_4  and  C27_15
REMARK    3  A    between atoms: C7_7  and  C8_8
REMARK    4  A    between atoms: C11_9  and  N10_23
REMARK    5  A    between atoms: C13_11  and  S18_30
REMARK    6  A    between atoms: C22_20  and  N21_24
REMARK    7  A    between atoms: C24_21  and  N21_24
REMARK    8  A    between atoms: N21_24  and  S18_30
REMARK                            x       y       z     vdW  Elec       q    Type
REMARK                         _______ _______ _______ _____ _____    ______ ____
ROOT
ATOM      7  C   UNL     1      16.910  -5.724  -6.026  0.00  0.00    +0.114 A 
ATOM      8  C   UNL     1      17.337  -5.728  -4.708  0.00  0.00    +0.211 A 
ATOM      9  O   UNL     1      17.053  -6.791  -3.912  0.00  0.00    -0.285 OA
ATOM     10  C   UNL     1      18.068  -4.660  -4.194  0.00  0.00    +0.041 A 
ATOM     11  C   UNL     1      18.373  -3.566  -4.978  0.00  0.00    +0.000 A 
ATOM     12  C   UNL     1      19.153  -2.458  -4.313  0.00  0.00    +0.033 C 
ATOM     13  C   UNL     1      17.954  -3.519  -6.305  0.00  0.00    +0.120 A 
ATOM     22  C   UNL     1      17.225  -4.615  -6.831  0.00  0.00    +0.039 A 
ENDROOT
BRANCH   7   6
ATOM      5  C   UNL     1      15.536  -7.017  -7.554  0.00  0.00    +0.286 C 
ATOM      6  N   UNL     1      16.177  -6.828  -6.396  0.00  0.00    -0.171 NA
ATOM     23  O   UNL     1      15.446  -6.172  -8.429  0.00  0.00    -0.266 OA
BRANCH   5   4
ATOM      3  C   UNL     1      15.324  -9.676  -7.424  0.00  0.00    +0.004 A 
ATOM      4  C   UNL     1      14.908  -8.325  -7.899  0.00  0.00    +0.132 A 
ATOM     24  N   UNL     1      13.907  -8.440  -8.782  0.00  0.00    -0.245 NA
ATOM     25  C   UNL     1      13.546  -9.708  -8.939  0.00  0.00    +0.062 A 
ATOM     26  C   UNL     1      12.438 -10.147  -9.859  0.00  0.00    +0.052 C 
ATOM     27  C   UNL     1      14.438 -10.541  -8.088  0.00  0.00    +0.046 A 
BRANCH  27  28
ATOM     28  C   UNL     1      14.316 -12.037  -8.054  0.00  0.00    +0.174 C 
ATOM     29  C   UNL     1      15.548 -12.831  -7.756  0.00  0.00    +0.077 C 
ATOM     30  O   UNL     1      13.229 -12.570  -8.304  0.00  0.00    -0.291 OA
ENDBRANCH  27  28
BRANCH   3   2
ATOM      1  C   UNL     1      15.759 -10.283  -5.085  0.00  0.00    +0.005 C 
ATOM      2  C   UNL     1      16.412 -10.018  -6.423  0.00  0.00    +0.028 C 
ENDBRANCH   3   2
ENDBRANCH   5   4
ENDBRANCH   7   6
BRANCH  13  14
ATOM     14  S   UNL     1      18.297  -2.257  -7.242  0.00  0.00    +0.063 S 
ATOM     15  O   UNL     1      17.962  -1.033  -6.557  0.00  0.00    -0.153 OA
ATOM     21  O   UNL     1      17.620  -2.399  -8.487  0.00  0.00    -0.153 OA
BRANCH  14  16
ATOM     16  N   UNL     1      19.771  -2.271  -7.669  0.00  0.00    -0.156 NA
BRANCH  16  17
ATOM     17  C   UNL     1      20.600  -1.085  -7.459  0.00  0.00    +0.096 C 
ATOM     18  C   UNL     1      20.531  -0.335  -8.762  0.00  0.00    +0.021 C 
ENDBRANCH  16  17
BRANCH  16  19
ATOM     19  C   UNL     1      20.295  -3.414  -8.437  0.00  0.00    +0.096 C 
ATOM     20  C   UNL     1      21.731  -3.765  -8.125  0.00  0.00    +0.021 C 
ENDBRANCH  16  19
ENDBRANCH  14  16
ENDBRANCH  13  14
TORSDOF 8
