REMARK  Name = 19B
REMARK  5 active torsions:
REMARK  status: ('A' for Active; 'I' for Inactive)
REMARK    1  A    between atoms: C22_2  and  C19_16
REMARK    2  A    between atoms: N24_3  and  C26_4
REMARK    3  A    between atoms: C29_6  and  N31_10
REMARK    4  A    between atoms: C15_21  and  C12_23
REMARK    5  A    between atoms: C2_30  and  C5_32
REMARK                            x       y       z     vdW  Elec       q    Type
REMARK                         _______ _______ _______ _____ _____    ______ ____
ROOT
ATOM     16  C   UNL     1      40.037  30.331  34.147  0.00  0.00    +0.055 A 
ATOM     17  C   UNL     1      41.202  30.979  33.703  0.00  0.00    +0.004 A 
ATOM     18  C   UNL     1      41.155  31.806  32.598  0.00  0.00    -0.004 A 
ATOM     34  C   UNL     1      39.960  32.022  31.908  0.00  0.00    -0.022 A 
ATOM     35  C   UNL     1      38.800  31.389  32.355  0.00  0.00    -0.004 A 
ATOM     36  C   UNL     1      39.899  32.934  30.686  0.00  0.00    +0.031 C 
ATOM     37  C   UNL     1      38.830  30.545  33.468  0.00  0.00    +0.004 A 
ENDROOT
BRANCH  18  19
ATOM     19  C   UNL     1      42.386  32.465  32.131  0.00  0.00    +0.003 A 
ATOM     20  C   UNL     1      42.664  33.778  32.511  0.00  0.00    +0.040 A 
ATOM     21  C   UNL     1      43.804  34.376  32.051  0.00  0.00    +0.176 A 
ATOM     22  O   UNL     1      44.309  35.625  32.269  0.00  0.00    -0.354 OA
ATOM     23  N   UNL     1      45.445  35.735  31.593  0.00  0.00    -0.081 NA
ATOM     24  C   UNL     1      45.730  34.577  30.916  0.00  0.00    +0.100 A 
ATOM     31  C   UNL     1      44.668  33.720  31.219  0.00  0.00    +0.054 A 
ATOM     32  C   UNL     1      44.402  32.391  30.814  0.00  0.00    +0.004 A 
ATOM     33  C   UNL     1      43.244  31.767  31.283  0.00  0.00    +0.000 A 
BRANCH  24  25
ATOM     25  C   UNL     1      46.938  34.291  30.051  0.00  0.00    +0.047 C 
ATOM     26  C   UNL     1      47.921  33.311  30.736  0.00  0.00    +0.025 C 
ATOM     27  C   UNL     1      48.943  32.814  29.715  0.00  0.00    +0.089 C 
ATOM     28  N   UNL     1      49.712  33.908  29.101  0.00  0.00    -0.218 NA
ATOM     29  C   UNL     1      48.962  35.139  28.759  0.00  0.00    +0.089 C 
ATOM     30  C   UNL     1      47.779  35.529  29.689  0.00  0.00    +0.025 C 
ENDBRANCH  24  25
ENDBRANCH  18  19
BRANCH  16   2
ATOM      1  O   UNL     1      41.000  29.800  36.200  0.00  0.00    -0.268 OA
ATOM      2  C   UNL     1      40.165  29.484  35.357  0.00  0.00    +0.269 C 
ATOM      3  N   UNL     1      39.302  28.442  35.536  0.00  0.00    -0.175 NA
BRANCH   3   4
ATOM      4  C   UNL     1      39.278  27.591  36.647  0.00  0.00    +0.075 A 
ATOM      5  C   UNL     1      39.545  27.996  37.989  0.00  0.00    +0.031 A 
ATOM      6  C   UNL     1      39.525  27.092  39.083  0.00  0.00    +0.049 A 
ATOM     13  C   UNL     1      39.221  25.745  38.773  0.00  0.00    +0.015 A 
ATOM     14  C   UNL     1      38.948  25.335  37.462  0.00  0.00    +0.003 A 
ATOM     15  C   UNL     1      38.979  26.253  36.403  0.00  0.00    +0.017 A 
BRANCH   6   7
ATOM      7  N   UNL     1      39.853  27.495  40.396  0.00  0.00    -0.303 N 
ATOM      8  C   UNL     1      39.728  26.575  41.572  0.00  0.00    +0.123 C 
ATOM      9  C   UNL     1      39.769  27.296  42.939  0.00  0.00    +0.164 C 
ATOM     10  O   UNL     1      40.702  28.360  42.918  0.00  0.00    -0.350 OA
ATOM     11  C   UNL     1      40.324  29.388  42.034  0.00  0.00    +0.164 C 
ATOM     12  C   UNL     1      40.456  28.839  40.599  0.00  0.00    +0.123 C 
ENDBRANCH   6   7
ENDBRANCH   3   4
ENDBRANCH  16   2
TORSDOF 5
