REMARK  Name = 6ehk
REMARK  7 active torsions:
REMARK  status: ('A' for Active; 'I' for Inactive)
REMARK    1  A    between atoms: C2_1  and  C1_2
REMARK    2  A    between atoms: C8_5  and  C7_6
REMARK    3  A    between atoms: C11_13  and  C12_17
REMARK    4  A    between atoms: C12_17  and  N_18
REMARK    5  A    between atoms: N_18  and  C13_19
REMARK    6  A    between atoms: C13_19  and  C14_20
REMARK    7  A    between atoms: C14_20  and  C15_21
REMARK                            x       y       z     vdW  Elec       q    Type
REMARK                         _______ _______ _______ _____ _____    ______ ____
ROOT
ATOM      7  C   UNL     1    -109.486-175.730 309.533  0.00  0.00    +0.019 A 
ATOM      8  C   UNL     1    -109.956-174.482 309.105  0.00  0.00    +0.050 A 
ATOM      9 CL   UNL     1    -108.839-173.198 308.784  0.00  0.00    -0.084 Cl
ATOM     10  C   UNL     1    -111.302-174.226 308.913  0.00  0.00    +0.026 A 
ATOM     11  C   UNL     1    -112.247-175.218 309.143  0.00  0.00    -0.031 A 
ATOM     25  C   UNL     1    -111.804-176.474 309.534  0.00  0.00    +0.026 A 
ATOM     26  C   UNL     1    -110.457-176.716 309.705  0.00  0.00    +0.050 A 
ATOM     27 CL   UNL     1    -109.963-178.329 310.067  0.00  0.00    -0.084 Cl
ENDROOT
BRANCH   7   6
ATOM      1  C   UNL     1    -107.147-176.484 308.862  0.00  0.00    -0.040 A 
ATOM      2  C   UNL     1    -105.847-176.825 309.235  0.00  0.00    +0.004 A 
ATOM      3  C   UNL     1    -105.425-176.671 310.545  0.00  0.00    +0.000 A 
ATOM      4  C   UNL     1    -106.298-176.190 311.504  0.00  0.00    +0.001 A 
ATOM      5  C   UNL     1    -107.599-175.853 311.156  0.00  0.00    +0.009 A 
ATOM      6  C   UNL     1    -108.040-175.993 309.831  0.00  0.00    -0.012 A 
BRANCH   1  28
ATOM     28  C   UNL     1    -107.610-176.700 307.441  0.00  0.00    +0.033 C 
ATOM     29  C   UNL     1    -107.421-175.540 306.529  0.00  0.00    +0.009 C 
ENDBRANCH   1  28
ENDBRANCH   7   6
BRANCH  11  12
ATOM     12  C   UNL     1    -113.723-174.935 308.992  0.00  0.00    +0.116 C 
BRANCH  12  13
ATOM     13  N   UNL     1    -114.406-175.832 308.047  0.00  0.00    -0.190 NA
BRANCH  13  14
ATOM     14  C   UNL     1    -115.866-175.639 308.049  0.00  0.00    +0.089 C 
BRANCH  14  15
ATOM     15  C   UNL     1    -116.520-176.706 307.197  0.00  0.00    +0.090 C 
BRANCH  15  16
ATOM     16  C   UNL     1    -118.013-176.708 307.254  0.00  0.00    +0.108 A 
ATOM     17  N   UNL     1    -118.746-177.700 306.698  0.00  0.00    -0.174 NA
ATOM     18  C   UNL     1    -120.078-177.341 306.819  0.00  0.00    +0.066 A 
ATOM     19  C   UNL     1    -121.261-177.969 306.434  0.00  0.00    +0.028 A 
ATOM     20  C   UNL     1    -122.462-177.330 306.721  0.00  0.00    +0.002 A 
ATOM     21  C   UNL     1    -122.474-176.095 307.382  0.00  0.00    +0.002 A 
ATOM     22  C   UNL     1    -121.286-175.477 307.760  0.00  0.00    +0.030 A 
ATOM     23  C   UNL     1    -120.075-176.111 307.473  0.00  0.00    +0.089 A 
ATOM     24  N   UNL     1    -118.757-175.733 307.746  0.00  0.00    -0.233 NA
ENDBRANCH  15  16
ENDBRANCH  14  15
ENDBRANCH  13  14
ENDBRANCH  12  13
ENDBRANCH  11  12
TORSDOF 7
