REMARK  Name = 5LOH
REMARK  5 active torsions:
REMARK  status: ('A' for Active; 'I' for Inactive)
REMARK    1  A    between atoms: C_4  and  N_34
REMARK    2  A    between atoms: C_5  and  O_32
REMARK    3  A    between atoms: C_6  and  C_7
REMARK    4  A    between atoms: O_32  and  C_33
REMARK    5  A    between atoms: N_34  and  C_35
REMARK                            x       y       z     vdW  Elec       q    Type
REMARK                         _______ _______ _______ _____ _____    ______ ____
ROOT
ATOM      1  O   UNL     1     -20.386 -12.109 -10.690  0.00  0.00    -0.328 OA
ATOM      2  C   UNL     1     -19.899 -11.028 -11.432  0.00  0.00    +0.174 C 
ATOM      3  N   UNL     1     -18.417 -11.157 -11.482  0.00  0.00    -0.307 N 
ATOM      4  C   UNL     1     -17.514 -10.734 -12.492  0.00  0.00    +0.053 A 
ATOM      5  C   UNL     1     -17.762 -10.090 -13.698  0.00  0.00    +0.026 A 
ATOM      6  C   UNL     1     -16.691  -9.752 -14.511  0.00  0.00    +0.002 A 
ATOM      7  C   UNL     1     -15.397 -10.051 -14.131  0.00  0.00    +0.001 A 
ATOM      8  C   UNL     1     -15.145 -10.694 -12.931  0.00  0.00    +0.010 A 
ATOM      9  C   UNL     1     -16.202 -11.042 -12.094  0.00  0.00    +0.008 A 
ATOM     10  C   UNL     1     -16.291 -11.678 -10.785  0.00  0.00    +0.015 A 
ATOM     11  C   UNL     1     -15.340 -12.170  -9.880  0.00  0.00    -0.008 A 
ATOM     12  C   UNL     1     -13.846 -12.240 -10.007  0.00  0.00    +0.141 C 
ATOM     13  N   UNL     1     -13.453 -12.838  -8.714  0.00  0.00    -0.307 N 
ATOM     14  H   UNL     1     -12.442 -13.041  -8.430  0.00  0.00    +0.149 HD
ATOM     15  C   UNL     1     -14.560 -13.106  -7.909  0.00  0.00    +0.245 C 
ATOM     16  O   UNL     1     -14.487 -13.600  -6.787  0.00  0.00    -0.270 OA
ATOM     17  C   UNL     1     -15.761 -12.682  -8.658  0.00  0.00    +0.052 A 
ATOM     18  C   UNL     1     -17.112 -12.738  -8.284  0.00  0.00    +0.022 A 
ATOM     19  C   UNL     1     -17.852 -13.165  -7.106  0.00  0.00    +0.009 A 
ATOM     20  C   UNL     1     -17.497 -13.702  -5.873  0.00  0.00    +0.010 A 
ATOM     21  C   UNL     1     -18.478 -13.985  -4.936  0.00  0.00    +0.001 A 
ATOM     22  C   UNL     1     -19.810 -13.743  -5.215  0.00  0.00    +0.002 A 
ATOM     23  C   UNL     1     -20.191 -13.212  -6.437  0.00  0.00    +0.026 A 
ATOM     24  C   UNL     1     -19.207 -12.926  -7.374  0.00  0.00    +0.052 A 
ATOM     25  N   UNL     1     -19.323 -12.383  -8.659  0.00  0.00    -0.312 N 
ATOM     26  C   UNL     1     -18.066 -12.258  -9.203  0.00  0.00    +0.077 A 
ATOM     27  C   UNL     1     -17.658 -11.728 -10.445  0.00  0.00    +0.077 A 
ATOM     28  C   UNL     1     -20.619 -11.300 -12.736  0.00  0.00    +0.069 C 
ATOM     29  C   UNL     1     -20.326  -9.635 -10.830  0.00  0.00    +0.187 C 
ATOM     32  C   UNL     1     -21.619  -9.870 -10.003  0.00  0.00    +0.091 C 
ATOM     36  C   UNL     1     -21.229 -10.763  -8.828  0.00  0.00    +0.076 C 
ATOM     37  C   UNL     1     -20.601 -12.044  -9.315  0.00  0.00    +0.224 C 
ENDROOT
BRANCH  32  33
ATOM     33  N   UNL     1     -22.169  -8.556  -9.634  0.00  0.00    -0.314 NA
ATOM     34  H   UNL     1     -21.931  -7.865 -10.415  0.00  0.00    +0.122 HD
ATOM     35  C   UNL     1     -23.613  -8.532  -9.431  0.00  0.00    +0.101 C 
ENDBRANCH  32  33
BRANCH  29  30
ATOM     30  O   UNL     1     -19.321  -9.191  -9.927  0.00  0.00    -0.374 OA
ATOM     31  C   UNL     1     -18.566  -8.078 -10.384  0.00  0.00    +0.194 C 
ENDBRANCH  29  30
TORSDOF 2
