REMARK  Name = 4XV2
REMARK  9 active torsions:
REMARK  status: ('A' for Active; 'I' for Inactive)
REMARK    1  A    between atoms: C_2  and  C_8
REMARK    2  A    between atoms: C_10  and  C_13
REMARK    3  A    between atoms: C_12  and  C_17
REMARK    4  A    between atoms: C_13  and  C_14
REMARK    5  A    between atoms: C_13  and  C_15
REMARK    6  A    between atoms: C_13  and  C_16
REMARK    7  A    between atoms: C_18  and  N_24
REMARK    8  A    between atoms: N_24  and  S_25
REMARK    9  A    between atoms: S_25  and  C_26
REMARK                            x       y       z     vdW  Elec       q    Type
REMARK                         _______ _______ _______ _____ _____    ______ ____
ROOT
ATOM     11  C   UNL     1       0.237  -2.653 -21.530  0.00  0.00    +0.039 A 
ATOM     12  C   UNL     1      -0.122  -1.318 -21.287  0.00  0.00    +0.013 A 
ATOM     13  C   UNL     1      -1.420  -1.000 -20.884  0.00  0.00    +0.003 A 
ATOM     14  C   UNL     1      -2.379  -2.001 -20.725  0.00  0.00    +0.027 A 
ATOM     15  C   UNL     1      -2.030  -3.330 -20.975  0.00  0.00    +0.084 A 
ATOM     29  C   UNL     1      -0.735  -3.643 -21.375  0.00  0.00    +0.155 A 
ATOM     30  F   UNL     1      -0.433  -4.927 -21.607  0.00  0.00    -0.203 F 
ENDROOT
BRANCH  11  10
ATOM      9  C   UNL     1       2.772  -2.790 -21.310  0.00  0.00    +0.065 A 
ATOM     10  C   UNL     1       1.571  -3.020 -21.970  0.00  0.00    +0.090 A 
ATOM     31  N   UNL     1       1.665  -3.653 -23.194  0.00  0.00    -0.243 NA
ATOM     32  C   UNL     1       2.915  -3.928 -23.495  0.00  0.00    +0.085 A 
ATOM     37  S   UNL     1       4.038  -3.420 -22.297  0.00  0.00    -0.069 S 
BRANCH   9   8
ATOM      1  C   UNL     1       4.855  -1.379 -18.689  0.00  0.00    +0.213 A 
ATOM      2  N   UNL     1       6.201  -1.099 -18.519  0.00  0.00    -0.328 N 
ATOM      3  H   UNL     1       6.546  -0.669 -17.602  0.00  0.00    +0.145 HD
ATOM      4  H   UNL     1       6.895  -1.313 -19.305  0.00  0.00    +0.145 HD
ATOM      5  N   UNL     1       4.012  -1.088 -17.672  0.00  0.00    -0.223 NA
ATOM      6  C   UNL     1       2.708  -1.371 -17.865  0.00  0.00    +0.116 A 
ATOM      7  C   UNL     1       2.208  -1.928 -19.020  0.00  0.00    +0.049 A 
ATOM      8  C   UNL     1       3.131  -2.184 -20.021  0.00  0.00    +0.085 A 
ATOM     38  N   UNL     1       4.453  -1.924 -19.865  0.00  0.00    -0.214 NA
ENDBRANCH   9   8
BRANCH  32  33
ATOM     33  C   UNL     1       3.358  -4.625 -24.782  0.00  0.00    +0.011 C 
ATOM     34  C   UNL     1       4.841  -5.035 -24.730  0.00  0.00    +0.018 C 
ATOM     35  C   UNL     1       2.534  -5.916 -24.976  0.00  0.00    +0.018 C 
ATOM     36  C   UNL     1       3.111  -3.712 -25.997  0.00  0.00    +0.018 C 
ENDBRANCH  32  33
ENDBRANCH  11  10
BRANCH  15  16
ATOM     16  N   UNL     1      -2.939  -4.430 -20.841  0.00  0.00    -0.213 N 
ATOM     17  H   UNL     1      -2.750  -4.862 -19.881  0.00  0.00    +0.174 HD
BRANCH  16  18
ATOM     18  S   UNL     1      -4.635  -4.209 -20.945  0.00  0.00    +0.078 S 
ATOM     19  O   UNL     1      -5.266  -5.497 -21.163  0.00  0.00    -0.150 OA
ATOM     20  O   UNL     1      -4.959  -3.126 -21.852  0.00  0.00    -0.150 OA
BRANCH  18  21
ATOM     21  C   UNL     1      -5.065  -3.771 -19.280  0.00  0.00    +0.178 A 
ATOM     22  C   UNL     1      -4.879  -4.733 -18.289  0.00  0.00    +0.153 A 
ATOM     23  F   UNL     1      -4.380  -5.935 -18.606  0.00  0.00    -0.203 F 
ATOM     24  C   UNL     1      -5.202  -4.468 -16.960  0.00  0.00    +0.040 A 
ATOM     25  C   UNL     1      -5.721  -3.220 -16.614  0.00  0.00    +0.006 A 
ATOM     26  C   UNL     1      -5.913  -2.250 -17.601  0.00  0.00    +0.040 A 
ATOM     27  C   UNL     1      -5.584  -2.525 -18.928  0.00  0.00    +0.153 A 
ATOM     28  F   UNL     1      -5.786  -1.565 -19.836  0.00  0.00    -0.203 F 
ENDBRANCH  18  21
ENDBRANCH  16  18
ENDBRANCH  15  16
TORSDOF 6
