REMARK  Name = 4k18_ligand
REMARK  6 active torsions:
REMARK  status: ('A' for Active; 'I' for Inactive)
REMARK    1  A    between atoms: C3_3  and  C28_28
REMARK    2  A    between atoms: C6_6  and  C7_7
REMARK    3  A    between atoms: C7_7  and  C8_8
REMARK    4  A    between atoms: C10_10  and  O27_27
REMARK    5  A    between atoms: C14_14  and  C17_17
REMARK    6  A    between atoms: N19_19  and  C20_20
REMARK                            x       y       z     vdW  Elec       q    Type
REMARK                         _______ _______ _______ _____ _____    ______ ____
ROOT
ATOM      4  C   UNL     1     -18.104 -32.924   3.745  0.00  0.00    +0.028 A 
ATOM      5  N   UNL     1     -18.292 -33.707   2.694  0.00  0.00    -0.286 NA
ATOM      6  C   UNL     1     -17.691 -33.438   1.531  0.00  0.00    +0.168 A 
ATOM      7  C   UNL     1     -17.700 -34.076   0.285  0.00  0.00    +0.071 A 
ATOM     19  C   UNL     1     -16.883 -33.342  -0.585  0.00  0.00    +0.066 A 
ATOM     20  N   UNL     1     -16.385 -32.333   0.078  0.00  0.00    -0.207 NA
ATOM     21  N   UNL     1     -16.872 -32.363   1.389  0.00  0.00    -0.099 N 
ATOM     22  C   UNL     1     -16.664 -31.548   2.451  0.00  0.00    +0.277 A 
ATOM     25  C   UNL     1     -17.283 -31.804   3.644  0.00  0.00    +0.086 A 
ENDROOT
BRANCH   7   8
ATOM      8  C   UNL     1     -18.485 -35.251  -0.038  0.00  0.00    +0.196 C 
ATOM      9  N   UNL     1     -19.261 -35.731   0.963  0.00  0.00    -0.243 N 
ATOM     10  H   UNL     1     -19.200 -35.242   1.833  0.00  0.00    +0.222 HD
ATOM     18  O   UNL     1     -18.442 -35.696  -1.171  0.00  0.00    -0.400 OA
BRANCH   9  11
ATOM     11  C   UNL     1     -20.138 -36.823   0.939  0.00  0.00    +0.061 A 
ATOM     12  C   UNL     1     -20.507 -37.477  -0.231  0.00  0.00    +0.006 A 
ATOM     13  C   UNL     1     -21.379 -38.550  -0.176  0.00  0.00    +0.015 A 
ATOM     14  C   UNL     1     -21.895 -38.958   1.041  0.00  0.00    +0.116 A 
ATOM     15  F   UNL     1     -22.745 -40.003   1.083  0.00  0.00    -0.196 F 
ATOM     16  C   UNL     1     -21.539 -38.310   2.212  0.00  0.00    +0.015 A 
ATOM     17  C   UNL     1     -20.664 -37.243   2.157  0.00  0.00    +0.006 A 
ENDBRANCH   9  11
ENDBRANCH   7   8
BRANCH  22  23
ATOM     23  O   UNL     1     -15.866 -30.481   2.277  0.00  0.00    -0.271 OA
ATOM     24  H   UNL     1     -16.230 -29.921   1.602  0.00  0.00    +0.270 HD
ENDBRANCH  22  23
BRANCH   4   3
ATOM      3  C   UNL     1     -18.785 -33.196   5.064  0.00  0.00    +0.168 C 
BRANCH   3   2
ATOM      1  C   UNL     1     -18.174 -35.613   5.268  0.00  0.00    +0.013 A 
ATOM      2  C   UNL     1     -19.157 -34.641   5.279  0.00  0.00    -0.018 A 
ATOM     26  C   UNL     1     -20.475 -34.998   5.514  0.00  0.00    +0.013 A 
ATOM     27  C   UNL     1     -20.823 -36.323   5.726  0.00  0.00    +0.037 A 
ATOM     28  C   UNL     1     -19.830 -37.308   5.708  0.00  0.00    +0.089 A 
ATOM     31  C   UNL     1     -18.500 -36.944   5.471  0.00  0.00    +0.037 A 
BRANCH  28  29
ATOM     29  C   UNL     1     -20.168 -38.677   5.925  0.00  0.00    +0.094 C 
ATOM     30  N   UNL     1     -20.428 -39.768   6.096  0.00  0.00    -0.334 NA
ENDBRANCH  28  29
ENDBRANCH   3   2
ENDBRANCH   4   3
TORSDOF 6
