REMARK  Name = 3l08_ligand
REMARK  7 active torsions:
REMARK  status: ('A' for Active; 'I' for Inactive)
REMARK    1  A    between atoms: C1_1  and  O33_33
REMARK    2  A    between atoms: C15_15  and  C21_21
REMARK    3  A    between atoms: C17_17  and  C18_18
REMARK    4  A    between atoms: C20_20  and  S36_36
REMARK    5  A    between atoms: C23_23  and  N30_30
REMARK    6  A    between atoms: C25_25  and  O33_33
REMARK    7  A    between atoms: N30_30  and  S36_36
REMARK                            x       y       z     vdW  Elec       q    Type
REMARK                         _______ _______ _______ _____ _____    ______ ____
ROOT
ATOM      3  C   UNL     1      28.289  13.521  21.081  0.00  0.00    +0.186 A 
ATOM      4  N   UNL     1      28.119  13.150  22.349  0.00  0.00    -0.290 NA
ATOM      5  C   UNL     1      26.867  13.266  22.788  0.00  0.00    +0.055 A 
ATOM      6  C   UNL     1      25.794  13.719  22.057  0.00  0.00    -0.017 A 
ATOM     23  C   UNL     1      26.013  14.092  20.749  0.00  0.00    +0.029 A 
ATOM     24  C   UNL     1      27.296  13.997  20.265  0.00  0.00    +0.122 A 
ENDROOT
BRANCH   6   7
ATOM      7  C   UNL     1      24.488  13.734  22.657  0.00  0.00    -0.016 A 
ATOM      8  C   UNL     1      23.542  14.715  22.462  0.00  0.00    +0.026 A 
ATOM      9  C   UNL     1      22.297  14.619  23.051  0.00  0.00    +0.017 A 
ATOM     10  C   UNL     1      21.968  13.531  23.837  0.00  0.00    +0.049 A 
ATOM     11  N   UNL     1      20.781  13.373  24.426  0.00  0.00    -0.293 NA
ATOM     12  C   UNL     1      19.887  14.334  24.222  0.00  0.00    +0.099 A 
ATOM     13  C   UNL     1      20.121  15.445  23.458  0.00  0.00    +0.053 A 
ATOM     14  C   UNL     1      22.923  12.564  24.021  0.00  0.00    +0.027 A 
ATOM     15  C   UNL     1      21.345  15.599  22.854  0.00  0.00    +0.025 A 
ATOM     22  C   UNL     1      24.162  12.662  23.447  0.00  0.00    +0.017 A 
BRANCH  15  16
ATOM     16  C   UNL     1      21.543  16.783  22.063  0.00  0.00    +0.046 A 
ATOM     17  C   UNL     1      22.574  17.660  22.264  0.00  0.00    +0.159 A 
ATOM     18  N   UNL     1      22.797  18.791  21.589  0.00  0.00    -0.227 NA
ATOM     19  N   UNL     1      22.003  19.108  20.672  0.00  0.00    -0.231 NA
ATOM     20  C   UNL     1      20.972  18.298  20.416  0.00  0.00    +0.143 A 
ATOM     21  C   UNL     1      20.674  17.129  21.065  0.00  0.00    +0.087 A 
ENDBRANCH  15  16
ENDBRANCH   6   7
BRANCH   3   2
ATOM      1  C   UNL     1      29.856  12.053  20.547  0.00  0.00    +0.234 C 
ATOM      2  O   UNL     1      29.559  13.438  20.548  0.00  0.00    -0.309 OA
ENDBRANCH   3   2
BRANCH  24  25
ATOM     25  N   UNL     1      27.641  14.351  18.925  0.00  0.00    -0.183 N 
ATOM     26  H   UNL     1      28.395  13.881  18.424  0.00  0.00    +0.215 HD
BRANCH  25  27
ATOM     27  S   UNL     1      26.726  15.602  18.202  0.00  0.00    +0.088 S 
ATOM     28  O   UNL     1      25.316  15.291  18.289  0.00  0.00    -0.146 OA
ATOM     29  O   UNL     1      27.353  15.977  16.949  0.00  0.00    -0.146 OA
BRANCH  27  30
ATOM     30  C   UNL     1      27.057  16.946  19.295  0.00  0.00    +0.143 A 
ATOM     31  C   UNL     1      26.016  17.753  19.675  0.00  0.00    +0.158 A 
ATOM     32  F   UNL     1      24.782  17.503  19.215  0.00  0.00    -0.182 F 
ATOM     33  C   UNL     1      26.246  18.808  20.524  0.00  0.00    +0.066 A 
ATOM     34  C   UNL     1      27.531  19.024  20.967  0.00  0.00    +0.131 A 
ATOM     35  F   UNL     1      27.772  20.050  21.796  0.00  0.00    -0.185 F 
ATOM     36  C   UNL     1      28.574  18.213  20.581  0.00  0.00    +0.027 A 
ATOM     37  C   UNL     1      28.343  17.154  19.731  0.00  0.00    +0.024 A 
ENDBRANCH  27  30
ENDBRANCH  25  27
ENDBRANCH  24  25
TORSDOF 6
