REMARK  Name = 5LWN
REMARK  9 active torsions:
REMARK  status: ('A' for Active; 'I' for Inactive)
REMARK    1  A    between atoms: C_1  and  C_21
REMARK    2  A    between atoms: N_5  and  C_27
REMARK    3  A    between atoms: C_11  and  C_12
REMARK    4  A    between atoms: C_12  and  C_13
REMARK    5  A    between atoms: C_12  and  C_18
REMARK    6  A    between atoms: N_15  and  C_16
REMARK    7  A    between atoms: N_15  and  C_17
REMARK    8  A    between atoms: C_18  and  C_19
REMARK    9  A    between atoms: C_28  and  C_29
REMARK                            x       y       z     vdW  Elec       q    Type
REMARK                         _______ _______ _______ _____ _____    ______ ____
ROOT
ATOM      1  C   UNL     1      19.312  24.785  26.584  0.00  0.00    +0.178 C 
ATOM     16  N   UNL     1      20.524  24.258  26.633  0.00  0.00    -0.223 NA
ATOM     17  C   UNL     1      20.429  23.255  27.580  0.00  0.00    +0.109 C 
ATOM     18  C   UNL     1      19.136  23.182  28.106  0.00  0.00    +0.082 C 
ATOM     19  C   UNL     1      18.850  22.172  29.044  0.00  0.00    +0.046 C 
ATOM     20  C   UNL     1      19.939  21.312  29.352  0.00  0.00    +0.162 C 
ATOM     21  N   UNL     1      21.193  21.383  28.843  0.00  0.00    -0.234 NA
ATOM     22  N   UNL     1      19.470  20.393  30.244  0.00  0.00    -0.236 NA
ATOM     23  C   UNL     1      18.140  20.630  30.507  0.00  0.00    +0.114 C 
ATOM     24  C   UNL     1      17.717  21.709  29.806  0.00  0.00    +0.033 C 
ATOM     25  C   UNL     1      21.417  22.366  27.974  0.00  0.00    +0.143 C 
ATOM     26  N   UNL     1      18.432  24.183  27.456  0.00  0.00    -0.317 NA
ENDROOT
BRANCH  26  27
ATOM     27  C   UNL     1      16.995  24.412  27.676  0.00  0.00    +0.092 C 
ATOM     28  C   UNL     1      16.520  25.826  27.399  0.00  0.00    +0.025 C 
ATOM     29  C   UNL     1      15.064  25.934  27.843  0.00  0.00    +0.002 C 
ATOM     30  C   UNL     1      14.202  24.913  27.126  0.00  0.00    +0.000 C 
ATOM     31  C   UNL     1      14.725  23.498  27.328  0.00  0.00    +0.005 C 
ATOM     32  C   UNL     1      16.189  23.359  26.920  0.00  0.00    +0.009 C 
ATOM     33  C   UNL     1      16.341  23.462  25.409  0.00  0.00    +0.009 C 
ENDBRANCH  26  27
BRANCH   1   2
ATOM      2  C   UNL     1      19.086  25.859  25.638  0.00  0.00    +0.170 A 
ATOM      3  O   UNL     1      18.131  25.697  24.642  0.00  0.00    -0.457 OA
ATOM      4  C   UNL     1      18.327  26.744  23.752  0.00  0.00    +0.108 A 
ATOM     14  C   UNL     1      19.298  27.552  24.206  0.00  0.00    +0.045 A 
ATOM     15  C   UNL     1      19.793  26.995  25.403  0.00  0.00    +0.053 A 
BRANCH   4   5
ATOM      5  C   UNL     1      17.574  26.677  22.460  0.00  0.00    +0.102 C 
BRANCH   5   6
ATOM      6  C   UNL     1      17.446  28.112  21.911  0.00  0.00    +0.184 C 
BRANCH   6   7
ATOM      7  C   UNL     1      16.889  29.029  22.996  0.00  0.00    +0.233 C 
ATOM      8  N   UNL     1      16.973  30.358  22.814  0.00  0.00    -0.306 N 
ATOM      9  C   UNL     1      16.499  31.351  23.773  0.00  0.00    +0.131 C 
ATOM     10  C   UNL     1      17.538  30.904  21.582  0.00  0.00    +0.131 C 
ATOM     11  O   UNL     1      16.353  28.550  23.977  0.00  0.00    -0.274 OA
ENDBRANCH   6   7
BRANCH   6  12
ATOM     12  C   UNL     1      16.469  28.169  20.862  0.00  0.00    +0.076 C 
ATOM     13  N   UNL     1      15.696  28.260  20.033  0.00  0.00    -0.196 NA
ENDBRANCH   6  12
ENDBRANCH   5   6
ENDBRANCH   4   5
ENDBRANCH   1   2
TORSDOF 6
