REMARK  Name = 15E
REMARK  0 active torsions:
REMARK  status: ('A' for Active; 'I' for Inactive)
REMARK                            x       y       z     vdW  Elec       q    Type
REMARK                         _______ _______ _______ _____ _____    ______ ____
ROOT
ATOM      1  O   UNL     1      32.214  18.299   0.058  0.00  0.00    -0.250 OA
ATOM      2  C   UNL     1      31.103  17.698   0.015  0.00  0.00    +0.328 C 
ATOM      3  N   UNL     1      29.993  18.153   0.647  0.00  0.00    -0.257 N 
ATOM      4  C   UNL     1      30.035  19.340   1.512  0.00  0.00    +0.117 C 
ATOM      5  C   UNL     1      28.746  17.274   0.757  0.00  0.00    +0.123 C 
ATOM      6  C   UNL     1      28.549  16.404  -0.364  0.00  0.00    +0.014 A 
ATOM      7  C   UNL     1      27.297  15.889  -0.734  0.00  0.00    +0.005 A 
ATOM      8  C   UNL     1      27.160  15.039  -1.835  0.00  0.00    +0.034 A 
ATOM      9 BR   UNL     1      25.425  14.331  -2.322  0.00  0.00    -0.049 Br
ATOM     10  C   UNL     1      28.290  14.618  -2.511  0.00  0.00    +0.008 A 
ATOM     11  C   UNL     1      29.528  15.069  -2.134  0.00  0.00    +0.017 A 
ATOM     12  C   UNL     1      29.677  15.976  -1.064  0.00  0.00    +0.073 A 
ATOM     13  N   UNL     1      30.951  16.460  -0.694  0.00  0.00    -0.163 NA
ENDROOT
TORSDOF 0
