REMARK  Name = 4Q1A
REMARK  14 active torsions:
REMARK  status: ('A' for Active; 'I' for Inactive)
REMARK    1  A    between atoms: O_1  and  C_2
REMARK    2  A    between atoms: C_2  and  C_3
REMARK    3  A    between atoms: C_3  and  O_4
REMARK    4  A    between atoms: O_4  and  C_5
REMARK    5  A    between atoms: C_7  and  O_8
REMARK    6  A    between atoms: O_8  and  C_9
REMARK    7  A    between atoms: C_12  and  C_13
REMARK    8  A    between atoms: C_16  and  C_17
REMARK    9  A    between atoms: C_17  and  C_18
REMARK   10  A    between atoms: C_18  and  C_19
REMARK   11  A    between atoms: C_20  and  C_21
REMARK   12  A    between atoms: C_21  and  S_22
REMARK   13  A    between atoms: S_22  and  C_23
REMARK   14  A    between atoms: C_29  and  N_30
REMARK                            x       y       z     vdW  Elec       q    Type
REMARK                         _______ _______ _______ _____ _____    ______ ____
ROOT
ATOM     11  C   UNL     1     -33.041  12.464  -4.291  0.00  0.00    +0.109 A 
ATOM     12  S   UNL     1     -32.403  13.404  -5.459  0.00  0.00    -0.072 S 
ATOM     13  C   UNL     1     -30.837  13.277  -4.825  0.00  0.00    +0.014 A 
ATOM     14  C   UNL     1     -30.868  12.490  -3.758  0.00  0.00    +0.063 A 
ATOM     32  N   UNL     1     -32.098  12.085  -3.459  0.00  0.00    -0.243 NA
ENDROOT
BRANCH  11  10
ATOM      6  C   UNL     1     -35.927  10.795  -2.927  0.00  0.00    +0.163 A 
ATOM      7  C   UNL     1     -36.964  11.497  -3.502  0.00  0.00    +0.162 A 
ATOM      8  C   UNL     1     -36.699  12.546  -4.373  0.00  0.00    +0.050 A 
ATOM      9  C   UNL     1     -35.366  12.862  -4.638  0.00  0.00    +0.014 A 
ATOM     10  C   UNL     1     -34.313  12.131  -4.073  0.00  0.00    +0.011 A 
ATOM     35  C   UNL     1     -34.593  11.106  -3.180  0.00  0.00    +0.060 A 
BRANCH   7  33
ATOM     33  O   UNL     1     -38.206  11.074  -3.137  0.00  0.00    -0.491 OA
ATOM     34  C   UNL     1     -39.240  11.123  -4.139  0.00  0.00    +0.277 C 
ENDBRANCH   7  33
BRANCH   6   5
ATOM      5  O   UNL     1     -36.345   9.813  -2.103  0.00  0.00    -0.486 OA
BRANCH   5   4
ATOM      4  C   UNL     1     -35.507   8.715  -1.818  0.00  0.00    +0.257 C 
BRANCH   4   3
ATOM      3  C   UNL     1     -36.537   7.635  -1.670  0.00  0.00    +0.197 C 
BRANCH   3   1
ATOM      1  O   UNL     1     -36.032   6.770  -0.708  0.00  0.00    -0.392 OA
ATOM      2  H   UNL     1     -35.113   6.381  -1.034  0.00  0.00    +0.209 HD
ENDBRANCH   3   1
ENDBRANCH   4   3
ENDBRANCH   5   4
ENDBRANCH   6   5
ENDBRANCH  11  10
BRANCH  14  15
ATOM     15  C   UNL     1     -29.692  12.148  -2.853  0.00  0.00    +0.133 C 
BRANCH  15  16
ATOM     16  S   UNL     1     -28.780  10.626  -3.312  0.00  0.00    -0.080 S 
BRANCH  16  17
ATOM     17  C   UNL     1     -27.101  11.137  -3.690  0.00  0.00    +0.192 A 
ATOM     18  N   UNL     1     -26.717  12.415  -3.768  0.00  0.00    -0.207 NA
ATOM     19  C   UNL     1     -25.448  12.747  -4.066  0.00  0.00    +0.122 A 
ATOM     20  C   UNL     1     -24.508  11.731  -4.273  0.00  0.00    +0.086 A 
ATOM     21  C   UNL     1     -24.936  10.407  -4.182  0.00  0.00    +0.122 A 
ATOM     25  N   UNL     1     -25.095  14.037  -4.113  0.00  0.00    -0.343 N 
ATOM     26  H   UNL     1     -24.087  14.308  -4.349  0.00  0.00    +0.144 HD
ATOM     27  H   UNL     1     -25.821  14.798  -3.914  0.00  0.00    +0.144 HD
ATOM     28  N   UNL     1     -26.217  10.154  -3.909  0.00  0.00    -0.207 NA
BRANCH  21  22
ATOM     22  N   UNL     1     -24.127   9.374  -4.381  0.00  0.00    -0.343 N 
ATOM     23  H   UNL     1     -23.093   9.539  -4.602  0.00  0.00    +0.144 HD
ATOM     24  H   UNL     1     -24.509   8.376  -4.320  0.00  0.00    +0.144 HD
ENDBRANCH  21  22
ENDBRANCH  16  17
ENDBRANCH  15  16
ENDBRANCH  14  15
BRANCH  13  29
ATOM     29  C   UNL     1     -29.590  13.891  -5.388  0.00  0.00    +0.044 C 
BRANCH  29  30
ATOM     30  C   UNL     1     -29.831  15.374  -5.371  0.00  0.00    +0.002 C 
ATOM     31  C   UNL     1     -28.777  16.042  -4.459  0.00  0.00    +0.004 C 
ENDBRANCH  29  30
ENDBRANCH  13  29
TORSDOF 12
