REMARK  Name = A3F
REMARK  5 active torsions:
REMARK  status: ('A' for Active; 'I' for Inactive)
REMARK    1  A    between atoms: OAO_15  and  CAW_23
REMARK    2  A    between atoms: OAP_16  and  CAX_24
REMARK    3  A    between atoms: OAQ_17  and  CAZ_26
REMARK    4  A    between atoms: CAT_20  and  CAU_21
REMARK    5  A    between atoms: CAV_22  and  CAY_25
REMARK                            x       y       z     vdW  Elec       q    Type
REMARK                         _______ _______ _______ _____ _____    ______ ____
ROOT
ATOM     12  C   UNL     1      10.902  10.701 -20.496  0.00  0.00    +0.035 A 
ATOM     13  C   UNL     1       9.704  11.335 -20.998  0.00  0.00    +0.170 A 
ATOM     14  N   UNL     1       8.907  12.260 -20.199  0.00  0.00    -0.107 NA
ATOM     15  N   UNL     1       9.292  11.093 -22.254  0.00  0.00    -0.226 NA
ATOM     16  C   UNL     1       9.960  10.259 -23.065  0.00  0.00    +0.100 A 
ATOM     17  C   UNL     1      11.140   9.589 -22.626  0.00  0.00    +0.019 A 
ATOM     25  C   UNL     1      11.599   9.843 -21.319  0.00  0.00    +0.004 A 
ENDROOT
BRANCH  17  18
ATOM     18  C   UNL     1      11.815   8.759 -23.486  0.00  0.00    +0.005 A 
ATOM     19  C   UNL     1      13.229   8.810 -23.569  0.00  0.00    +0.042 A 
ATOM     20  C   UNL     1      13.912   8.003 -24.456  0.00  0.00    +0.196 A 
ATOM     21  O   UNL     1      15.314   8.059 -24.539  0.00  0.00    -0.287 OA
ATOM     22  C   UNL     1      13.181   7.094 -25.306  0.00  0.00    +0.042 A 
ATOM     23  C   UNL     1      11.851   7.049 -25.237  0.00  0.00    +0.003 A 
ATOM     24  C   UNL     1      11.135   7.897 -24.309  0.00  0.00    +0.000 A 
ENDBRANCH  17  18
BRANCH  12  11
ATOM      3  C   UNL     1      13.257  11.498 -17.724  0.00  0.00    +0.175 A 
ATOM      4  C   UNL     1      12.396  11.341 -16.620  0.00  0.00    +0.206 A 
ATOM      7  C   UNL     1      11.011  10.982 -16.787  0.00  0.00    +0.175 A 
ATOM     10  C   UNL     1      10.510  10.758 -18.117  0.00  0.00    +0.040 A 
ATOM     11  C   UNL     1      11.357  10.913 -19.224  0.00  0.00    +0.009 A 
ATOM     26  C   UNL     1      12.759  11.290 -19.017  0.00  0.00    +0.040 A 
BRANCH   3   2
ATOM      1  C   UNL     1      15.553  11.561 -18.443  0.00  0.00    +0.253 C 
ATOM      2  O   UNL     1      14.516  11.839 -17.495  0.00  0.00    -0.468 OA
ENDBRANCH   3   2
BRANCH   4   5
ATOM      5  O   UNL     1      12.915  11.559 -15.317  0.00  0.00    -0.465 OA
ATOM      6  C   UNL     1      12.614  12.710 -14.707  0.00  0.00    +0.253 C 
ENDBRANCH   4   5
BRANCH   7   8
ATOM      8  O   UNL     1      10.212  10.851 -15.644  0.00  0.00    -0.468 OA
ATOM      9  C   UNL     1       8.869  10.500 -15.739  0.00  0.00    +0.253 C 
ENDBRANCH   7   8
ENDBRANCH  12  11
TORSDOF 5
