REMARK  Name = 5B3
REMARK  4 active torsions:
REMARK  status: ('A' for Active; 'I' for Inactive)
REMARK    1  A    between atoms: N1_6  and  C2_10
REMARK    2  A    between atoms: N1_6  and  S1_11
REMARK    3  A    between atoms: C5_7  and  S1_11
REMARK    4  A    between atoms: C8_14  and  C11_15
REMARK                            x       y       z     vdW  Elec       q    Type
REMARK                         _______ _______ _______ _____ _____    ______ ____
ROOT
ATOM      9  C   UNL     1      31.270  35.655  38.851  0.00  0.00    +0.124 A 
ATOM     10  C   UNL     1      31.467  36.869  39.525  0.00  0.00    +0.020 A 
ATOM     11  C   UNL     1      32.244  37.861  38.918  0.00  0.00    +0.001 A 
ATOM     12  C   UNL     1      32.860  37.625  37.663  0.00  0.00    +0.000 A 
ATOM     13  C   UNL     1      32.636  36.398  37.006  0.00  0.00    +0.001 A 
ATOM     24  C   UNL     1      31.848  35.409  37.603  0.00  0.00    +0.020 A 
ENDROOT
BRANCH  12  14
ATOM     14  C   UNL     1      33.639  38.662  36.979  0.00  0.00    +0.000 A 
ATOM     15  C   UNL     1      33.098  39.966  37.008  0.00  0.00    +0.004 A 
ATOM     16  C   UNL     1      33.758  41.015  36.333  0.00  0.00    +0.056 A 
ATOM     17  C   UNL     1      33.539  42.405  36.131  0.00  0.00    +0.192 A 
ATOM     18  N   UNL     1      32.456  43.088  36.558  0.00  0.00    -0.105 NA
ATOM     19  N   UNL     1      34.507  42.943  35.384  0.00  0.00    -0.130 NA
ATOM     20  N   UNL     1      35.336  41.921  35.109  0.00  0.00    -0.147 NA
ATOM     21  C   UNL     1      34.942  40.720  35.653  0.00  0.00    +0.106 A 
ATOM     22  C   UNL     1      35.506  39.437  35.579  0.00  0.00    +0.021 A 
ATOM     23  C   UNL     1      34.829  38.408  36.258  0.00  0.00    +0.002 A 
ENDBRANCH  12  14
BRANCH   9   2
ATOM      1  O   UNL     1      30.008  33.383  38.569  0.00  0.00    -0.152 OA
ATOM      2  S   UNL     1      30.276  34.375  39.591  0.00  0.00    +0.077 S 
ATOM      8  O   UNL     1      29.158  35.005  40.263  0.00  0.00    -0.152 OA
BRANCH   2   3
ATOM      3  N   UNL     1      31.382  33.913  40.795  0.00  0.00    -0.081 NA
BRANCH   3   4
ATOM      4  C   UNL     1      32.537  32.969  40.735  0.00  0.00    +0.083 C 
ATOM      5  C   UNL     1      32.248  31.699  41.540  0.00  0.00    +0.019 C 
ATOM      6  C   UNL     1      33.746  33.692  41.314  0.00  0.00    +0.019 C 
ATOM      7  C   UNL     1      32.911  32.576  39.299  0.00  0.00    +0.019 C 
ENDBRANCH   3   4
ENDBRANCH   2   3
ENDBRANCH   9   2
TORSDOF 4
