REMARK  Name = 5CF8
REMARK  8 active torsions:
REMARK  status: ('A' for Active; 'I' for Inactive)
REMARK    1  A    between atoms: N_1  and  C_3
REMARK    2  A    between atoms: C_2  and  C_4
REMARK    3  A    between atoms: C_3  and  C_5
REMARK    4  A    between atoms: C_6  and  N_24
REMARK    5  A    between atoms: C_7  and  N_24
REMARK    6  A    between atoms: C_11  and  N_23
REMARK    7  A    between atoms: C_28  and  C_31
REMARK    8  A    between atoms: N_29  and  C_32
REMARK                            x       y       z     vdW  Elec       q    Type
REMARK                         _______ _______ _______ _____ _____    ______ ____
ROOT
ATOM      1  N   UNL     1      -1.653  46.852   0.709  0.00  0.00    -0.321 N 
ATOM      2  C   UNL     1      -2.755  46.112   1.044  0.00  0.00    +0.145 A 
ATOM      3  N   UNL     1      -2.840  45.393   2.169  0.00  0.00    -0.212 NA
ATOM      4  C   UNL     1      -3.962  44.694   2.366  0.00  0.00    +0.154 A 
ATOM      5  N   UNL     1      -4.129  44.043   3.568  0.00  0.00    -0.281 N 
ATOM      6  H   UNL     1      -5.026  43.472   3.684  0.00  0.00    +0.155 HD
ATOM      7  C   UNL     1      -3.247  44.052   4.650  0.00  0.00    +0.146 A 
ATOM      8  N   UNL     1      -2.053  44.620   4.837  0.00  0.00    -0.156 NA
ATOM      9  N   UNL     1      -1.790  44.389   6.170  0.00  0.00    -0.270 N 
ATOM     10  C   UNL     1      -0.528  44.851   6.747  0.00  0.00    +0.172 C 
ATOM     11  C   UNL     1      -2.786  43.716   6.772  0.00  0.00    +0.038 A 
ATOM     12  C   UNL     1      -2.783  43.392   8.227  0.00  0.00    +0.065 C 
ATOM     13  C   UNL     1      -3.715  43.458   5.815  0.00  0.00    +0.068 A 
ATOM     14  C   UNL     1      -4.993  44.699   1.399  0.00  0.00    +0.130 A 
ATOM     15  N   UNL     1      -6.214  44.043   1.410  0.00  0.00    -0.232 NA
ATOM     16  C   UNL     1      -6.779  44.413   0.281  0.00  0.00    +0.200 A 
ATOM     17  N   UNL     1      -6.028  45.267  -0.468  0.00  0.00    -0.333 N 
ATOM     18  C   UNL     1      -6.382  45.832  -1.763  0.00  0.00    +0.150 C 
ATOM     19  C   UNL     1      -4.864  45.467   0.241  0.00  0.00    +0.083 A 
ATOM     20  C   UNL     1      -3.691  46.211   0.004  0.00  0.00    +0.045 A 
ATOM     21  C   UNL     1      -3.120  47.057  -0.985  0.00  0.00    +0.044 A 
ATOM     24  C   UNL     1      -1.880  47.435  -0.534  0.00  0.00    +0.107 A 
ENDROOT
BRANCH  24  25
ATOM     25  C   UNL     1      -0.901  48.350  -1.157  0.00  0.00    +0.264 C 
ATOM     26  O   UNL     1      -0.285  49.118  -0.428  0.00  0.00    -0.268 OA
ATOM     27  N   UNL     1      -0.789  48.390  -2.501  0.00  0.00    -0.290 N 
BRANCH  27  28
ATOM     28  C   UNL     1      -1.149  47.270  -3.408  0.00  0.00    +0.077 C 
ATOM     29  C   UNL     1      -0.050  46.593  -4.151  0.00  0.00    +0.024 C 
ATOM     30  C   UNL     1      -0.769  45.874  -3.058  0.00  0.00    +0.024 C 
ENDBRANCH  27  28
BRANCH  27  31
ATOM     31  C   UNL     1      -0.105  49.552  -3.117  0.00  0.00    +0.077 C 
ATOM     32  C   UNL     1      -0.554  50.929  -2.771  0.00  0.00    +0.024 C 
ATOM     33  C   UNL     1      -0.850  50.362  -4.119  0.00  0.00    +0.024 C 
ENDBRANCH  27  31
ENDBRANCH  24  25
BRANCH   1  22
ATOM     22  C   UNL     1      -0.428  46.880   1.526  0.00  0.00    +0.121 C 
ATOM     23  C   UNL     1       0.461  45.711   1.151  0.00  0.00    +0.027 C 
ENDBRANCH   1  22
TORSDOF 4
