REMARK  Name = 5AR5
REMARK  11 active torsions:
REMARK  status: ('A' for Active; 'I' for Inactive)
REMARK    1  A    between atoms: C_1  and  O_2
REMARK    2  A    between atoms: O_2  and  C_3
REMARK    3  A    between atoms: C_3  and  C_4
REMARK    4  A    between atoms: C_4  and  N_5
REMARK    5  A    between atoms: C_6  and  C_8
REMARK    6  A    between atoms: N_12  and  C_13
REMARK    7  A    between atoms: C_13  and  C_14
REMARK    8  A    between atoms: C_14  and  O_15
REMARK    9  A    between atoms: O_15  and  C_16
REMARK   10  A    between atoms: C_17  and  C_21
REMARK   11  A    between atoms: C_24  and  C_26
REMARK                            x       y       z     vdW  Elec       q    Type
REMARK                         _______ _______ _______ _____ _____    ______ ____
ROOT
ATOM      8  C   UNL     1     -67.595  20.403  -8.804  0.00  0.00    +0.039 A 
ATOM      9  C   UNL     1     -67.209  19.083  -8.733  0.00  0.00    +0.043 A 
ATOM     10  C   UNL     1     -65.958  18.781  -8.230  0.00  0.00    +0.090 A 
ATOM     11  N   UNL     1     -65.359  17.563  -8.063  0.00  0.00    -0.226 NA
ATOM     12  C   UNL     1     -64.180  17.841  -7.554  0.00  0.00    +0.160 A 
ATOM     26  N   UNL     1     -63.971  19.198  -7.377  0.00  0.00    -0.320 N 
ATOM     31  C   UNL     1     -65.120  19.802  -7.817  0.00  0.00    +0.069 A 
ATOM     32  C   UNL     1     -65.507  21.122  -7.889  0.00  0.00    +0.029 A 
ATOM     33  C   UNL     1     -66.757  21.418  -8.388  0.00  0.00    +0.015 A 
ENDROOT
BRANCH  12  13
ATOM     13  C   UNL     1     -63.219  16.795  -7.259  0.00  0.00    +0.102 A 
ATOM     14  N   UNL     1     -62.394  16.815  -6.171  0.00  0.00    -0.336 N 
ATOM     15  H   UNL     1     -62.337  17.579  -5.424  0.00  0.00    +0.168 HD
ATOM     16  C   UNL     1     -61.655  15.666  -6.224  0.00  0.00    +0.139 A 
ATOM     24  N   UNL     1     -61.968  14.940  -7.280  0.00  0.00    -0.235 NA
ATOM     25  C   UNL     1     -62.947  15.636  -7.944  0.00  0.00    +0.142 A 
BRANCH  16  17
ATOM     17  C   UNL     1     -60.667  15.262  -5.201  0.00  0.00    +0.017 A 
ATOM     18  C   UNL     1     -60.581  15.939  -3.996  0.00  0.00    +0.013 A 
ATOM     19  C   UNL     1     -59.687  15.531  -3.027  0.00  0.00    +0.021 A 
ATOM     20  C   UNL     1     -58.880  14.436  -3.261  0.00  0.00    +0.041 A 
ATOM     21 CL   UNL     1     -57.758  13.890  -2.050  0.00  0.00    -0.084 Cl
ATOM     22  C   UNL     1     -58.956  13.762  -4.464  0.00  0.00    +0.021 A 
ATOM     23  C   UNL     1     -59.849  14.173  -5.428  0.00  0.00    +0.013 A 
ENDBRANCH  16  17
ENDBRANCH  12  13
BRANCH   8   7
ATOM      5  N   UNL     1     -69.949  19.957  -8.920  0.00  0.00    -0.309 N 
ATOM      6  H   UNL     1     -69.712  19.023  -8.455  0.00  0.00    +0.149 HD
ATOM      7  C   UNL     1     -68.956  20.746  -9.349  0.00  0.00    +0.244 C 
ATOM     34  O   UNL     1     -69.117  21.681 -10.120  0.00  0.00    -0.270 OA
BRANCH   5   4
ATOM      4  C   UNL     1     -71.334  20.340  -9.071  0.00  0.00    +0.132 C 
BRANCH   4   3
ATOM      3  C   UNL     1     -72.009  20.526  -7.727  0.00  0.00    +0.178 C 
BRANCH   3   2
ATOM      1  C   UNL     1     -73.410  19.531  -6.182  0.00  0.00    +0.193 C 
ATOM      2  O   UNL     1     -72.680  19.318  -7.384  0.00  0.00    -0.381 OA
ENDBRANCH   3   2
ENDBRANCH   4   3
ENDBRANCH   5   4
ENDBRANCH   8   7
BRANCH  26  27
ATOM     27  C   UNL     1     -62.837  19.919  -6.839  0.00  0.00    +0.152 C 
BRANCH  27  28
ATOM     28  C   UNL     1     -62.854  19.914  -5.326  0.00  0.00    +0.181 C 
BRANCH  28  29
ATOM     29  O   UNL     1     -61.712  20.581  -4.800  0.00  0.00    -0.381 OA
ATOM     30  C   UNL     1     -60.666  19.632  -4.587  0.00  0.00    +0.193 C 
ENDBRANCH  28  29
ENDBRANCH  27  28
ENDBRANCH  26  27
TORSDOF 9
