REMARK  Name = 5T1S
REMARK  11 active torsions:
REMARK  status: ('A' for Active; 'I' for Inactive)
REMARK    1  A    between atoms: C_3  and  C_11
REMARK    2  A    between atoms: C_4  and  C_12
REMARK    3  A    between atoms: C_8  and  C_13
REMARK    4  A    between atoms: C_12  and  C_21
REMARK    5  A    between atoms: C_15  and  C_19
REMARK    6  A    between atoms: C_17  and  C_20
REMARK    7  A    between atoms: C_21  and  C_22
REMARK    8  A    between atoms: C_22  and  C_23
REMARK    9  A    between atoms: C_23  and  N_24
REMARK   10  A    between atoms: N_24  and  C_25
REMARK   11  A    between atoms: C_29  and  O_31
REMARK                            x       y       z     vdW  Elec       q    Type
REMARK                         _______ _______ _______ _____ _____    ______ ____
ROOT
ATOM      1  N   UNL     1      31.199   4.575  -7.890  0.00  0.00    -0.254 NA
ATOM      2  C   UNL     1      31.634   5.653  -8.608  0.00  0.00    +0.071 A 
ATOM      3  C   UNL     1      32.490   5.412  -9.709  0.00  0.00    +0.029 A 
ATOM      4  C   UNL     1      32.890   6.424 -10.533  0.00  0.00    +0.010 A 
ATOM      5  C   UNL     1      32.512   7.751 -10.314  0.00  0.00    -0.016 A 
ATOM     14  C   UNL     1      31.662   8.023  -9.230  0.00  0.00    +0.019 A 
ATOM     15  C   UNL     1      31.219   6.983  -8.339  0.00  0.00    +0.005 A 
ATOM     16  C   UNL     1      30.376   7.235  -7.182  0.00  0.00    -0.029 A 
ATOM     24  C   UNL     1      29.961   6.009  -6.364  0.00  0.00    +0.004 A 
ATOM     33  C   UNL     1      30.441   4.801  -6.843  0.00  0.00    +0.120 A 
ENDROOT
BRANCH  24  25
ATOM     25  C   UNL     1      29.063   6.008  -5.168  0.00  0.00    -0.016 A 
ATOM     26  C   UNL     1      29.396   5.339  -3.985  0.00  0.00    +0.012 A 
ATOM     27  C   UNL     1      28.560   5.372  -2.868  0.00  0.00    -0.050 A 
ATOM     28  C   UNL     1      28.981   4.784  -1.550  0.00  0.00    +0.044 C 
ATOM     29  C   UNL     1      27.336   5.985  -2.986  0.00  0.00    +0.006 A 
ATOM     30  C   UNL     1      26.932   6.590  -4.153  0.00  0.00    -0.050 A 
ATOM     31  C   UNL     1      25.594   7.265  -4.230  0.00  0.00    +0.044 C 
ATOM     32  C   UNL     1      27.783   6.548  -5.252  0.00  0.00    +0.012 A 
ENDBRANCH  24  25
BRANCH   5   6
ATOM      6  C   UNL     1      33.011   8.853 -11.201  0.00  0.00    +0.004 A 
ATOM      7  C   UNL     1      34.285   8.788 -11.778  0.00  0.00    +0.057 A 
ATOM      8  C   UNL     1      34.722   9.811 -12.612  0.00  0.00    +0.135 A 
ATOM     11  C   UNL     1      33.860  10.884 -12.834  0.00  0.00    +0.156 A 
ATOM     12  N   UNL     1      32.637  10.966 -12.299  0.00  0.00    -0.259 NA
ATOM     13  C   UNL     1      32.235   9.964 -11.510  0.00  0.00    +0.119 A 
BRANCH   8   9
ATOM      9  O   UNL     1      35.976   9.775 -13.172  0.00  0.00    -0.505 OA
ATOM     10  H   UNL     1      35.894   9.805 -14.218  0.00  0.00    +0.292 HD
ENDBRANCH   8   9
ENDBRANCH   5   6
BRANCH  16  17
ATOM     17  C   UNL     1      29.967   8.686  -6.898  0.00  0.00    +0.036 C 
BRANCH  17  18
ATOM     18  C   UNL     1      29.693   8.955  -5.428  0.00  0.00    +0.006 C 
BRANCH  18  19
ATOM     19  C   UNL     1      30.161  10.228  -4.809  0.00  0.00    +0.015 C 
BRANCH  19  20
ATOM     20  C   UNL     1      29.041  11.211  -4.562  0.00  0.00    +0.080 C 
BRANCH  20  21
ATOM     21  N   UNL     1      27.921  10.529  -3.844  0.00  0.00    -0.319 NA
ATOM     22  H   UNL     1      28.333   9.983  -3.021  0.00  0.00    +0.122 HD
ATOM     23  C   UNL     1      26.898  11.442  -3.325  0.00  0.00    +0.101 C 
ENDBRANCH  20  21
ENDBRANCH  19  20
ENDBRANCH  18  19
ENDBRANCH  17  18
ENDBRANCH  16  17
TORSDOF 8
