REMARK  Name = 5NKF
REMARK  16 active torsions:
REMARK  status: ('A' for Active; 'I' for Inactive)
REMARK    1  A    between atoms: C_6  and  N_7
REMARK    2  A    between atoms: C_8  and  O_9
REMARK    3  A    between atoms: C_8  and  C_10
REMARK    4  A    between atoms: C_13  and  C_14
REMARK    5  A    between atoms: C_19  and  N_20
REMARK    6  A    between atoms: C_25  and  C_26
REMARK    7  A    between atoms: N_28  and  C_29
REMARK    8  A    between atoms: C_35  and  C_36
REMARK    9  A    between atoms: C_42  and  N_43
REMARK   10  A    between atoms: C_44  and  O_45
REMARK   11  A    between atoms: C_44  and  C_46
REMARK   12  A    between atoms: C_49  and  C_50
REMARK   13  A    between atoms: C_55  and  N_56
REMARK   14  A    between atoms: C_61  and  C_62
REMARK   15  A    between atoms: N_64  and  C_65
REMARK   16  A    between atoms: C_71  and  C_72
REMARK                            x       y       z     vdW  Elec       q    Type
REMARK                         _______ _______ _______ _____ _____    ______ ____
ROOT
ATOM      5  C   UNL     1     -95.793 -17.460  43.468  0.00  0.00    +0.038 A 
ATOM      6  C   UNL     1     -95.492 -17.468  44.792  0.00  0.00    +0.022 A 
ATOM      7  C   UNL     1     -96.463 -17.353  45.779  0.00  0.00    +0.020 A 
ATOM      8  C   UNL     1     -97.792 -17.256  45.346  0.00  0.00    +0.032 A 
ATOM      9  C   UNL     1     -98.141 -17.247  44.014  0.00  0.00    +0.034 A 
ATOM     32  C   UNL     1     -97.124 -17.317  43.072  0.00  0.00    +0.036 A 
ENDROOT
BRANCH   9  10
ATOM     10  N   UNL     1     -99.414 -17.169  43.589  0.00  0.00    -0.294 N 
ATOM     11  H   UNL     1     -99.602 -16.665  42.664  0.00  0.00    +0.154 HD
ATOM     12  C   UNL     1    -100.471 -17.684  44.251  0.00  0.00    +0.163 A 
ATOM     13  N   UNL     1    -101.697 -17.612  43.737  0.00  0.00    -0.232 NA
ATOM     14  C   UNL     1    -102.638 -18.188  44.541  0.00  0.00    +0.133 A 
ATOM     15  C   UNL     1    -102.195 -18.738  45.699  0.00  0.00    +0.095 A 
ATOM     28  S   UNL     1    -100.508 -18.503  45.760  0.00  0.00    -0.048 S 
BRANCH  15  16
ATOM     16  C   UNL     1    -102.851 -19.397  46.772  0.00  0.00    +0.256 C 
ATOM     17  N   UNL     1    -104.140 -19.766  46.666  0.00  0.00    -0.280 N 
ATOM     18  H   UNL     1    -104.661 -19.585  45.749  0.00  0.00    +0.155 HD
ATOM     27  O   UNL     1    -102.228 -19.650  47.768  0.00  0.00    -0.269 OA
BRANCH  17  19
ATOM     19  C   UNL     1    -104.819 -20.383  47.730  0.00  0.00    +0.055 A 
ATOM     20  C   UNL     1    -105.332 -19.522  48.754  0.00  0.00    -0.028 A 
ATOM     21  C   UNL     1    -105.137 -18.003  48.780  0.00  0.00    +0.046 C 
ATOM     22  C   UNL     1    -106.052 -20.179  49.779  0.00  0.00    +0.005 A 
ATOM     23  C   UNL     1    -106.236 -21.553  49.773  0.00  0.00    +0.002 A 
ATOM     24  C   UNL     1    -105.756 -22.368  48.751  0.00  0.00    +0.022 A 
ATOM     25  C   UNL     1    -105.057 -21.771  47.716  0.00  0.00    +0.062 A 
ATOM     26 CL   UNL     1    -104.438 -22.683  46.527  0.00  0.00    -0.082 Cl
ENDBRANCH  17  19
ENDBRANCH  15  16
ENDBRANCH   9  10
BRANCH   7  29
ATOM     29  C   UNL     1     -96.092 -17.410  47.250  0.00  0.00    +0.372 C 
ATOM     30  F   UNL     1     -96.612 -18.499  47.700  0.00  0.00    -0.204 F 
ATOM     31  F   UNL     1     -94.951 -17.548  47.422  0.00  0.00    -0.204 F 
ENDBRANCH   7  29
BRANCH   5   4
ATOM      3  N   UNL     1     -94.465 -16.829  41.759  0.00  0.00    -0.247 NA
ATOM      4  C   UNL     1     -94.762 -17.655  42.553  0.00  0.00    +0.215 C 
BRANCH   3   2
ATOM      1  C   UNL     1     -93.123 -15.985  40.607  0.00  0.00    +0.042 C 
ATOM      2  C   UNL     1     -94.246 -15.515  41.680  0.00  0.00    +0.111 C 
ATOM     35  C   UNL     1     -93.635 -14.928  42.832  0.00  0.00    +0.042 C 
ATOM     36  C   UNL     1     -92.681 -14.002  42.485  0.00  0.00    +0.083 C 
ATOM     37  N   UNL     1     -91.534 -14.573  41.817  0.00  0.00    -0.316 NA
ATOM     38  H   UNL     1     -91.225 -13.893  41.051  0.00  0.00    +0.122 HD
ATOM     39  C   UNL     1     -91.769 -15.928  41.176  0.00  0.00    +0.083 C 
ENDBRANCH   3   2
BRANCH   4  33
ATOM     33  O   UNL     1     -94.448 -18.761  42.224  0.00  0.00    -0.492 OA
ATOM     34  H   UNL     1     -94.923 -19.006  41.320  0.00  0.00    +0.294 HD
ENDBRANCH   4  33
ENDBRANCH   5   4
TORSDOF 7
