REMARK  Name = 799
REMARK  5 active torsions:
REMARK  status: ('A' for Active; 'I' for Inactive)
REMARK    1  A    between atoms: C2_1  and  C4_2
REMARK    2  A    between atoms: C4_2  and  N7_17
REMARK    3  A    between atoms: C12_6  and  C9_18
REMARK    4  A    between atoms: C32_12  and  N31_34
REMARK    5  A    between atoms: C20_25  and  C26_29
REMARK                            x       y       z     vdW  Elec       q    Type
REMARK                         _______ _______ _______ _____ _____    ______ ____
ROOT
ATOM     10  C   UNL     1      38.154  16.487  34.046  0.00  0.00    +0.006 A 
ATOM     11  C   UNL     1      38.319  15.106  33.825  0.00  0.00    +0.000 A 
ATOM     12  C   UNL     1      37.249  14.327  33.379  0.00  0.00    +0.006 A 
ATOM     13  C   UNL     1      35.976  14.874  33.137  0.00  0.00    +0.068 A 
ATOM     14  C   UNL     1      35.817  16.258  33.376  0.00  0.00    +0.141 A 
ATOM     15  O   UNL     1      34.641  16.862  33.142  0.00  0.00    -0.473 OA
ATOM     16  C   UNL     1      33.425  16.422  33.724  0.00  0.00    +0.230 C 
ATOM     17  C   UNL     1      32.767  15.445  32.764  0.00  0.00    +0.155 C 
ATOM     18  N   UNL     1      33.536  14.238  32.503  0.00  0.00    -0.306 N 
ATOM     19  C   UNL     1      32.947  13.087  32.029  0.00  0.00    +0.098 A 
ATOM     20  C   UNL     1      33.916  12.128  31.869  0.00  0.00    +0.146 A 
ATOM     21  N   UNL     1      35.080  12.698  32.258  0.00  0.00    -0.225 NA
ATOM     31  C   UNL     1      34.896  13.971  32.644  0.00  0.00    +0.147 A 
ATOM     32  C   UNL     1      36.880  17.046  33.819  0.00  0.00    +0.037 A 
ENDROOT
BRANCH  20  22
ATOM     22  C   UNL     1      33.686  10.760  31.377  0.00  0.00    +0.355 C 
ATOM     23  N   UNL     1      34.626   9.809  31.116  0.00  0.00    -0.040 NA
ATOM     27  N   UNL     1      33.949   8.643  30.675  0.00  0.00    +0.060 NA
ATOM     28  C   UNL     1      32.674   8.947  30.686  0.00  0.00    +0.356 C 
ATOM     29  C   UNL     1      31.609   7.970  30.285  0.00  0.00    +0.136 C 
ATOM     30  N   UNL     1      32.484  10.227  31.102  0.00  0.00    -0.041 NA
BRANCH  23  24
ATOM     24  C   UNL     1      36.075   9.892  31.265  0.00  0.00    +0.106 C 
ATOM     25  C   UNL     1      36.480   8.812  32.280  0.00  0.00    +0.021 C 
ATOM     26  C   UNL     1      36.759   9.580  29.923  0.00  0.00    +0.021 C 
ENDBRANCH  23  24
ENDBRANCH  20  22
BRANCH  10   9
ATOM      6  N   UNL     1      41.264  17.946  35.392  0.00  0.00    -0.245 N 
ATOM      7  N   UNL     1      40.500  19.111  35.124  0.00  0.00    -0.167 NA
ATOM      8  C   UNL     1      39.322  18.738  34.620  0.00  0.00    +0.122 A 
ATOM      9  C   UNL     1      39.288  17.315  34.541  0.00  0.00    +0.040 A 
ATOM     33  C   UNL     1      40.501  16.858  35.034  0.00  0.00    +0.097 A 
BRANCH   6   4
ATOM      4  C   UNL     1      42.622  17.942  35.980  0.00  0.00    +0.158 C 
ATOM      5  C   UNL     1      42.780  16.800  36.989  0.00  0.00    +0.034 C 
ATOM     34  C   UNL     1      43.741  17.776  34.949  0.00  0.00    +0.034 C 
BRANCH   4   1
ATOM      1  C   UNL     1      42.764  19.238  36.739  0.00  0.00    +0.281 C 
ATOM      2  N   UNL     1      41.820  19.577  37.661  0.00  0.00    -0.086 NA
ATOM      3  O   UNL     1      43.714  19.992  36.533  0.00  0.00    -0.270 OA
ENDBRANCH   4   1
ENDBRANCH   6   4
ENDBRANCH  10   9
TORSDOF 5
