REMARK  Name = 9Z2
REMARK  3 active torsions:
REMARK  status: ('A' for Active; 'I' for Inactive)
REMARK    1  A    between atoms: C_7  and  C1_8
REMARK    2  A    between atoms: N_9  and  C3_10
REMARK    3  A    between atoms: C8_12  and  C9_13
REMARK                            x       y       z     vdW  Elec       q    Type
REMARK                         _______ _______ _______ _____ _____    ______ ____
ROOT
ATOM      6  C   UNL     1       0.574  -8.508  28.063  0.00  0.00    +0.036 A 
ATOM      7  C   UNL     1       0.700  -7.230  28.551  0.00  0.00    +0.004 A 
ATOM      8  C   UNL     1       1.847  -6.492  28.395  0.00  0.00    +0.017 A 
ATOM      9  C   UNL     1       2.920  -7.068  27.741  0.00  0.00    +0.073 A 
ATOM     15  C   UNL     1       2.819  -8.389  27.228  0.00  0.00    +0.017 A 
ATOM     16  C   UNL     1       1.633  -9.123  27.382  0.00  0.00    +0.004 A 
ENDROOT
BRANCH   6   2
ATOM      1  N   UNL     1      -1.247 -10.176  27.721  0.00  0.00    -0.225 NA
ATOM      2  C   UNL     1      -0.749  -9.093  28.367  0.00  0.00    +0.162 A 
ATOM      3  N   UNL     1      -1.440  -8.495  29.389  0.00  0.00    -0.225 NA
ATOM      4  C   UNL     1      -2.662  -8.935  29.765  0.00  0.00    +0.102 A 
ATOM      5  C   UNL     1      -3.203 -10.043  29.087  0.00  0.00    +0.041 A 
ATOM     17  C   UNL     1      -2.464 -10.652  28.049  0.00  0.00    +0.102 A 
ENDBRANCH   6   2
BRANCH   9  10
ATOM     10  N   UNL     1       3.982  -6.232  27.679  0.00  0.00    -0.179 NA
ATOM     11  C   UNL     1       5.145  -6.499  27.126  0.00  0.00    +0.246 C 
ATOM     14  O   UNL     1       5.406  -7.531  26.595  0.00  0.00    -0.273 OA
BRANCH  11  12
ATOM     12  C   UNL     1       6.204  -5.457  27.119  0.00  0.00    +0.087 C 
ATOM     13  C   UNL     1       5.523  -4.112  26.931  0.00  0.00    +0.010 C 
ENDBRANCH  11  12
ENDBRANCH   9  10
TORSDOF 3
