REMARK  Name = 3FKL
REMARK  6 active torsions:
REMARK  status: ('A' for Active; 'I' for Inactive)
REMARK    1  A    between atoms: C_10  and  C_20
REMARK    2  A    between atoms: C_11  and  C_18
REMARK    3  A    between atoms: C_12  and  N_16
REMARK    4  A    between atoms: C_21  and  C_22
REMARK    5  A    between atoms: N_24  and  C_25
REMARK    6  A    between atoms: N_27  and  C_28
REMARK                            x       y       z     vdW  Elec       q    Type
REMARK                         _______ _______ _______ _____ _____    ______ ____
ROOT
ATOM      1  N   UNL     1      22.557   7.034  30.197  0.00  0.00    -0.330 N 
ATOM      2  H   UNL     1      22.742   5.998  30.004  0.00  0.00    +0.168 HD
ATOM      3  C   UNL     1      23.543   7.810  30.716  0.00  0.00    +0.226 A 
ATOM      4  N   UNL     1      24.762   7.277  30.989  0.00  0.00    -0.247 NA
ATOM     11  N   UNL     1      23.316   9.121  30.983  0.00  0.00    -0.194 NA
ATOM     12  C   UNL     1      22.119   9.681  30.727  0.00  0.00    +0.148 A 
ATOM     13  N   UNL     1      21.913  11.051  31.003  0.00  0.00    -0.295 N 
ATOM     14  C   UNL     1      23.002  11.856  31.575  0.00  0.00    +0.154 C 
ATOM     15  C   UNL     1      20.652  11.624  30.736  0.00  0.00    +0.260 C 
ATOM     16  O   UNL     1      20.468  12.838  30.983  0.00  0.00    -0.267 OA
ATOM     17  C   UNL     1      19.626  10.836  30.203  0.00  0.00    +0.048 C 
ATOM     32  C   UNL     1      19.849   9.478  29.928  0.00  0.00    +0.026 C 
ATOM     33  C   UNL     1      21.097   8.905  30.192  0.00  0.00    +0.034 A 
ATOM     34  C   UNL     1      21.349   7.559  29.924  0.00  0.00    +0.097 A 
ENDROOT
BRANCH  17  18
ATOM     18  C   UNL     1      18.291  11.447  29.910  0.00  0.00    -0.009 A 
ATOM     19  C   UNL     1      17.167  11.199  30.702  0.00  0.00    -0.043 A 
ATOM     20  C   UNL     1      15.943  11.794  30.386  0.00  0.00    +0.005 A 
ATOM     21  C   UNL     1      15.827  12.638  29.280  0.00  0.00    +0.013 A 
ATOM     22  C   UNL     1      16.946  12.887  28.486  0.00  0.00    +0.037 A 
ATOM     30  C   UNL     1      17.243  10.288  31.906  0.00  0.00    +0.044 C 
ATOM     31  C   UNL     1      18.170  12.294  28.805  0.00  0.00    +0.022 A 
BRANCH  22  23
ATOM     23  C   UNL     1      16.891  13.785  27.281  0.00  0.00    +0.244 C 
ATOM     24  N   UNL     1      15.950  14.739  27.166  0.00  0.00    -0.309 N 
ATOM     25  H   UNL     1      15.224  14.832  27.946  0.00  0.00    +0.149 HD
ATOM     29  O   UNL     1      17.735  13.583  26.419  0.00  0.00    -0.270 OA
BRANCH  24  26
ATOM     26  C   UNL     1      15.868  15.660  26.024  0.00  0.00    +0.073 C 
ATOM     27  C   UNL     1      15.410  14.869  24.803  0.00  0.00    +0.024 C 
ATOM     28  C   UNL     1      14.415  15.733  25.566  0.00  0.00    +0.024 C 
ENDBRANCH  24  26
ENDBRANCH  22  23
ENDBRANCH  17  18
BRANCH   4   5
ATOM      5  C   UNL     1      25.831   8.112  31.523  0.00  0.00    +0.113 C 
ATOM      6  C   UNL     1      26.471   8.789  30.312  0.00  0.00    +0.055 C 
ATOM      7  C   UNL     1      27.788   9.458  30.710  0.00  0.00    +0.162 C 
ATOM      8  O   UNL     1      28.653   8.506  31.331  0.00  0.00    -0.380 OA
ATOM      9  C   UNL     1      28.108   7.930  32.524  0.00  0.00    +0.162 C 
ATOM     10  C   UNL     1      26.838   7.156  32.173  0.00  0.00    +0.055 C 
ENDBRANCH   4   5
TORSDOF 4
