REMARK  Name = 3l13_ligand
REMARK  8 active torsions:
REMARK  status: ('A' for Active; 'I' for Inactive)
REMARK    1  A    between atoms: C2_5  and  C12_23
REMARK    2  A    between atoms: S2_8  and  N5_16
REMARK    3  A    between atoms: S2_8  and  C17_28
REMARK    4  A    between atoms: N3_10  and  C6_17
REMARK    5  A    between atoms: N4_13  and  C12_23
REMARK    6  A    between atoms: O4_14  and  C23_34
REMARK    7  A    between atoms: C5_15  and  C7_18
REMARK    8  A    between atoms: C21_32  and  C23_34
REMARK                            x       y       z     vdW  Elec       q    Type
REMARK                         _______ _______ _______ _____ _____    ______ ____
ROOT
ATOM      1  C   UNL     1      22.758  64.939  20.994  0.00  0.00    -0.015 A 
ATOM      2  C   UNL     1      23.037  63.670  21.272  0.00  0.00    +0.028 A 
ATOM      3  C   UNL     1      22.036  62.985  21.830  0.00  0.00    +0.099 A 
ATOM      4  C   UNL     1      22.145  61.677  22.179  0.00  0.00    +0.136 A 
ATOM     11  N   UNL     1      23.303  61.068  21.959  0.00  0.00    -0.268 NA
ATOM     12  C   UNL     1      24.417  61.748  21.356  0.00  0.00    +0.086 A 
ATOM     22  S   UNL     1      20.681  63.949  22.001  0.00  0.00    -0.016 S 
ATOM     23  N   UNL     1      24.227  63.136  21.020  0.00  0.00    -0.304 NA
ATOM     24  C   UNL     1      21.504  65.230  21.321  0.00  0.00    +0.009 A 
ENDROOT
BRANCH   4   5
ATOM      5  N   UNL     1      21.196  60.926  22.758  0.00  0.00    -0.285 N 
ATOM      6  C   UNL     1      21.615  59.743  23.516  0.00  0.00    +0.164 C 
ATOM      7  C   UNL     1      20.797  59.691  24.790  0.00  0.00    +0.184 C 
ATOM      8  O   UNL     1      19.415  59.732  24.477  0.00  0.00    -0.376 OA
ATOM      9  C   UNL     1      19.072  60.951  23.837  0.00  0.00    +0.184 C 
ATOM     10  C   UNL     1      19.759  60.961  22.481  0.00  0.00    +0.164 C 
ENDBRANCH   4   5
BRANCH  12  13
ATOM     13  C   UNL     1      25.694  61.051  21.160  0.00  0.00    +0.004 A 
ATOM     14  C   UNL     1      25.954  59.937  21.946  0.00  0.00    +0.014 A 
ATOM     15  C   UNL     1      27.154  59.267  21.819  0.00  0.00    -0.014 A 
ATOM     19  C   UNL     1      28.099  59.717  20.909  0.00  0.00    +0.003 A 
ATOM     20  C   UNL     1      27.839  60.836  20.135  0.00  0.00    -0.004 A 
ATOM     21  C   UNL     1      26.641  61.514  20.266  0.00  0.00    +0.005 A 
BRANCH  15  16
ATOM     16  C   UNL     1      27.410  58.043  22.663  0.00  0.00    +0.223 C 
BRANCH  16  17
ATOM     17  O   UNL     1      27.765  58.415  23.981  0.00  0.00    -0.383 OA
ATOM     18  H   UNL     1      27.924  57.625  24.503  0.00  0.00    +0.213 HD
ENDBRANCH  16  17
ENDBRANCH  15  16
ENDBRANCH  12  13
BRANCH  24  25
ATOM     25  C   UNL     1      20.930  66.619  21.169  0.00  0.00    -0.003 C 
BRANCH  25  26
ATOM     26  N   UNL     1      20.078  66.929  20.039  0.00  0.00    +0.413 NA
ATOM     27  C   UNL     1      19.005  66.042  19.652  0.00  0.00    -0.084 C 
ATOM     28  C   UNL     1      19.041  66.201  18.146  0.00  0.00    +0.103 C 
ATOM     29  N   UNL     1      18.665  67.569  17.849  0.00  0.00    -0.243 NA
ATOM     30  C   UNL     1      19.543  68.616  18.373  0.00  0.00    +0.103 C 
ATOM     35  C   UNL     1      19.785  68.345  19.859  0.00  0.00    -0.084 C 
BRANCH  29  31
ATOM     31  S   UNL     1      17.851  67.728  16.559  0.00  0.00    +0.038 S 
ATOM     32  C   UNL     1      17.758  69.302  15.998  0.00  0.00    +0.218 C 
ATOM     33  O   UNL     1      16.518  67.233  16.800  0.00  0.00    -0.156 OA
ATOM     34  O   UNL     1      18.457  66.896  15.548  0.00  0.00    -0.156 OA
ENDBRANCH  29  31
ENDBRANCH  25  26
ENDBRANCH  24  25
TORSDOF 7
