REMARK  Name = 3gfw_ligand
REMARK  12 active torsions:
REMARK  status: ('A' for Active; 'I' for Inactive)
REMARK    1  A    between atoms: CAV_3  and  OAY_4
REMARK    2  A    between atoms: NAS_7  and  CAN_8
REMARK    3  A    between atoms: CAP_10  and  OAQ_11
REMARK    4  A    between atoms: OAQ_11  and  CAR_12
REMARK    5  A    between atoms: CAK_15  and  NAJ_16
REMARK    6  A    between atoms: NAJ_16  and  CAA_17
REMARK    7  A    between atoms: CAC_25  and  NAZ_26
REMARK    8  A    between atoms: NAZ_26  and  CBA_27
REMARK    9  A    between atoms: CBB_32  and  SBG_33
REMARK   10  A    between atoms: SBG_33  and  CBJ_36
REMARK   11  A    between atoms: CBJ_36  and  CBL_37
REMARK   12  A    between atoms: CBJ_36  and  CBK_38
REMARK                            x       y       z     vdW  Elec       q    Type
REMARK                         _______ _______ _______ _____ _____    ______ ____
ROOT
ATOM      9  C   UNL     1       0.384  18.287  44.789  0.00  0.00    +0.094 A 
ATOM     10  N   UNL     1       0.531  19.616  44.566  0.00  0.00    -0.294 NA
ATOM     11  C   UNL     1       1.255  20.103  43.544  0.00  0.00    +0.106 A 
ATOM     12  C   UNL     1       1.906  19.238  42.668  0.00  0.00    +0.013 A 
ATOM     13  C   UNL     1       1.795  17.871  42.865  0.00  0.00    +0.060 A 
ATOM     28  C   UNL     1       2.532  19.974  41.758  0.00  0.00    -0.040 A 
ATOM     29  C   UNL     1       2.297  21.254  42.062  0.00  0.00    +0.101 A 
ATOM     30  N   UNL     1       1.505  21.339  43.139  0.00  0.00    -0.279 N 
ATOM     31  H   UNL     1       1.159  22.197  43.568  0.00  0.00    +0.227 HD
ATOM     32  C   UNL     1       1.018  17.395  43.930  0.00  0.00    +0.034 A 
ENDROOT
BRANCH   9   7
ATOM      7  N   UNL     1      -0.375  17.906  45.854  0.00  0.00    -0.278 N 
ATOM      8  H   UNL     1      -0.693  18.649  46.476  0.00  0.00    +0.205 HD
BRANCH   7   6
ATOM      3  C   UNL     1      -1.527  14.058  46.859  0.00  0.00    +0.020 A 
ATOM      4  C   UNL     1      -1.429  14.423  45.522  0.00  0.00    -0.025 A 
ATOM      5  C   UNL     1      -1.038  15.702  45.186  0.00  0.00    -0.011 A 
ATOM      6  C   UNL     1      -0.755  16.638  46.177  0.00  0.00    +0.078 A 
ATOM     33  C   UNL     1      -0.883  16.260  47.531  0.00  0.00    +0.104 A 
ATOM     36  C   UNL     1      -1.266  14.965  47.876  0.00  0.00    +0.016 A 
BRANCH   3   2
ATOM      1  C   UNL     1      -2.292  12.351  48.521  0.00  0.00    +0.129 C 
ATOM      2  N   UNL     1      -1.931  12.764  47.145  0.00  0.00    -0.317 N 
ATOM     37  C   UNL     1      -2.017  11.792  46.029  0.00  0.00    +0.129 C 
ATOM     38  C   UNL     1      -2.810  10.538  46.452  0.00  0.00    +0.054 C 
ATOM     39  C   UNL     1      -2.285   9.880  47.748  0.00  0.00    +0.118 C 
ATOM     42  C   UNL     1      -1.747  10.921  48.751  0.00  0.00    +0.054 C 
BRANCH  39  40
ATOM     40  O   UNL     1      -3.355   9.149  48.380  0.00  0.00    -0.392 OA
ATOM     41  H   UNL     1      -3.701   8.496  47.767  0.00  0.00    +0.210 HD
ENDBRANCH  39  40
ENDBRANCH   3   2
BRANCH  33  34
ATOM     34  O   UNL     1      -0.607  17.172  48.515  0.00  0.00    -0.328 OA
ATOM     35  C   UNL     1      -0.883  16.686  49.834  0.00  0.00    +0.229 C 
ENDBRANCH  33  34
ENDBRANCH   7   6
ENDBRANCH   9   7
BRANCH  13  14
ATOM     14  N   UNL     1       2.412  17.048  41.994  0.00  0.00    -0.270 N 
ATOM     15  H   UNL     1       2.710  17.429  41.096  0.00  0.00    +0.213 HD
BRANCH  14  16
ATOM     16  C   UNL     1       2.655  15.753  42.247  0.00  0.00    +0.086 A 
ATOM     17  C   UNL     1       2.590  14.776  41.241  0.00  0.00    +0.111 A 
ATOM     24  C   UNL     1       2.858  13.432  41.516  0.00  0.00    +0.014 A 
ATOM     25  C   UNL     1       3.195  13.058  42.804  0.00  0.00    -0.020 A 
ATOM     26  C   UNL     1       3.265  14.033  43.801  0.00  0.00    -0.013 A 
ATOM     27  C   UNL     1       3.011  15.376  43.533  0.00  0.00    +0.016 A 
BRANCH  17  18
ATOM     18  S   UNL     1       2.130  15.135  39.593  0.00  0.00    -0.003 S 
ATOM     22  O   UNL     1       2.530  16.544  39.242  0.00  0.00    -0.171 OA
ATOM     23  O   UNL     1       2.730  14.092  38.705  0.00  0.00    -0.171 OA
BRANCH  18  19
ATOM     19  C   UNL     1       0.342  14.939  39.450  0.00  0.00    +0.128 C 
ATOM     20  C   UNL     1      -0.290  15.799  40.506  0.00  0.00    +0.032 C 
ATOM     21  C   UNL     1      -0.042  13.467  39.630  0.00  0.00    +0.032 C 
ENDBRANCH  18  19
ENDBRANCH  17  18
ENDBRANCH  14  16
ENDBRANCH  13  14
TORSDOF 9
