REMARK  Name = 1w82_ligand
REMARK  7 active torsions:
REMARK  status: ('A' for Active; 'I' for Inactive)
REMARK    1  A    between atoms: C12_7  and  N11_8
REMARK    2  A    between atoms: N8_11  and  C7_12
REMARK    3  A    between atoms: N19_14  and  C21_21
REMARK    4  A    between atoms: C5_16  and  C2_17
REMARK    5  A    between atoms: C2_17  and  C4_18
REMARK    6  A    between atoms: C2_17  and  C3_19
REMARK    7  A    between atoms: C2_17  and  C1_20
REMARK                            x       y       z     vdW  Elec       q    Type
REMARK                         _______ _______ _______ _____ _____    ______ ____
ROOT
ATOM     11  C   UNL     1       7.609  15.452  37.844  0.00  0.00    +0.220 A 
ATOM     12  N   UNL     1       7.882  16.754  38.166  0.00  0.00    -0.103 N 
ATOM     19  N   UNL     1       7.784  16.843  39.549  0.00  0.00    -0.165 NA
ATOM     20  C   UNL     1       7.476  15.671  40.035  0.00  0.00    -0.002 A 
ATOM     25  C   UNL     1       7.380  14.773  38.988  0.00  0.00    +0.003 A 
ENDROOT
BRANCH  11   9
ATOM      6  N   UNL     1       7.284  13.423  34.849  0.00  0.00    -0.213 N 
ATOM      7  H   UNL     1       8.181  13.744  34.544  0.00  0.00    +0.227 HD
ATOM      8  C   UNL     1       6.891  13.889  36.064  0.00  0.00    +0.324 C 
ATOM      9  N   UNL     1       7.624  14.926  36.554  0.00  0.00    -0.179 N 
ATOM     10  H   UNL     1       8.250  15.364  35.909  0.00  0.00    +0.234 HD
ATOM     26  O   UNL     1       5.987  13.385  36.703  0.00  0.00    -0.379 OA
BRANCH   6   5
ATOM      1 CL   UNL     1       4.890   9.771  30.951  0.00  0.00    -0.085 Cl
ATOM      2  C   UNL     1       5.558  10.832  32.120  0.00  0.00    +0.024 A 
ATOM      3  C   UNL     1       4.718  11.449  33.030  0.00  0.00    -0.003 A 
ATOM      4  C   UNL     1       5.255  12.319  33.951  0.00  0.00    +0.010 A 
ATOM      5  C   UNL     1       6.628  12.562  33.957  0.00  0.00    +0.068 A 
ATOM     27  C   UNL     1       7.456  11.921  33.021  0.00  0.00    +0.010 A 
ATOM     28  C   UNL     1       6.922  11.056  32.107  0.00  0.00    -0.003 A 
ENDBRANCH   6   5
ENDBRANCH  11   9
BRANCH  12  13
ATOM     13  C   UNL     1       8.196  17.828  37.286  0.00  0.00    +0.129 A 
ATOM     14  C   UNL     1       9.236  18.702  37.571  0.00  0.00    +0.040 A 
ATOM     15  C   UNL     1       9.552  19.747  36.729  0.00  0.00    -0.002 A 
ATOM     16  C   UNL     1       8.834  19.935  35.566  0.00  0.00    -0.008 A 
ATOM     17  C   UNL     1       7.798  19.084  35.253  0.00  0.00    -0.002 A 
ATOM     18  C   UNL     1       7.482  18.047  36.106  0.00  0.00    +0.040 A 
ENDBRANCH  12  13
BRANCH  20  21
ATOM     21  C   UNL     1       7.291  15.314  41.489  0.00  0.00    -0.045 C 
ATOM     22  C   UNL     1       6.122  14.352  41.714  0.00  0.00    -0.045 C 
ATOM     23  C   UNL     1       8.589  14.627  41.922  0.00  0.00    -0.045 C 
ATOM     24  C   UNL     1       7.055  16.596  42.289  0.00  0.00    -0.045 C 
ENDBRANCH  20  21
TORSDOF 4
