REMARK  Name = 5WEV
REMARK  3 active torsions:
REMARK  status: ('A' for Active; 'I' for Inactive)
REMARK    1  A    between atoms: C_1  and  C_5
REMARK    2  A    between atoms: C_14  and  N_17
REMARK    3  A    between atoms: C_18  and  C_20
REMARK                            x       y       z     vdW  Elec       q    Type
REMARK                         _______ _______ _______ _____ _____    ______ ____
ROOT
ATOM      7  C   UNL     1      13.937 -24.381 -20.134  0.00  0.00    +0.142 A 
ATOM      8  N   UNL     1      12.653 -24.672 -19.959  0.00  0.00    -0.335 N 
ATOM      9  H   UNL     1      11.867 -23.948 -19.917  0.00  0.00    +0.168 HD
ATOM     10  C   UNL     1      12.472 -26.018 -19.840  0.00  0.00    +0.107 A 
ATOM     11  C   UNL     1      11.371 -26.904 -19.635  0.00  0.00    +0.151 A 
ATOM     19  N   UNL     1      11.628 -28.202 -19.554  0.00  0.00    -0.238 NA
ATOM     20  C   UNL     1      12.836 -28.751 -19.659  0.00  0.00    +0.115 A 
ATOM     21  C   UNL     1      13.946 -27.976 -19.873  0.00  0.00    +0.050 A 
ATOM     22  C   UNL     1      13.775 -26.591 -19.960  0.00  0.00    +0.094 A 
ATOM     23  N   UNL     1      14.658 -25.546 -20.142  0.00  0.00    -0.228 NA
ENDROOT
BRANCH   7   1
ATOM      1  C   UNL     1      14.516 -23.008 -20.276  0.00  0.00    +0.054 A 
ATOM      2  C   UNL     1      15.439 -22.488 -19.318  0.00  0.00    +0.053 A 
ATOM      3 CL   UNL     1      16.005 -23.379 -17.923  0.00  0.00    -0.083 Cl
ATOM      4  C   UNL     1      15.945 -21.200 -19.480  0.00  0.00    +0.021 A 
ATOM      5  C   UNL     1      15.562 -20.408 -20.556  0.00  0.00    +0.003 A 
ATOM      6  C   UNL     1      14.662 -20.896 -21.493  0.00  0.00    +0.021 A 
ATOM     24  C   UNL     1      14.142 -22.183 -21.357  0.00  0.00    +0.053 A 
ATOM     25 CL   UNL     1      13.032 -22.755 -22.556  0.00  0.00    -0.083 Cl
ENDBRANCH   7   1
BRANCH  11  12
ATOM     12  N   UNL     1      10.004 -26.590 -19.487  0.00  0.00    -0.269 N 
ATOM     13  H   UNL     1       9.472 -27.202 -18.789  0.00  0.00    +0.156 HD
ATOM     14  C   UNL     1       9.257 -25.626 -20.097  0.00  0.00    +0.221 C 
ATOM     18  O   UNL     1       9.762 -24.821 -20.851  0.00  0.00    -0.275 OA
BRANCH  14  15
ATOM     15  C   UNL     1       7.767 -25.566 -19.793  0.00  0.00    +0.075 C 
ATOM     16  C   UNL     1       7.060 -24.208 -19.710  0.00  0.00    +0.013 C 
ATOM     17  C   UNL     1       6.786 -25.138 -20.894  0.00  0.00    +0.013 C 
ENDBRANCH  14  15
ENDBRANCH  11  12
TORSDOF 3
