REMARK  Name = 3MPA
REMARK  6 active torsions:
REMARK  status: ('A' for Active; 'I' for Inactive)
REMARK    1  A    between atoms: O_1  and  S_3
REMARK    2  A    between atoms: C_2  and  S_3
REMARK    3  A    between atoms: S_3  and  C_6
REMARK    4  A    between atoms: C_9  and  C_17
REMARK    5  A    between atoms: C_13  and  C_20
REMARK    6  A    between atoms: C_19  and  C_26
REMARK                            x       y       z     vdW  Elec       q    Type
REMARK                         _______ _______ _______ _____ _____    ______ ____
ROOT
ATOM      8  C   UNL     1      -1.737  -1.716 -20.637  0.00  0.00    +0.139 A 
ATOM      9  N   UNL     1      -2.545  -1.753 -19.538  0.00  0.00    -0.337 N 
ATOM     10  H   UNL     1      -2.694  -2.563 -18.855  0.00  0.00    +0.167 HD
ATOM     11  C   UNL     1      -3.111  -0.532 -19.514  0.00  0.00    +0.074 A 
ATOM     19  C   UNL     1      -2.586   0.300 -20.633  0.00  0.00    +0.097 A 
ATOM     26  N   UNL     1      -1.747  -0.526 -21.273  0.00  0.00    -0.227 NA
ENDROOT
BRANCH  11  12
ATOM     12  C   UNL     1      -4.030  -0.152 -18.423  0.00  0.00    +0.001 A 
ATOM     13  C   UNL     1      -5.216   0.524 -18.712  0.00  0.00    +0.013 A 
ATOM     14  C   UNL     1      -6.043   0.916 -17.660  0.00  0.00    +0.039 A 
ATOM     15  C   UNL     1      -5.655   0.657 -16.348  0.00  0.00    +0.123 A 
ATOM     16  F   UNL     1      -6.418   1.048 -15.325  0.00  0.00    -0.205 F 
ATOM     17  C   UNL     1      -4.469  -0.002 -16.066  0.00  0.00    +0.039 A 
ATOM     18  C   UNL     1      -3.644  -0.393 -17.104  0.00  0.00    +0.013 A 
ENDBRANCH  11  12
BRANCH   8   7
ATOM      4  C   UNL     1       0.729  -5.001 -21.877  0.00  0.00    +0.023 A 
ATOM      5  C   UNL     1      -0.345  -5.255 -21.016  0.00  0.00    +0.017 A 
ATOM      6  C   UNL     1      -1.179  -4.216 -20.591  0.00  0.00    +0.012 A 
ATOM      7  C   UNL     1      -0.926  -2.912 -21.033  0.00  0.00    +0.017 A 
ATOM     27  C   UNL     1       0.153  -2.671 -21.883  0.00  0.00    +0.012 A 
ATOM     28  C   UNL     1       0.983  -3.704 -22.311  0.00  0.00    +0.017 A 
BRANCH   4   3
ATOM      3  S   UNL     1       1.809  -6.329 -22.467  0.00  0.00    -0.056 S 
ATOM     29  C   UNL     1       3.431  -6.130 -21.726  0.00  0.00    +0.108 C 
BRANCH   3   1
ATOM      1  O   UNL     1       2.062  -5.926 -24.207  0.00  0.00    -0.336 OA
ATOM      2  H   UNL     1       2.414  -4.940 -24.291  0.00  0.00    +0.227 HD
ENDBRANCH   3   1
ENDBRANCH   4   3
ENDBRANCH   8   7
BRANCH  19  20
ATOM     20  C   UNL     1      -2.816   1.721 -21.043  0.00  0.00    +0.005 A 
ATOM     21  C   UNL     1      -2.803   2.765 -20.113  0.00  0.00    +0.030 A 
ATOM     22  C   UNL     1      -2.956   4.078 -20.570  0.00  0.00    +0.111 A 
ATOM     23  N   UNL     1      -3.119   4.325 -21.891  0.00  0.00    -0.263 NA
ATOM     24  C   UNL     1      -3.137   3.351 -22.805  0.00  0.00    +0.111 A 
ATOM     25  C   UNL     1      -2.955   2.029 -22.403  0.00  0.00    +0.030 A 
ENDBRANCH  19  20
TORSDOF 5
