REMARK  Name = 5H0G
REMARK  13 active torsions:
REMARK  status: ('A' for Active; 'I' for Inactive)
REMARK    1  A    between atoms: C_6  and  N_12
REMARK    2  A    between atoms: N_7  and  C_11
REMARK    3  A    between atoms: C_9  and  C_10
REMARK    4  A    between atoms: C_15  and  N_18
REMARK    5  A    between atoms: N_18  and  C_19
REMARK    6  A    between atoms: C_19  and  C_32
REMARK    7  A    between atoms: C_19  and  C_35
REMARK    8  A    between atoms: C_22  and  O_25
REMARK    9  A    between atoms: O_25  and  C_26
REMARK   10  A    between atoms: N_34  and  C_39
REMARK   11  A    between atoms: C_35  and  C_36
REMARK   12  A    between atoms: C_36  and  C_37
REMARK   13  A    between atoms: C_36  and  C_38
REMARK                            x       y       z     vdW  Elec       q    Type
REMARK                         _______ _______ _______ _____ _____    ______ ____
ROOT
ATOM      1  N   UNL     1       5.338  -5.338  -2.552  0.00  0.00    -0.220 NA
ATOM      2  C   UNL     1       4.133  -4.707  -2.592  0.00  0.00    +0.129 A 
ATOM      6  C   UNL     1       3.838  -3.577  -1.805  0.00  0.00    +0.066 A 
ATOM      7  C   UNL     1       2.762  -2.634  -1.586  0.00  0.00    +0.012 A 
ATOM     21  C   UNL     1       3.229  -1.766  -0.641  0.00  0.00    +0.097 A 
ATOM     22  N   UNL     1       4.554  -2.058  -0.267  0.00  0.00    -0.328 N 
ATOM     41  C   UNL     1       4.940  -3.171  -0.974  0.00  0.00    +0.147 A 
ATOM     42  N   UNL     1       6.178  -3.761  -0.873  0.00  0.00    -0.218 NA
ATOM     43  C   UNL     1       6.298  -4.832  -1.689  0.00  0.00    +0.225 A 
ENDROOT
BRANCH   7   8
ATOM      8  C   UNL     1       1.419  -2.552  -2.077  0.00  0.00    -0.016 A 
ATOM      9  C   UNL     1       0.631  -3.709  -1.973  0.00  0.00    +0.012 A 
ATOM     10  C   UNL     1      -0.691  -3.762  -2.394  0.00  0.00    +0.047 A 
ATOM     11  C   UNL     1      -1.301  -2.629  -2.932  0.00  0.00    +0.129 A 
ATOM     19  C   UNL     1      -0.542  -1.460  -3.030  0.00  0.00    +0.047 A 
ATOM     20  C   UNL     1       0.786  -1.427  -2.594  0.00  0.00    +0.012 A 
BRANCH  11  12
ATOM     12  O   UNL     1      -2.630  -2.676  -3.316  0.00  0.00    -0.456 OA
BRANCH  12  13
ATOM     13  C   UNL     1      -3.104  -2.197  -4.503  0.00  0.00    +0.128 A 
ATOM     14  C   UNL     1      -4.391  -1.641  -4.548  0.00  0.00    +0.046 A 
ATOM     15  C   UNL     1      -4.878  -1.183  -5.766  0.00  0.00    +0.004 A 
ATOM     16  C   UNL     1      -4.107  -1.254  -6.917  0.00  0.00    +0.000 A 
ATOM     17  C   UNL     1      -2.834  -1.812  -6.871  0.00  0.00    +0.004 A 
ATOM     18  C   UNL     1      -2.332  -2.287  -5.676  0.00  0.00    +0.046 A 
ENDBRANCH  12  13
ENDBRANCH  11  12
ENDBRANCH   7   8
BRANCH  22  23
ATOM     23  C   UNL     1       5.392  -1.353   0.716  0.00  0.00    +0.089 C 
ATOM     24  C   UNL     1       4.692  -1.347   2.061  0.00  0.00    +0.027 C 
ATOM     25  C   UNL     1       5.440  -0.512   3.101  0.00  0.00    +0.020 C 
ATOM     26  C   UNL     1       5.607   0.932   2.638  0.00  0.00    +0.054 C 
ATOM     39  C   UNL     1       6.347   0.929   1.268  0.00  0.00    +0.020 C 
ATOM     40  C   UNL     1       5.583   0.074   0.222  0.00  0.00    +0.027 C 
BRANCH  26  27
ATOM     27  N   UNL     1       6.412   1.701   3.617  0.00  0.00    -0.303 NA
ATOM     28  H   UNL     1       7.332   1.174   3.763  0.00  0.00    +0.123 HD
BRANCH  27  29
ATOM     29  C   UNL     1       6.747   3.085   3.265  0.00  0.00    +0.141 C 
BRANCH  29  34
ATOM     34  C   UNL     1       7.399   3.659   4.525  0.00  0.00    +0.230 C 
ATOM     35  N   UNL     1       8.623   4.290   4.402  0.00  0.00    -0.317 N 
ATOM     36  H   UNL     1       9.092   4.375   3.444  0.00  0.00    +0.148 HD
ATOM     37  C   UNL     1       9.270   4.840   5.590  0.00  0.00    +0.128 C 
ATOM     38  O   UNL     1       6.856   3.550   5.627  0.00  0.00    -0.274 OA
ENDBRANCH  29  34
BRANCH  29  30
ATOM     30  C   UNL     1       5.524   3.981   2.856  0.00  0.00    +0.031 C 
BRANCH  30  31
ATOM     31  C   UNL     1       5.968   5.377   2.361  0.00  0.00    -0.015 C 
ATOM     32  C   UNL     1       4.751   6.295   2.170  0.00  0.00    +0.007 C 
ATOM     33  C   UNL     1       6.744   5.279   1.034  0.00  0.00    +0.007 C 
ENDBRANCH  30  31
ENDBRANCH  29  30
ENDBRANCH  27  29
ENDBRANCH  26  27
ENDBRANCH  22  23
BRANCH   2   3
ATOM      3  N   UNL     1       3.136  -5.196  -3.488  0.00  0.00    -0.343 N 
ATOM      4  H   UNL     1       2.180  -4.717  -3.538  0.00  0.00    +0.144 HD
ATOM      5  H   UNL     1       3.344  -6.042  -4.110  0.00  0.00    +0.144 HD
ENDBRANCH   2   3
TORSDOF 10
