REMARK  Name = 4g11_ligand
REMARK  4 active torsions:
REMARK  status: ('A' for Active; 'I' for Inactive)
REMARK    1  A    between atoms: C14_2  and  C13_10
REMARK    2  A    between atoms: N15_3  and  C16_4
REMARK    3  A    between atoms: C13_10  and  C2_11
REMARK    4  A    between atoms: C6_17  and  N7_18
REMARK                            x       y       z     vdW  Elec       q    Type
REMARK                         _______ _______ _______ _____ _____    ______ ____
ROOT
ATOM      4  C   UNL     1     -42.758  15.511 -31.705  0.00  0.00    +0.172 A 
ATOM      5  N   UNL     1     -43.805  14.794 -31.231  0.00  0.00    -0.271 NA
ATOM      6  C   UNL     1     -43.629  13.559 -30.701  0.00  0.00    +0.077 A 
ATOM     13  C   UNL     1     -42.345  13.018 -30.660  0.00  0.00    +0.018 A 
ATOM     14  C   UNL     1     -41.282  13.763 -31.153  0.00  0.00    +0.181 A 
ATOM     15  O   UNL     1     -40.131  13.281 -31.118  0.00  0.00    -0.428 OA
ATOM     16  N   UNL     1     -41.502  14.997 -31.672  0.00  0.00    -0.199 N 
ATOM     17  H   UNL     1     -40.721  15.541 -32.039  0.00  0.00    +0.256 HD
ENDROOT
BRANCH   6   7
ATOM      7  N   UNL     1     -44.729  12.819 -30.210  0.00  0.00    -0.291 N 
ATOM      8  C   UNL     1     -44.467  12.331 -28.841  0.00  0.00    +0.165 C 
ATOM      9  C   UNL     1     -45.666  11.541 -28.323  0.00  0.00    +0.184 C 
ATOM     10  O   UNL     1     -46.846  12.346 -28.397  0.00  0.00    -0.376 OA
ATOM     11  C   UNL     1     -47.138  12.816 -29.716  0.00  0.00    +0.184 C 
ATOM     12  C   UNL     1     -45.962  13.627 -30.254  0.00  0.00    +0.165 C 
ENDBRANCH   6   7
BRANCH   4   3
ATOM      3  C   UNL     1     -43.017  16.881 -32.289  0.00  0.00    +0.298 C 
BRANCH   3   2
ATOM      1  O   UNL     1     -42.851  16.403 -34.588  0.00  0.00    -0.380 OA
ATOM      2  C   UNL     1     -43.606  16.646 -33.658  0.00  0.00    +0.228 C 
ATOM     18  N   UNL     1     -44.942  16.701 -33.745  0.00  0.00    -0.231 N 
ATOM     19  H   UNL     1     -45.469  16.903 -32.895  0.00  0.00    +0.226 HD
BRANCH  18  20
ATOM     20  C   UNL     1     -45.664  16.497 -34.937  0.00  0.00    +0.067 A 
ATOM     21  C   UNL     1     -45.019  16.210 -36.142  0.00  0.00    +0.009 A 
ATOM     22  C   UNL     1     -45.742  16.011 -37.316  0.00  0.00    -0.018 A 
ATOM     23  C   UNL     1     -47.129  16.096 -37.297  0.00  0.00    -0.029 A 
ATOM     24  C   UNL     1     -47.779  16.386 -36.100  0.00  0.00    -0.018 A 
ATOM     25  C   UNL     1     -47.056  16.583 -34.922  0.00  0.00    +0.009 A 
ENDBRANCH  18  20
ENDBRANCH   3   2
ENDBRANCH   4   3
TORSDOF 4
