REMARK  Name = 3e5a_ligand
REMARK  8 active torsions:
REMARK  status: ('A' for Active; 'I' for Inactive)
REMARK    1  A    between atoms: N1_1  and  C7_7
REMARK    2  A    between atoms: N4_4  and  C8_8
REMARK    3  A    between atoms: C12_12  and  S23_21
REMARK    4  A    between atoms: N14_14  and  C15_15
REMARK    5  A    between atoms: C18_17  and  C21_20
REMARK    6  A    between atoms: S23_21  and  C24_22
REMARK    7  A    between atoms: C27_25  and  N30_28
REMARK    8  A    between atoms: C31_29  and  C33_31
REMARK                            x       y       z     vdW  Elec       q    Type
REMARK                         _______ _______ _______ _____ _____    ______ ____
ROOT
ATOM      7  C   UNL     1      23.165  29.172  20.301  0.00  0.00    +0.109 A 
ATOM      8  N   UNL     1      24.192  28.637  20.977  0.00  0.00    -0.259 NA
ATOM      9  C   UNL     1      25.198  28.108  20.302  0.00  0.00    +0.145 A 
ATOM     24  N   UNL     1      25.272  28.106  18.974  0.00  0.00    -0.255 NA
ATOM     25  C   UNL     1      24.254  28.658  18.281  0.00  0.00    +0.129 A 
ATOM     26  N   UNL     1      24.224  28.718  16.859  0.00  0.00    -0.232 N 
ATOM     27  H   UNL     1      23.334  29.044  16.456  0.00  0.00    +0.221 HD
ATOM     35  C   UNL     1      23.159  29.209  18.925  0.00  0.00    +0.070 A 
ENDROOT
BRANCH   7   6
ATOM      1  N   UNL     1      19.620  30.120  22.355  0.00  0.00    +0.236 N 
ATOM      2  H   UNL     1      19.566  30.929  22.954  0.00  0.00    +0.203 HD
ATOM      3  C   UNL     1      18.372  29.394  22.379  0.00  0.00    +0.191 C 
ATOM      4  C   UNL     1      20.647  29.220  22.903  0.00  0.00    +0.156 C 
ATOM      5  C   UNL     1      22.071  29.512  22.445  0.00  0.00    +0.187 C 
ATOM      6  N   UNL     1      22.099  29.731  21.000  0.00  0.00    -0.282 N 
ATOM     36  C   UNL     1      20.927  29.979  20.199  0.00  0.00    +0.187 C 
ATOM     37  C   UNL     1      19.783  30.582  20.984  0.00  0.00    +0.156 C 
ENDBRANCH   7   6
BRANCH  26  28
ATOM     28  C   UNL     1      25.196  28.409  15.944  0.00  0.00    +0.172 A 
ATOM     29  N   UNL     1      25.083  28.562  14.612  0.00  0.00    -0.211 N 
ATOM     30  H   UNL     1      24.273  28.932  14.095  0.00  0.00    +0.247 HD
ATOM     31  N   UNL     1      26.248  28.131  14.096  0.00  0.00    -0.253 NA
ATOM     32  C   UNL     1      27.114  27.686  15.058  0.00  0.00    -0.016 A 
ATOM     33  C   UNL     1      28.442  27.146  14.724  0.00  0.00    +0.079 C 
ATOM     34  C   UNL     1      26.466  27.860  16.261  0.00  0.00    -0.010 A 
ENDBRANCH  26  28
BRANCH   9  10
ATOM     10  S   UNL     1      26.528  27.432  21.280  0.00  0.00    -0.016 S 
BRANCH  10  11
ATOM     11  C   UNL     1      27.263  26.342  20.103  0.00  0.00    +0.022 A 
ATOM     12  C   UNL     1      26.725  25.094  19.891  0.00  0.00    -0.006 A 
ATOM     13  C   UNL     1      27.287  24.259  18.959  0.00  0.00    +0.003 A 
ATOM     14  C   UNL     1      28.387  24.683  18.243  0.00  0.00    +0.060 A 
ATOM     22  C   UNL     1      28.935  25.923  18.464  0.00  0.00    +0.003 A 
ATOM     23  C   UNL     1      28.375  26.752  19.403  0.00  0.00    -0.006 A 
BRANCH  14  15
ATOM     15  N   UNL     1      28.916  23.794  17.297  0.00  0.00    -0.237 N 
ATOM     16  H   UNL     1      28.387  22.967  17.108  0.00  0.00    +0.224 HD
ATOM     17  C   UNL     1      30.100  23.953  16.600  0.00  0.00    +0.205 C 
ATOM     21  O   UNL     1      30.999  24.802  16.742  0.00  0.00    -0.385 OA
BRANCH  17  18
ATOM     18  C   UNL     1      30.204  22.902  15.568  0.00  0.00    +0.109 C 
ATOM     19  C   UNL     1      31.533  22.231  15.376  0.00  0.00    +0.028 C 
ATOM     20  C   UNL     1      31.031  23.219  14.361  0.00  0.00    +0.028 C 
ENDBRANCH  17  18
ENDBRANCH  14  15
ENDBRANCH  10  11
ENDBRANCH   9  10
TORSDOF 6
