REMARK  Name = 4JSX
REMARK  8 active torsions:
REMARK  status: ('A' for Active; 'I' for Inactive)
REMARK    1  A    between atoms: N_3  and  C_4
REMARK    2  A    between atoms: C_4  and  C_5
REMARK    3  A    between atoms: C_4  and  C_8
REMARK    4  A    between atoms: C_5  and  C_6
REMARK    5  A    between atoms: C_7  and  C_9
REMARK    6  A    between atoms: C_8  and  C_9
REMARK    7  A    between atoms: C_9  and  C_10
REMARK    8  A    between atoms: C_30  and  N_32
REMARK                            x       y       z     vdW  Elec       q    Type
REMARK                         _______ _______ _______ _____ _____    ______ ____
ROOT
ATOM      1  O   UNL     1      46.839  -4.381 -49.056  0.00  0.00    -0.268 OA
ATOM      2  C   UNL     1      47.427  -3.582 -49.808  0.00  0.00    +0.252 C 
ATOM      3  C   UNL     1      47.025  -3.482 -51.131  0.00  0.00    +0.071 C 
ATOM      4  C   UNL     1      47.668  -2.596 -51.978  0.00  0.00    +0.017 C 
ATOM      5  C   UNL     1      48.714  -1.806 -51.507  0.00  0.00    +0.017 A 
ATOM      6  C   UNL     1      49.159  -1.873 -50.169  0.00  0.00    +0.060 A 
ATOM      7  C   UNL     1      50.240  -1.021 -49.799  0.00  0.00    +0.006 A 
ATOM      8  C   UNL     1      50.792  -0.168 -50.773  0.00  0.00    +0.069 A 
ATOM      9  C   UNL     1      51.851   0.682 -50.454  0.00  0.00    +0.028 C 
ATOM     10  C   UNL     1      52.384   0.707 -49.173  0.00  0.00    +0.007 C 
ATOM     11  C   UNL     1      51.861  -0.113 -48.184  0.00  0.00    -0.034 C 
ATOM     12  C   UNL     1      52.425  -0.057 -46.915  0.00  0.00    -0.004 C 
ATOM     13  C   UNL     1      51.973  -0.838 -45.856  0.00  0.00    +0.009 C 
ATOM     14  C   UNL     1      52.577  -0.732 -44.606  0.00  0.00    +0.015 C 
ATOM     15  C   UNL     1      53.632   0.158 -44.441  0.00  0.00    +0.193 C 
ATOM     19  N   UNL     1      54.057   0.898 -45.482  0.00  0.00    -0.268 NA
ATOM     20  C   UNL     1      53.482   0.810 -46.684  0.00  0.00    +0.115 C 
ATOM     21  N   UNL     1      50.321  -0.144 -52.042  0.00  0.00    -0.255 NA
ATOM     22  C   UNL     1      50.798  -0.969 -48.507  0.00  0.00    +0.075 C 
ATOM     23  C   UNL     1      49.311  -0.936 -52.415  0.00  0.00    +0.121 A 
ATOM     24  N   UNL     1      48.492  -2.807 -49.301  0.00  0.00    -0.299 N 
ENDROOT
BRANCH  15  16
ATOM     16  N   UNL     1      54.243   0.301 -43.243  0.00  0.00    -0.306 NA
ATOM     17  H   UNL     1      53.529   0.625 -42.514  0.00  0.00    +0.120 HD
ATOM     18  H   UNL     1      54.660  -0.637 -42.941  0.00  0.00    +0.120 HD
ENDBRANCH  15  16
BRANCH  24  25
ATOM     25  C   UNL     1      48.772  -2.968 -47.926  0.00  0.00    +0.080 C 
BRANCH  25  33
ATOM     33  C   UNL     1      49.562  -3.982 -47.408  0.00  0.00    +0.023 C 
ATOM     34  C   UNL     1      49.765  -4.060 -46.030  0.00  0.00    +0.006 C 
ENDBRANCH  25  33
BRANCH  25  26
ATOM     26  C   UNL     1      48.158  -2.057 -47.063  0.00  0.00    +0.039 C 
BRANCH  26  27
ATOM     27  C   UNL     1      48.357  -2.126 -45.683  0.00  0.00    +0.085 C 
ATOM     32  C   UNL     1      49.168  -3.138 -45.171  0.00  0.00    +0.018 C 
BRANCH  27  28
ATOM     28  C   UNL     1      47.722  -1.122 -44.743  0.00  0.00    +0.397 C 
ATOM     29  F   UNL     1      46.963  -0.284 -45.442  0.00  0.00    -0.170 F 
ATOM     30  F   UNL     1      47.009  -1.731 -43.804  0.00  0.00    -0.170 F 
ATOM     31  F   UNL     1      48.670  -0.438 -44.117  0.00  0.00    -0.170 F 
ENDBRANCH  27  28
ENDBRANCH  26  27
ENDBRANCH  25  26
ENDBRANCH  24  25
TORSDOF 6
