REMARK  Name = 3gcv_ligand
REMARK  10 active torsions:
REMARK  status: ('A' for Active; 'I' for Inactive)
REMARK    1  A    between atoms: CAA_6  and  CBA_7
REMARK    2  A    between atoms: CBE_12  and  NBK_13
REMARK    3  A    between atoms: CBF_15  and  CBL_16
REMARK    4  A    between atoms: CBL_16  and  CAC_17
REMARK    5  A    between atoms: CBL_16  and  CAD_18
REMARK    6  A    between atoms: CBL_16  and  CAB_19
REMARK    7  A    between atoms: CBG_21  and  NAX_22
REMARK    8  A    between atoms: NAW_25  and  CBC_26
REMARK    9  A    between atoms: CBD_31  and  NAY_32
REMARK   10  A    between atoms: CBB_34  and  NAE_35
REMARK                            x       y       z     vdW  Elec       q    Type
REMARK                         _______ _______ _______ _____ _____    ______ ____
ROOT
ATOM     20  N   UNL     1      -1.249  -1.065 -13.159  0.00  0.00    -0.216 N 
ATOM     21  H   UNL     1      -1.657  -1.764 -12.572  0.00  0.00    +0.226 HD
ATOM     22  C   UNL     1       0.086  -0.981 -13.082  0.00  0.00    +0.323 C 
ATOM     23  O   UNL     1       0.729  -0.176 -13.759  0.00  0.00    -0.379 OA
ATOM     24  N   UNL     1       0.662  -1.922 -12.287  0.00  0.00    -0.179 N 
ATOM     25  H   UNL     1       0.063  -2.671 -12.004  0.00  0.00    +0.234 HD
ENDROOT
BRANCH  20  19
ATOM     15  C   UNL     1      -2.940   0.662 -15.954  0.00  0.00    +0.054 A 
ATOM     16  C   UNL     1      -4.109   1.083 -15.299  0.00  0.00    -0.011 A 
ATOM     17  C   UNL     1      -4.303   0.801 -13.943  0.00  0.00    -0.029 A 
ATOM     18  C   UNL     1      -3.323   0.075 -13.266  0.00  0.00    -0.011 A 
ATOM     19  C   UNL     1      -2.146  -0.355 -13.906  0.00  0.00    +0.058 A 
ATOM     42  C   UNL     1      -1.964  -0.059 -15.263  0.00  0.00    +0.024 A 
BRANCH  15  13
ATOM      1  C   UNL     1      -3.155   3.661 -19.634  0.00  0.00    +0.036 A 
ATOM      2  C   UNL     1      -3.320   3.906 -21.002  0.00  0.00    +0.017 A 
ATOM      3  C   UNL     1      -3.410   2.809 -21.896  0.00  0.00    +0.029 A 
ATOM      4  C   UNL     1      -3.328   1.475 -21.429  0.00  0.00    +0.043 A 
ATOM      8  C   UNL     1      -3.149   1.252 -20.049  0.00  0.00    +0.027 A 
ATOM      9  N   UNL     1      -3.057   4.674 -18.773  0.00  0.00    -0.299 NA
ATOM     10  C   UNL     1      -2.883   4.473 -17.459  0.00  0.00    +0.159 A 
ATOM     11  N   UNL     1      -2.787   3.245 -16.954  0.00  0.00    -0.256 NA
ATOM     12  C   UNL     1      -2.864   2.163 -17.769  0.00  0.00    +0.156 A 
ATOM     13  N   UNL     1      -2.760   0.929 -17.253  0.00  0.00    -0.251 N 
ATOM     14  H   UNL     1      -2.531   0.150 -17.887  0.00  0.00    +0.221 HD
ATOM     43  C   UNL     1      -3.054   2.341 -19.149  0.00  0.00    +0.045 A 
BRANCH   4   5
ATOM      5  N   UNL     1      -3.431   0.436 -22.309  0.00  0.00    -0.336 N 
ATOM      6  H   UNL     1      -3.378  -0.535 -21.968  0.00  0.00    +0.172 HD
ATOM      7  H   UNL     1      -3.562   0.623 -23.314  0.00  0.00    +0.172 HD
ENDBRANCH   4   5
ENDBRANCH  15  13
ENDBRANCH  20  19
BRANCH  24  26
ATOM     26  C   UNL     1       1.937  -1.988 -11.824  0.00  0.00    +0.220 A 
ATOM     27  C   UNL     1       2.785  -0.944 -11.642  0.00  0.00    +0.003 A 
ATOM     28  C   UNL     1       3.880  -1.486 -11.064  0.00  0.00    -0.002 A 
ATOM     33  N   UNL     1       3.668  -2.776 -10.857  0.00  0.00    -0.165 NA
ATOM     34  N   UNL     1       2.530  -3.060 -11.279  0.00  0.00    -0.105 N 
BRANCH  34  35
ATOM     35  C   UNL     1       2.021  -4.303 -11.216  0.00  0.00    +0.122 A 
ATOM     36  C   UNL     1       1.311  -4.872 -12.281  0.00  0.00    +0.028 A 
ATOM     37  C   UNL     1       0.809  -6.170 -12.156  0.00  0.00    -0.011 A 
ATOM     38  C   UNL     1       1.010  -6.880 -10.980  0.00  0.00    -0.013 A 
ATOM     39  C   UNL     1       1.735  -6.313  -9.937  0.00  0.00    -0.048 A 
ATOM     40  C   UNL     1       1.987  -7.098  -8.620  0.00  0.00    +0.085 C 
ATOM     41  C   UNL     1       2.236  -5.028 -10.065  0.00  0.00    +0.034 A 
ENDBRANCH  34  35
BRANCH  28  29
ATOM     29  C   UNL     1       5.195  -0.789 -10.636  0.00  0.00    -0.045 C 
ATOM     30  C   UNL     1       5.793  -0.017 -11.788  0.00  0.00    -0.045 C 
ATOM     31  C   UNL     1       6.207  -1.850 -10.134  0.00  0.00    -0.045 C 
ATOM     32  C   UNL     1       4.879   0.184  -9.493  0.00  0.00    -0.045 C 
ENDBRANCH  28  29
ENDBRANCH  24  26
TORSDOF 6
