REMARK  Name = 4ehz_ligand
REMARK  2 active torsions:
REMARK  status: ('A' for Active; 'I' for Inactive)
REMARK    1  A    between atoms: C1_1  and  C2_2
REMARK    2  A    between atoms: N10_10  and  C11_11
REMARK                            x       y       z     vdW  Elec       q    Type
REMARK                         _______ _______ _______ _____ _____    ______ ____
ROOT
ATOM      1  C   UNL     1       9.025  56.744  -0.457  0.00  0.00    +0.164 C 
ATOM      2  C   UNL     1       7.894  57.742  -0.255  0.00  0.00    +0.120 A 
ATOM      3  N   UNL     1       6.689  57.499   0.341  0.00  0.00    -0.227 N 
ATOM     12  C   UNL     1       5.977  58.688   0.322  0.00  0.00    +0.089 A 
ATOM     13  C   UNL     1       4.713  59.167   0.737  0.00  0.00    +0.019 A 
ATOM     14  C   UNL     1       3.541  58.602   1.413  0.00  0.00    -0.032 A 
ATOM     15  C   UNL     1       2.623  59.577   1.536  0.00  0.00    +0.113 A 
ATOM     16  N   UNL     1       3.100  60.734   0.994  0.00  0.00    -0.274 N 
ATOM     17  H   UNL     1       2.593  61.630   0.961  0.00  0.00    +0.228 HD
ATOM     18  C   UNL     1       4.373  60.515   0.495  0.00  0.00    +0.120 A 
ATOM     19  N   UNL     1       5.240  61.323  -0.120  0.00  0.00    -0.305 NA
ATOM     20  C   UNL     1       6.412  60.930  -0.533  0.00  0.00    +0.061 A 
ATOM     21  C   UNL     1       6.821  59.615  -0.326  0.00  0.00    +0.033 A 
ATOM     22  N   UNL     1       7.957  58.971  -0.638  0.00  0.00    -0.320 NA
ENDROOT
BRANCH   3   4
ATOM      4  C   UNL     1       6.326  56.184   0.912  0.00  0.00    +0.144 C 
ATOM      5  C   UNL     1       5.109  55.514   0.259  0.00  0.00    +0.087 C 
ATOM      6  C   UNL     1       4.907  54.142   0.907  0.00  0.00    +0.132 C 
ATOM      7  N   UNL     1       4.711  54.270   2.353  0.00  0.00    +0.227 N 
ATOM      8  H   UNL     1       4.631  53.346   2.749  0.00  0.00    +0.201 HD
ATOM      9  H   UNL     1       3.858  54.781   2.517  0.00  0.00    +0.201 HD
ATOM     10  C   UNL     1       5.816  54.974   3.027  0.00  0.00    +0.132 C 
ATOM     11  C   UNL     1       6.047  56.352   2.407  0.00  0.00    +0.087 C 
ENDBRANCH   3   4
TORSDOF 1
