REMARK  Name = 2in6_ligand
REMARK  5 active torsions:
REMARK  status: ('A' for Active; 'I' for Inactive)
REMARK    1  A    between atoms: C23_2  and  C21_4
REMARK    2  A    between atoms: C21_4  and  C22_5
REMARK    3  A    between atoms: C22_5  and  N2_6
REMARK    4  A    between atoms: C19_11  and  O3_12
REMARK    5  A    between atoms: C2_23  and  C7_25
REMARK                            x       y       z     vdW  Elec       q    Type
REMARK                         _______ _______ _______ _____ _____    ______ ____
ROOT
ATOM      5  N   UNL     1       3.210  53.755  23.797  0.00  0.00    -0.260 N 
ATOM      6  C   UNL     1       4.375  54.140  23.187  0.00  0.00    +0.061 A 
ATOM      7  C   UNL     1       5.320  54.485  24.157  0.00  0.00    -0.006 A 
ATOM      8  C   UNL     1       4.662  54.284  25.427  0.00  0.00    +0.018 A 
ATOM      9  C   UNL     1       5.058  54.471  26.832  0.00  0.00    +0.067 A 
ATOM     10  C   UNL     1       4.121  54.149  27.881  0.00  0.00    +0.067 A 
ATOM     11  C   UNL     1       2.772  53.703  27.517  0.00  0.00    -0.005 A 
ATOM     18  C   UNL     1       2.410  53.506  26.171  0.00  0.00    +0.036 A 
ATOM     19  C   UNL     1       4.933  54.462  29.083  0.00  0.00    +0.229 A 
ATOM     20  N   UNL     1       6.214  54.902  28.847  0.00  0.00    -0.201 N 
ATOM     21  H   UNL     1       6.911  55.173  29.511  0.00  0.00    +0.221 HD
ATOM     22  O   UNL     1       4.446  54.292  30.241  0.00  0.00    -0.372 OA
ATOM     23  C   UNL     1       6.303  54.878  27.471  0.00  0.00    +0.234 A 
ATOM     24  O   UNL     1       7.319  55.283  26.883  0.00  0.00    -0.368 OA
ATOM     25  C   UNL     1       6.640  54.893  23.890  0.00  0.00    +0.010 A 
ATOM     26  C   UNL     1       6.939  55.017  22.493  0.00  0.00    +0.075 A 
ATOM     29  C   UNL     1       6.013  54.691  21.518  0.00  0.00    +0.010 A 
ATOM     30  C   UNL     1       4.734  54.233  21.821  0.00  0.00    +0.007 A 
ATOM     31  C   UNL     1       3.291  53.819  25.150  0.00  0.00    +0.076 A 
ENDROOT
BRANCH  11  12
ATOM     12  C   UNL     1       1.775  53.418  28.540  0.00  0.00    -0.017 A 
ATOM     13  C   UNL     1       1.442  54.496  29.527  0.00  0.00    +0.009 A 
ATOM     14  C   UNL     1       0.483  54.263  30.516  0.00  0.00    +0.001 A 
ATOM     15  C   UNL     1      -0.198  53.088  30.589  0.00  0.00    +0.001 A 
ATOM     16  C   UNL     1      -0.010  52.071  29.714  0.00  0.00    +0.001 A 
ATOM     17  C   UNL     1       1.006  52.181  28.611  0.00  0.00    +0.009 A 
ENDBRANCH  11  12
BRANCH  26  27
ATOM     27  O   UNL     1       8.172  55.422  22.074  0.00  0.00    -0.341 OA
ATOM     28  H   UNL     1       8.714  55.616  22.830  0.00  0.00    +0.244 HD
ENDBRANCH  26  27
BRANCH   5   4
ATOM      4  C   UNL     1       1.981  53.279  23.130  0.00  0.00    +0.178 C 
BRANCH   4   3
ATOM      3  C   UNL     1       2.318  51.807  22.901  0.00  0.00    +0.116 C 
BRANCH   3   2
ATOM      1  O   UNL     1       0.166  51.571  21.892  0.00  0.00    -0.569 OA
ATOM      2  C   UNL     1       1.145  50.984  22.402  0.00  0.00    +0.037 C 
ATOM     32  O   UNL     1       1.195  49.736  22.544  0.00  0.00    -0.569 OA
ENDBRANCH   3   2
ENDBRANCH   4   3
ENDBRANCH   5   4
TORSDOF 5
