REMARK  Name = 2w06_ligand
REMARK  7 active torsions:
REMARK  status: ('A' for Active; 'I' for Inactive)
REMARK    1  A    between atoms: N21_2  and  C25_3
REMARK    2  A    between atoms: C22_4  and  C28_5
REMARK    3  A    between atoms: C1_8  and  C20_9
REMARK    4  A    between atoms: C8_12  and  N7_24
REMARK    5  A    between atoms: C16_15  and  N15_22
REMARK    6  A    between atoms: C11_18  and  S14_20
REMARK    7  A    between atoms: S14_20  and  N15_22
REMARK                            x       y       z     vdW  Elec       q    Type
REMARK                         _______ _______ _______ _____ _____    ______ ____
ROOT
ATOM     13  N   UNL     1       3.080  30.747   6.646  0.00  0.00    -0.243 N 
ATOM     14  H   UNL     1       3.338  31.254   5.787  0.00  0.00    +0.218 HD
ATOM     15  C   UNL     1       2.066  31.300   7.362  0.00  0.00    +0.202 A 
ATOM     16  N   UNL     1       1.673  32.592   7.277  0.00  0.00    -0.260 NA
ATOM     17  C   UNL     1       0.646  33.106   8.000  0.00  0.00    +0.094 A 
ATOM     18  C   UNL     1      -0.059  32.263   8.901  0.00  0.00    +0.041 A 
ATOM     19  C   UNL     1       0.334  30.919   9.005  0.00  0.00    +0.066 A 
ATOM     29  N   UNL     1       1.378  30.503   8.234  0.00  0.00    -0.256 NA
ENDROOT
BRANCH  13  12
ATOM      1  C   UNL     1       4.857  29.199   6.027  0.00  0.00    +0.017 A 
ATOM      2  C   UNL     1       5.639  28.053   6.275  0.00  0.00    +0.016 A 
ATOM      3  C   UNL     1       5.401  27.270   7.412  0.00  0.00    +0.097 A 
ATOM     10  C   UNL     1       4.362  27.627   8.317  0.00  0.00    +0.016 A 
ATOM     11  C   UNL     1       3.580  28.773   8.069  0.00  0.00    +0.017 A 
ATOM     12  C   UNL     1       3.829  29.584   6.905  0.00  0.00    +0.066 A 
BRANCH   3   4
ATOM      4  S   UNL     1       6.372  25.875   7.703  0.00  0.00    +0.063 S 
ATOM      8  O   UNL     1       7.507  26.277   8.510  0.00  0.00    -0.152 OA
ATOM      9  O   UNL     1       6.832  25.328   6.447  0.00  0.00    -0.152 OA
BRANCH   4   5
ATOM      5  N   UNL     1       5.452  24.648   8.596  0.00  0.00    -0.252 NA
ATOM      6  H   UNL     1       5.528  24.512   9.584  0.00  0.00    +0.167 HD
ATOM      7  C   UNL     1       4.584  23.868   7.749  0.00  0.00    +0.147 C 
ENDBRANCH   4   5
ENDBRANCH   3   4
ENDBRANCH  13  12
BRANCH  19  20
ATOM     20  C   UNL     1      -0.263  29.910   9.901  0.00  0.00    +0.097 A 
ATOM     21  C   UNL     1       0.434  28.737  10.168  0.00  0.00    +0.049 A 
ATOM     22  N   UNL     1      -0.278  27.956  10.997  0.00  0.00    -0.318 NA
ATOM     23  C   UNL     1      -1.390  28.564  11.268  0.00  0.00    +0.122 A 
ATOM     24  C   UNL     1      -2.439  27.955  12.184  0.00  0.00    +0.161 C 
ATOM     25  N   UNL     1      -1.465  29.798  10.610  0.00  0.00    -0.233 N 
BRANCH  25  26
ATOM     26  C   UNL     1      -2.674  30.674  10.788  0.00  0.00    +0.134 C 
ATOM     27  C   UNL     1      -2.932  32.145  10.642  0.00  0.00    +0.040 C 
ATOM     28  C   UNL     1      -3.323  31.201   9.500  0.00  0.00    +0.040 C 
ENDBRANCH  25  26
ENDBRANCH  19  20
TORSDOF 5
