REMARK  Name = 8N2
REMARK  0 active torsions:
REMARK  status: ('A' for Active; 'I' for Inactive)
REMARK                            x       y       z     vdW  Elec       q    Type
REMARK                         _______ _______ _______ _____ _____    ______ ____
ROOT
ATOM      1  C   UNL     1     -70.918-118.440   8.000  0.00  0.00    +0.217 C 
ATOM      2  O   UNL     1     -71.147-119.540   9.000  0.00  0.00    -0.217 OA
ENDROOT
TORSDOF 0
