REMARK  Name = 4g16_ligand
REMARK  5 active torsions:
REMARK  status: ('A' for Active; 'I' for Inactive)
REMARK    1  A    between atoms: C8_1  and  C7_17
REMARK    2  A    between atoms: C15_10  and  O1_25
REMARK    3  A    between atoms: C18_13  and  N1_16
REMARK    4  A    between atoms: C3_21  and  C5_26
REMARK    5  A    between atoms: C4_22  and  O1_25
REMARK                            x       y       z     vdW  Elec       q    Type
REMARK                         _______ _______ _______ _____ _____    ______ ____
ROOT
ATOM     11  C   UNL     1      35.352 -17.746  29.046  0.00  0.00    +0.062 A 
ATOM     12  C   UNL     1      34.310 -18.616  29.528  0.00  0.00    +0.010 A 
ATOM     13  C   UNL     1      34.393 -20.036  29.209  0.00  0.00    +0.022 A 
ATOM     14  C   UNL     1      35.536 -20.479  28.414  0.00  0.00    +0.123 A 
ATOM     26  C   UNL     1      36.590 -19.612  27.930  0.00  0.00    +0.022 A 
ATOM     27  C   UNL     1      36.490 -18.213  28.259  0.00  0.00    +0.010 A 
ENDROOT
BRANCH  11   9
ATOM      1  C   UNL     1      38.313 -12.115  26.658  0.00  0.00    +0.078 A 
ATOM      4  C   UNL     1      38.424 -11.527  27.996  0.00  0.00    +0.013 A 
ATOM      5  C   UNL     1      37.774 -12.248  29.105  0.00  0.00    -0.005 A 
ATOM      6  C   UNL     1      37.064 -13.496  28.835  0.00  0.00    +0.022 A 
ATOM      7  N   UNL     1      36.390 -14.360  29.630  0.00  0.00    -0.301 NA
ATOM      8  C   UNL     1      35.950 -15.323  28.875  0.00  0.00    +0.236 A 
ATOM      9  N   UNL     1      35.178 -16.448  29.396  0.00  0.00    -0.229 N 
ATOM     10  H   UNL     1      34.442 -16.238  30.085  0.00  0.00    +0.221 HD
ATOM     28  N   UNL     1      36.274 -15.190  27.575  0.00  0.00    -0.224 N 
ATOM     29  H   UNL     1      36.029 -15.832  26.808  0.00  0.00    +0.232 HD
ATOM     30  C   UNL     1      36.970 -14.069  27.480  0.00  0.00    +0.087 A 
ATOM     31  C   UNL     1      37.604 -13.366  26.365  0.00  0.00    +0.055 A 
BRANCH   1   2
ATOM      2  C   UNL     1      38.930 -11.448  25.602  0.00  0.00    +0.087 C 
ATOM      3  N   UNL     1      39.433 -10.923  24.711  0.00  0.00    -0.337 NA
ENDBRANCH   1   2
ENDBRANCH  11   9
BRANCH  14  15
ATOM     15  O   UNL     1      35.644 -21.875  28.096  0.00  0.00    -0.220 OA
BRANCH  15  16
ATOM     16  C   UNL     1      34.761 -22.459  27.193  0.00  0.00    +0.226 A 
ATOM     17  N   UNL     1      33.952 -21.651  26.407  0.00  0.00    -0.234 NA
ATOM     18  C   UNL     1      33.022 -22.166  25.511  0.00  0.00    +0.130 A 
ATOM     19  C   UNL     1      32.860 -23.599  25.362  0.00  0.00    +0.053 A 
ATOM     20  C   UNL     1      33.687 -24.444  26.156  0.00  0.00    +0.070 A 
ATOM     21  C   UNL     1      34.662 -23.883  27.090  0.00  0.00    +0.106 A 
BRANCH  21  22
ATOM     22  C   UNL     1      35.542 -24.858  27.863  0.00  0.00    +0.374 C 
ATOM     23  F   UNL     1      34.919 -25.189  29.016  0.00  0.00    -0.230 F 
ATOM     24  F   UNL     1      35.704 -25.974  27.094  0.00  0.00    -0.230 F 
ATOM     25  F   UNL     1      36.768 -24.365  28.155  0.00  0.00    -0.230 F 
ENDBRANCH  21  22
ENDBRANCH  15  16
ENDBRANCH  14  15
TORSDOF 5
