REMARK  Name = EB8
REMARK  6 active torsions:
REMARK  status: ('A' for Active; 'I' for Inactive)
REMARK    1  A    between atoms: CAN_2  and  NAK_3
REMARK    2  A    between atoms: CAC_15  and  NAP_16
REMARK    3  A    between atoms: NAP_16  and  SAQ_17
REMARK    4  A    between atoms: SAQ_17  and  CAR_20
REMARK    5  A    between atoms: CAU_25  and  CAZ_26
REMARK    6  A    between atoms: CAZ_26  and  OBA_28
REMARK                            x       y       z     vdW  Elec       q    Type
REMARK                         _______ _______ _______ _____ _____    ______ ____
ROOT
ATOM      3  N   UNL     1      12.818   5.569  -0.966  0.00  0.00    -0.295 N 
ATOM      4  C   UNL     1      13.942   5.723  -0.241  0.00  0.00    +0.261 A 
ATOM      5  C   UNL     1      13.738   6.682   0.713  0.00  0.00    +0.058 A 
ATOM      6  C   UNL     1      14.459   7.232   1.711  0.00  0.00    +0.005 A 
ATOM      7  C   UNL     1      13.930   8.242   2.535  0.00  0.00    +0.000 A 
ATOM      8  C   UNL     1      12.603   8.668   2.343  0.00  0.00    +0.001 A 
ATOM      9  C   UNL     1      11.865   8.058   1.293  0.00  0.00    +0.018 A 
ATOM     10  C   UNL     1      10.511   8.355   0.959  0.00  0.00    +0.091 A 
ATOM     25  C   UNL     1       9.901   7.673  -0.135  0.00  0.00    +0.020 A 
ATOM     26  C   UNL     1      10.633   6.692  -0.840  0.00  0.00    +0.019 A 
ATOM     27  C   UNL     1      12.471   7.100   0.549  0.00  0.00    +0.022 A 
ATOM     28  O   UNL     1      14.964   5.029  -0.410  0.00  0.00    -0.267 OA
ATOM     29  C   UNL     1      11.909   6.435  -0.491  0.00  0.00    +0.063 A 
ENDROOT
BRANCH   3   2
ATOM      1  C   UNL     1      12.067   3.334  -1.598  0.00  0.00    +0.027 C 
ATOM      2  C   UNL     1      12.612   4.644  -2.105  0.00  0.00    +0.109 C 
ENDBRANCH   3   2
BRANCH  10  11
ATOM     11  N   UNL     1       9.905   9.354   1.602  0.00  0.00    -0.097 NA
BRANCH  11  12
ATOM     12  S   UNL     1       8.414   9.127   2.378  0.00  0.00    +0.093 S 
ATOM     23  O   UNL     1       8.079  10.394   3.077  0.00  0.00    -0.148 OA
ATOM     24  O   UNL     1       7.401   8.533   1.446  0.00  0.00    -0.148 OA
BRANCH  12  13
ATOM     13  C   UNL     1       8.747   7.878   3.611  0.00  0.00    +0.133 A 
ATOM     14  C   UNL     1       9.414   8.128   4.842  0.00  0.00    +0.095 A 
ATOM     15  C   UNL     1       9.580   7.043   5.707  0.00  0.00    +0.008 A 
ATOM     16  C   UNL     1       9.094   5.784   5.380  0.00  0.00    +0.000 A 
ATOM     17  C   UNL     1       8.459   5.556   4.178  0.00  0.00    +0.001 A 
ATOM     22  C   UNL     1       8.289   6.596   3.316  0.00  0.00    +0.021 A 
BRANCH  14  18
ATOM     18  C   UNL     1       9.952   9.374   5.278  0.00  0.00    +0.343 C 
ATOM     21  O   UNL     1      10.563  10.131   4.525  0.00  0.00    -0.245 OA
BRANCH  18  19
ATOM     19  O   UNL     1       9.686   9.686   6.592  0.00  0.00    -0.441 OA
ATOM     20  C   UNL     1      10.170  10.977   7.029  0.00  0.00    +0.256 C 
ENDBRANCH  18  19
ENDBRANCH  14  18
ENDBRANCH  12  13
ENDBRANCH  11  12
ENDBRANCH  10  11
TORSDOF 6
