REMARK  Name = 5A4C
REMARK  17 active torsions:
REMARK  status: ('A' for Active; 'I' for Inactive)
REMARK    1  A    between atoms: C_1  and  C_4
REMARK    2  A    between atoms: N_2  and  C_4
REMARK    3  A    between atoms: N_2  and  C_7
REMARK    4  A    between atoms: N_2  and  C_12
REMARK    5  A    between atoms: N_5  and  C_16
REMARK    6  A    between atoms: O_6  and  C_34
REMARK    7  A    between atoms: O_6  and  C_36
REMARK    8  A    between atoms: C_7  and  C_10
REMARK    9  A    between atoms: O_9  and  C_32
REMARK   10  A    between atoms: O_9  and  C_37
REMARK   11  A    between atoms: C_12  and  C_14
REMARK   12  A    between atoms: C_14  and  C_16
REMARK   13  A    between atoms: N_17  and  C_26
REMARK   14  A    between atoms: C_22  and  C_30
REMARK   15  A    between atoms: C_26  and  C_27
REMARK   16  A    between atoms: C_26  and  C_28
REMARK   17  A    between atoms: C_26  and  C_29
REMARK                            x       y       z     vdW  Elec       q    Type
REMARK                         _______ _______ _______ _____ _____    ______ ____
ROOT
ATOM      7  N   UNL     1      86.584   0.089   7.637  0.00  0.00    -0.313 N 
ATOM      8  H   UNL     1      86.788  -0.772   7.140  0.00  0.00    +0.149 HD
ATOM      9  C   UNL     1      87.199   0.244   8.828  0.00  0.00    +0.217 A 
ATOM     10  N   UNL     1      86.914   1.385   9.534  0.00  0.00    -0.195 NA
ATOM     11  C   UNL     1      87.558   1.501  10.736  0.00  0.00    +0.167 A 
ATOM     12  C   UNL     1      88.453   0.511  11.183  0.00  0.00    +0.038 A 
ATOM     13  C   UNL     1      89.019   0.644  12.465  0.00  0.00    +0.025 A 
ATOM     14  C   UNL     1      88.670   1.702  13.265  0.00  0.00    +0.023 A 
ATOM     25  C   UNL     1      87.735   2.661  12.729  0.00  0.00    +0.136 A 
ATOM     26  N   UNL     1      87.274   3.727  13.534  0.00  0.00    -0.254 N 
ATOM     27  H   UNL     1      87.617   3.679  14.488  0.00  0.00    +0.158 HD
ATOM     28  C   UNL     1      86.642   4.909  13.229  0.00  0.00    +0.305 C 
ATOM     29  N   UNL     1      86.158   4.980  11.962  0.00  0.00    -0.294 N 
ATOM     30  H   UNL     1      86.298   4.197  11.332  0.00  0.00    +0.151 HD
ATOM     35  O   UNL     1      86.519   5.811  14.058  0.00  0.00    -0.253 OA
ATOM     36  C   UNL     1      88.596  -0.620  10.382  0.00  0.00    +0.126 A 
ATOM     37  N   UNL     1      87.221   2.579  11.506  0.00  0.00    -0.212 NA
ATOM     38  N   UNL     1      88.027  -0.764   9.208  0.00  0.00    -0.222 NA
ENDROOT
BRANCH  14  15
ATOM     15  C   UNL     1      89.219   1.759  14.651  0.00  0.00    -0.008 A 
ATOM     16  C   UNL     1      88.645   0.991  15.660  0.00  0.00    +0.054 A 
ATOM     17  C   UNL     1      89.192   0.990  16.935  0.00  0.00    +0.124 A 
ATOM     18  C   UNL     1      90.296   1.769  17.238  0.00  0.00    +0.091 A 
ATOM     19  C   UNL     1      90.863   2.543  16.235  0.00  0.00    +0.124 A 
ATOM     24  C   UNL     1      90.330   2.549  14.955  0.00  0.00    +0.054 A 
BRANCH  19  20
ATOM     20  O   UNL     1      91.974   3.332  16.382  0.00  0.00    -0.495 OA
ATOM     21  C   UNL     1      92.714   3.244  17.601  0.00  0.00    +0.277 C 
ENDBRANCH  19  20
BRANCH  17  22
ATOM     22  O   UNL     1      88.587   0.097  17.777  0.00  0.00    -0.495 OA
ATOM     23  C   UNL     1      89.314  -0.371  18.911  0.00  0.00    +0.277 C 
ENDBRANCH  17  22
ENDBRANCH  14  15
BRANCH  29  31
ATOM     31  C   UNL     1      85.218   5.995  11.432  0.00  0.00    +0.028 C 
ATOM     32  C   UNL     1      83.908   5.954  12.220  0.00  0.00    +0.031 C 
ATOM     33  C   UNL     1      85.857   7.373  11.544  0.00  0.00    +0.031 C 
ATOM     34  C   UNL     1      84.947   5.680   9.966  0.00  0.00    +0.031 C 
ENDBRANCH  29  31
BRANCH   7   6
ATOM      6  C   UNL     1      85.668   1.014   6.992  0.00  0.00    +0.105 C 
BRANCH   6   5
ATOM      5  C   UNL     1      85.343   0.523   5.586  0.00  0.00    +0.034 C 
BRANCH   5   4
ATOM      4  C   UNL     1      84.366   1.402   4.814  0.00  0.00    +0.086 C 
BRANCH   4   3
ATOM      3  N   UNL     1      83.984   0.924   3.468  0.00  0.00    -0.303 NA
BRANCH   3   2
ATOM      1  C   UNL     1      86.032   1.935   2.406  0.00  0.00    +0.020 C 
ATOM      2  C   UNL     1      85.141   0.735   2.563  0.00  0.00    +0.081 C 
ENDBRANCH   3   2
BRANCH   3  39
ATOM     39  C   UNL     1      83.019  -0.195   3.512  0.00  0.00    +0.081 C 
ATOM     40  C   UNL     1      81.582   0.237   3.701  0.00  0.00    +0.020 C 
ENDBRANCH   3  39
ENDBRANCH   4   3
ENDBRANCH   5   4
ENDBRANCH   6   5
ENDBRANCH   7   6
TORSDOF 10
