REMARK  Name = 2IZU
REMARK  11 active torsions:
REMARK  status: ('A' for Active; 'I' for Inactive)
REMARK    1  A    between atoms: C_4  and  N_8
REMARK    2  A    between atoms: N_8  and  C_9
REMARK    3  A    between atoms: N_13  and  C_14
REMARK    4  A    between atoms: C_14  and  C_15
REMARK    5  A    between atoms: C_14  and  C_16
REMARK    6  A    between atoms: N_21  and  CA_22
REMARK    7  A    between atoms: CA_22  and  CB_23
REMARK    8  A    between atoms: CA_22  and  C_26
REMARK    9  A    between atoms: CB_23  and  CG1_24
REMARK   10  A    between atoms: CB_23  and  CG2_25
REMARK   11  A    between atoms: C_26  and  O_27
REMARK                            x       y       z     vdW  Elec       q    Type
REMARK                         _______ _______ _______ _____ _____    ______ ____
ROOT
ATOM      9  C   UNK A   0     -32.679  23.210 -27.119  0.00  0.00    +0.156 A 
ATOM     10  N   UNK A   0     -32.843  23.035 -25.819  0.00  0.00    -0.197 NA
ATOM     11  C   UNK A   0     -32.255  23.833 -24.906  0.00  0.00    +0.219 A 
ATOM     12  N   VAL A   1     -32.435  23.600 -23.606  0.00  0.00    -0.308 N 
ATOM     13  H   VAL A   1     -32.132  24.347 -22.902  0.00  0.00    +0.149 HD
ATOM     21  N   UNK A   0     -31.457  24.852 -25.272  0.00  0.00    -0.195 NA
ATOM     22  C   UNK A   0     -31.244  25.069 -26.571  0.00  0.00    +0.168 A 
ATOM     23  N   UNK A   0     -30.520  25.948 -27.225  0.00  0.00    -0.312 N 
ATOM     24  C   UNK A   0     -30.651  25.741 -28.539  0.00  0.00    +0.202 A 
ATOM     25  N   UNK A   0     -31.477  24.715 -28.721  0.00  0.00    -0.231 NA
ATOM     29  C   UNK A   0     -31.850  24.266 -27.528  0.00  0.00    +0.148 A 
ENDROOT
BRANCH  23  26
ATOM     26  C   UNK A   0     -29.711  27.021 -26.604  0.00  0.00    +0.084 C 
ATOM     27  C   UNK A   0     -30.590  28.277 -26.469  0.00  0.00    +0.030 C 
ATOM     28  C   UNK A   0     -28.445  27.300 -27.418  0.00  0.00    +0.030 C 
ENDBRANCH  23  26
BRANCH   9   7
ATOM      7  N   UNK A   0     -33.295  22.422 -28.018  0.00  0.00    -0.297 N 
ATOM      8  H   UNK A   0     -32.998  22.521 -29.041  0.00  0.00    +0.154 HD
BRANCH   7   6
ATOM      1 CL   UNK A   0     -35.092  17.745 -28.885  0.00  0.00    -0.084 Cl
ATOM      2  C   UNK A   0     -35.190  19.290 -28.109  0.00  0.00    +0.043 A 
ATOM      3  C   UNK A   0     -36.237  19.566 -27.239  0.00  0.00    +0.020 A 
ATOM      4  C   UNK A   0     -36.301  20.812 -26.616  0.00  0.00    +0.003 A 
ATOM      5  C   UNK A   0     -35.326  21.781 -26.864  0.00  0.00    +0.023 A 
ATOM      6  C   UNK A   0     -34.260  21.514 -27.738  0.00  0.00    +0.034 A 
ATOM     30  C   UNK A   0     -34.210  20.258 -28.359  0.00  0.00    +0.043 A 
ENDBRANCH   7   6
ENDBRANCH   9   7
BRANCH  12  14
ATOM     14  CA  VAL A   1     -33.037  22.350 -23.101  0.00  0.00    +0.101 C 
BRANCH  14  18
ATOM     18  CB  VAL A   1     -34.089  22.694 -22.040  0.00  0.00    +0.005 C 
ATOM     19  CG2 VAL A   1     -34.834  21.410 -21.635  0.00  0.00    +0.009 C 
ATOM     20  CG1 VAL A   1     -35.041  23.806 -22.548  0.00  0.00    +0.009 C 
ENDBRANCH  14  18
BRANCH  14  15
ATOM     15  C   VAL A   1     -31.993  21.363 -22.511  0.00  0.00    +0.178 C 
BRANCH  15  16
ATOM     16  O   VAL A   1     -31.279  21.987 -21.440  0.00  0.00    -0.393 OA
ATOM     17  H   VAL A   1     -30.783  22.840 -21.799  0.00  0.00    +0.209 HD
ENDBRANCH  15  16
ENDBRANCH  14  15
ENDBRANCH  12  14
TORSDOF 7
