REMARK  Name = 1UEJ
REMARK  5 active torsions:
REMARK  status: ('A' for Active; 'I' for Inactive)
REMARK    1  A    between atoms: O5*_1  and  C5*_2
REMARK    2  A    between atoms: C5*_2  and  C4*_3
REMARK    3  A    between atoms: C1*_5  and  N1_6
REMARK    4  A    between atoms: C2*_14  and  O2*_15
REMARK    5  A    between atoms: C3*_16  and  O3*_17
REMARK                            x       y       z     vdW  Elec       q    Type
REMARK                         _______ _______ _______ _____ _____    ______ ____
ROOT
ATOM      4  C4*   C A   1      12.437  36.598  32.995  0.00  0.00    +0.177 C 
ATOM      5  C3*   C A   1      12.044  35.196  32.529  0.00  0.00    +0.178 C 
ATOM      8  C2*   C A   1      11.171  34.628  33.638  0.00  0.00    +0.195 C 
ATOM     11  C1*   C A   1      11.200  35.727  34.689  0.00  0.00    +0.255 C 
ATOM     22  O4*   C A   1      11.445  36.889  33.988  0.00  0.00    -0.346 OA
ENDROOT
BRANCH  11  12
ATOM     12  N1    C A   1       9.923  35.882  35.422  0.00  0.00    -0.270 N 
ATOM     13  C2    C A   1       9.831  35.620  36.786  0.00  0.00    +0.352 C 
ATOM     14  O2    C A   1      10.808  35.236  37.474  0.00  0.00    -0.244 OA
ATOM     15  N3    C A   1       8.661  35.764  37.455  0.00  0.00    -0.178 NA
ATOM     16  C4    C A   1       7.512  36.187  36.774  0.00  0.00    +0.123 C 
ATOM     17  N4    C A   1       6.390  36.309  37.484  0.00  0.00    -0.343 N 
ATOM     18  H41   C A   1       6.393  36.087  38.531  0.00  0.00    +0.144 HD
ATOM     19  H42   C A   1       5.487  36.628  37.007  0.00  0.00    +0.144 HD
ATOM     20  C5    C A   1       7.530  36.474  35.393  0.00  0.00    +0.061 C 
ATOM     21  C6    C A   1       8.763  36.305  34.768  0.00  0.00    +0.096 C 
ENDBRANCH  11  12
BRANCH   5   6
ATOM      6  O3*   C A   1      13.279  34.538  32.364  0.00  0.00    -0.386 OA
ATOM      7  H3*   C A   1      13.855  35.047  31.649  0.00  0.00    +0.210 HD
ENDBRANCH   5   6
BRANCH   8   9
ATOM      9  O2*   C A   1      11.600  33.382  34.182  0.00  0.00    -0.385 OA
ATOM     10  H2*   C A   1      12.582  33.476  34.541  0.00  0.00    +0.210 HD
ENDBRANCH   8   9
BRANCH   4   3
ATOM      3  C5*   C A   1      12.366  37.364  31.725  0.00  0.00    +0.190 C 
BRANCH   3   1
ATOM      1  O5*   C A   1      12.149  38.720  31.959  0.00  0.00    -0.392 OA
ATOM      2  H5*   C A   1      11.243  38.846  32.474  0.00  0.00    +0.209 HD
ENDBRANCH   3   1
ENDBRANCH   4   3
TORSDOF 5
