REMARK  Name = 4uwl_ligand
REMARK  7 active torsions:
REMARK  status: ('A' for Active; 'I' for Inactive)
REMARK    1  A    between atoms: N8_8  and  C23_23
REMARK    2  A    between atoms: C9_9  and  C13_13
REMARK    3  A    between atoms: C21_21  and  C22_22
REMARK    4  A    between atoms: C23_23  and  C24_24
REMARK    5  A    between atoms: C24_24  and  C26_26
REMARK    6  A    between atoms: C26_26  and  C27_27
REMARK    7  A    between atoms: C26_26  and  C28_28
REMARK                            x       y       z     vdW  Elec       q    Type
REMARK                         _______ _______ _______ _____ _____    ______ ____
ROOT
ATOM      1  C   UNL     1     -30.591  16.856  -7.037  0.00  0.00    +0.278 C 
ATOM      2  C   UNL     1     -30.058  18.138  -6.664  0.00  0.00    +0.207 C 
ATOM      3  N   UNL     1     -28.676  18.174  -6.428  0.00  0.00    -0.195 N 
ATOM      4  C   UNL     1     -28.076  19.477  -6.073  0.00  0.00    +0.154 C 
ATOM      5  C   UNL     1     -26.565  19.504  -6.336  0.00  0.00    +0.114 C 
ATOM      6  C   UNL     1     -25.866  18.269  -5.756  0.00  0.00    +0.377 C 
ATOM     11  N   UNL     1     -26.452  17.020  -6.272  0.00  0.00    -0.163 N 
ATOM     18  C   UNL     1     -27.893  16.985  -6.527  0.00  0.00    +0.312 C 
ATOM     19  N   UNL     1     -28.427  15.845  -6.882  0.00  0.00    -0.274 NA
ATOM     20  O   UNL     1     -30.717  19.170  -6.534  0.00  0.00    -0.392 OA
ATOM     21  C   UNL     1     -29.762  15.732  -7.111  0.00  0.00    +0.121 C 
ATOM     22  N   UNL     1     -30.318  14.406  -7.498  0.00  0.00    -0.266 N 
ATOM     23  C   UNL     1     -31.754  13.996  -7.258  0.00  0.00    +0.129 C 
ATOM     24  C   UNL     1     -32.042  13.780  -5.780  0.00  0.00    +0.038 C 
ATOM     25  C   UNL     1     -32.101  12.814  -8.119  0.00  0.00    +0.189 C 
ATOM     26  O   UNL     1     -31.136  11.738  -8.003  0.00  0.00    -0.375 OA
ATOM     27  C   UNL     1     -29.811  12.162  -8.329  0.00  0.00    +0.185 C 
ATOM     28  C   UNL     1     -29.356  13.295  -7.446  0.00  0.00    +0.174 C 
ENDROOT
BRANCH   6   7
ATOM      7  C   UNL     1     -25.883  18.290  -4.165  0.00  0.00    +0.457 C 
ATOM      8  F   UNL     1     -25.382  19.409  -3.657  0.00  0.00    -0.164 F 
ATOM      9  F   UNL     1     -25.147  17.291  -3.697  0.00  0.00    -0.164 F 
ATOM     10  F   UNL     1     -27.098  18.144  -3.648  0.00  0.00    -0.164 F 
ENDBRANCH   6   7
BRANCH  11  12
ATOM     12  C   UNL     1     -25.659  15.807  -6.384  0.00  0.00    +0.484 C 
BRANCH  12  13
ATOM     13  C   UNL     1     -25.308  15.464  -7.817  0.00  0.00    +0.176 C 
ATOM     17  O   UNL     1     -25.494  16.280  -8.694  0.00  0.00    -0.384 OA
BRANCH  13  14
ATOM     14  C   UNL     1     -24.740  14.082  -8.060  0.00  0.00    +0.086 C 
ATOM     15  C   UNL     1     -23.441  14.179  -8.845  0.00  0.00    +0.031 C 
ATOM     16  C   UNL     1     -25.763  13.219  -8.775  0.00  0.00    +0.031 C 
ENDBRANCH  13  14
ENDBRANCH  12  13
ENDBRANCH  11  12
TORSDOF 4
