REMARK  Name = 9N8
REMARK  4 active torsions:
REMARK  status: ('A' for Active; 'I' for Inactive)
REMARK    1  A    between atoms: C5_5  and  C6_6
REMARK    2  A    between atoms: C6_6  and  C7_7
REMARK    3  A    between atoms: C11_9  and  N1_21
REMARK    4  A    between atoms: C9_17  and  C10_19
REMARK                            x       y       z     vdW  Elec       q    Type
REMARK                         _______ _______ _______ _____ _____    ______ ____
ROOT
ATOM      5  C   UNL     1      41.068  -1.056  12.040  0.00  0.00    +0.060 A 
ATOM      6  C   UNL     1      40.964  -1.278  13.406  0.00  0.00    +0.102 A 
ATOM      7  N   UNL     1      42.206  -1.358  13.924  0.00  0.00    -0.239 NA
ATOM      8  C   UNL     1      43.140  -1.190  12.930  0.00  0.00    +0.137 A 
ATOM     18  C   UNL     1      42.460  -0.984  11.750  0.00  0.00    +0.029 A 
ENDROOT
BRANCH   8   9
ATOM      9  C   UNL     1      44.585  -1.269  13.265  0.00  0.00    +0.287 C 
ATOM     10  O   UNL     1      44.951  -1.363  14.433  0.00  0.00    -0.266 OA
ATOM     11  N   UNL     1      45.437  -1.131  12.217  0.00  0.00    -0.173 NA
BRANCH  11  12
ATOM     12  C   UNL     1      46.850  -1.263  12.201  0.00  0.00    +0.093 A 
ATOM     13  C   UNL     1      47.575  -0.845  13.317  0.00  0.00    +0.115 A 
ATOM     14  N   UNL     1      48.874  -1.117  13.492  0.00  0.00    -0.241 NA
ATOM     15  C   UNL     1      49.499  -1.792  12.518  0.00  0.00    +0.099 A 
ATOM     16  C   UNL     1      48.876  -2.208  11.357  0.00  0.00    +0.022 A 
ATOM     17  C   UNL     1      47.530  -1.934  11.195  0.00  0.00    +0.020 A 
ENDBRANCH  11  12
ENDBRANCH   8   9
BRANCH   5   4
ATOM      4  C   UNL     1      39.974  -1.047  11.061  0.00  0.00    +0.200 C 
ATOM     19  O   UNL     1      38.841  -1.391  11.376  0.00  0.00    -0.286 OA
BRANCH   4   3
ATOM      1  C   UNL     1      40.396  -1.266   7.275  0.00  0.00    +0.007 A 
ATOM      2  C   UNL     1      40.114  -1.606   8.584  0.00  0.00    +0.040 A 
ATOM      3  C   UNL     1      40.265  -0.683   9.640  0.00  0.00    +0.073 A 
ATOM     20  C   UNL     1      40.715   0.584   9.274  0.00  0.00    +0.144 A 
ATOM     21  F   UNL     1      40.976   1.480  10.257  0.00  0.00    -0.204 F 
ATOM     22  C   UNL     1      40.972   0.957   7.981  0.00  0.00    +0.030 A 
ATOM     23 BR   UNL     1      39.486  -3.365   8.888  0.00  0.00    -0.049 Br
ATOM     24  C   UNL     1      40.814   0.018   6.977  0.00  0.00    +0.003 A 
ENDBRANCH   4   3
ENDBRANCH   5   4
TORSDOF 4
