REMARK  Name = 5NA0
REMARK  23 active torsions:
REMARK  status: ('A' for Active; 'I' for Inactive)
REMARK    1  A    between atoms: C_2  and  C_3
REMARK    2  A    between atoms: C_3  and  O_4
REMARK    3  A    between atoms: O_4  and  C_5
REMARK    4  A    between atoms: N_11  and  C_12
REMARK    5  A    between atoms: C_16  and  O_17
REMARK    6  A    between atoms: O_17  and  C_18
REMARK    7  A    between atoms: C_19  and  N_20
REMARK    8  A    between atoms: C_28  and  C_34
REMARK    9  A    between atoms: N_36  and  C_37
REMARK   10  A    between atoms: C_38  and  C_39
REMARK   11  A    between atoms: C_39  and  C_40
REMARK   12  A    between atoms: N_42  and  C_46
REMARK   13  A    between atoms: C_43  and  C_44
REMARK   14  A    between atoms: C_44  and  C_45
REMARK   15  A    between atoms: C_46  and  C_47
REMARK   16  A    between atoms: C_47  and  O_48
REMARK   17  A    between atoms: O_48  and  C_49
REMARK   18  A    between atoms: C_49  and  C_50
REMARK   19  A    between atoms: C_50  and  O_51
REMARK   20  A    between atoms: O_51  and  C_52
REMARK   21  A    between atoms: C_52  and  C_53
REMARK   22  A    between atoms: C_53  and  O_54
REMARK   23  A    between atoms: O_54  and  C_55
REMARK                            x       y       z     vdW  Elec       q    Type
REMARK                         _______ _______ _______ _____ _____    ______ ____
ROOT
ATOM     11  N   UNL     1      34.013  46.707  38.807  0.00  0.00    -0.281 N 
ATOM     12  H   UNL     1      33.441  47.277  38.105  0.00  0.00    +0.155 HD
ATOM     13  C   UNL     1      34.809  45.704  38.307  0.00  0.00    +0.221 A 
ATOM     14  N   UNL     1      35.398  44.762  39.083  0.00  0.00    -0.199 NA
ATOM     15  C   UNL     1      36.208  43.804  38.568  0.00  0.00    +0.131 A 
ATOM     16  C   UNL     1      36.430  43.803  37.105  0.00  0.00    +0.011 A 
ATOM     17  C   UNL     1      35.803  44.777  36.354  0.00  0.00    +0.121 A 
ATOM     18  C   UNL     1      37.304  42.723  36.490  0.00  0.00    +0.042 C 
ATOM     19  C   UNL     1      37.976  41.765  37.494  0.00  0.00    +0.038 C 
ATOM     20  C   UNL     1      37.476  41.895  38.927  0.00  0.00    +0.092 C 
ATOM     21  C   UNL     1      37.739  41.080  40.156  0.00  0.00    +0.038 C 
ATOM     46  C   UNL     1      37.007  41.709  41.155  0.00  0.00    +0.003 C 
ATOM     47  C   UNL     1      36.354  42.809  40.653  0.00  0.00    +0.135 C 
ATOM     48  N   UNL     1      36.697  42.874  39.389  0.00  0.00    -0.299 N 
ATOM     49  N   UNL     1      35.040  45.692  36.966  0.00  0.00    -0.222 NA
ENDROOT
BRANCH  11  10
ATOM      7  C   UNL     1      33.861  47.953  42.860  0.00  0.00    +0.033 A 
ATOM      8  C   UNL     1      33.717  48.854  41.817  0.00  0.00    +0.070 A 
ATOM      9  C   UNL     1      33.737  48.458  40.492  0.00  0.00    +0.143 A 
ATOM     10  C   UNL     1      33.892  47.037  40.137  0.00  0.00    +0.076 A 
ATOM     50  C   UNL     1      34.068  46.165  41.211  0.00  0.00    +0.029 A 
ATOM     53  C   UNL     1      34.037  46.609  42.537  0.00  0.00    +0.025 A 
BRANCH   7   6
ATOM      1  O   UNL     1      32.035  48.055  49.045  0.00  0.00    -0.273 OA
ATOM      2  C   UNL     1      32.893  48.300  48.192  0.00  0.00    +0.241 C 
ATOM      3  N   UNL     1      32.543  48.079  46.855  0.00  0.00    -0.297 N 
ATOM      4  C   UNL     1      32.502  49.329  46.059  0.00  0.00    +0.127 C 
ATOM      5  C   UNL     1      32.504  48.976  44.571  0.00  0.00    +0.124 C 
ATOM      6  N   UNL     1      33.856  48.509  44.179  0.00  0.00    -0.327 N 
ATOM     54  C   UNL     1      34.470  47.689  45.257  0.00  0.00    +0.124 C 
ATOM     55  C   UNL     1      33.430  47.077  46.202  0.00  0.00    +0.127 C 
BRANCH   2  56
ATOM     56  C   UNL     1      34.276  48.826  48.619  0.00  0.00    +0.255 C 
BRANCH  56  57
ATOM     57  O   UNL     1      35.087  47.972  49.452  0.00  0.00    -0.374 OA
ATOM     58  C   UNL     1      36.228  47.243  48.973  0.00  0.00    +0.194 C 
ENDBRANCH  56  57
ENDBRANCH   2  56
ENDBRANCH   7   6
BRANCH   9  51
ATOM     51  O   UNL     1      33.579  49.384  39.500  0.00  0.00    -0.493 OA
ATOM     52  C   UNL     1      34.385  50.560  39.399  0.00  0.00    +0.277 C 
ENDBRANCH   9  51
ENDBRANCH  11  10
BRANCH  21  22
ATOM     22  C   UNL     1      38.575  39.820  40.286  0.00  0.00    +0.246 C 
ATOM     23  N   UNL     1      38.520  39.158  41.502  0.00  0.00    -0.282 N 
ATOM     24  H   UNL     1      37.897  39.531  42.288  0.00  0.00    +0.155 HD
ATOM     45  O   UNL     1      39.210  39.489  39.286  0.00  0.00    -0.270 OA
BRANCH  23  25
ATOM     25  C   UNL     1      39.261  38.032  41.693  0.00  0.00    +0.053 C 
ATOM     26  C   UNL     1      39.025  36.748  41.008  0.00  0.00    +0.103 C 
ATOM     29  N   UNL     1      40.184  36.072  41.177  0.00  0.00    -0.213 NA
ATOM     40  N   UNL     1      41.175  36.820  41.852  0.00  0.00    -0.279 N 
ATOM     41  H   UNL     1      42.158  36.479  42.101  0.00  0.00    +0.166 HD
ATOM     42  C   UNL     1      40.666  38.038  42.127  0.00  0.00    +0.038 C 
BRANCH  26  27
ATOM     27  C   UNL     1      37.753  36.273  40.351  0.00  0.00    +0.029 C 
ATOM     28  C   UNL     1      36.562  36.804  41.127  0.00  0.00    +0.006 C 
ENDBRANCH  26  27
BRANCH  42  43
ATOM     43  C   UNL     1      41.374  39.137  42.844  0.00  0.00    +0.050 C 
ATOM     44  C   UNL     1      41.492  40.309  41.916  0.00  0.00    +0.010 C 
ENDBRANCH  42  43
BRANCH  29  30
ATOM     30  C   UNL     1      40.629  34.704  40.812  0.00  0.00    +0.134 C 
BRANCH  30  31
ATOM     31  C   UNL     1      41.409  34.555  39.485  0.00  0.00    +0.177 C 
BRANCH  31  32
ATOM     32  O   UNL     1      42.304  35.639  39.174  0.00  0.00    -0.376 OA
BRANCH  32  33
ATOM     33  C   UNL     1      43.672  35.516  39.594  0.00  0.00    +0.188 C 
BRANCH  33  34
ATOM     34  C   UNL     1      44.550  34.668  38.648  0.00  0.00    +0.188 C 
BRANCH  34  35
ATOM     35  O   UNL     1      44.762  35.256  37.344  0.00  0.00    -0.375 OA
BRANCH  35  36
ATOM     36  C   UNL     1      43.882  34.810  36.279  0.00  0.00    +0.188 C 
BRANCH  36  37
ATOM     37  C   UNL     1      42.838  35.859  35.838  0.00  0.00    +0.187 C 
BRANCH  37  38
ATOM     38  O   UNL     1      41.450  35.575  36.150  0.00  0.00    -0.381 OA
ATOM     39  C   UNL     1      40.503  36.422  35.470  0.00  0.00    +0.194 C 
ENDBRANCH  37  38
ENDBRANCH  36  37
ENDBRANCH  35  36
ENDBRANCH  34  35
ENDBRANCH  33  34
ENDBRANCH  32  33
ENDBRANCH  31  32
ENDBRANCH  30  31
ENDBRANCH  29  30
ENDBRANCH  23  25
ENDBRANCH  21  22
TORSDOF 18
