REMARK  Name = 9HQ
REMARK  5 active torsions:
REMARK  status: ('A' for Active; 'I' for Inactive)
REMARK    1  A    between atoms: CBD_2  and  NAZ_3
REMARK    2  A    between atoms: CAX_4  and  CAW_6
REMARK    3  A    between atoms: CAW_6  and  CAJ_8
REMARK    4  A    between atoms: CAP_18  and  OBB_19
REMARK    5  A    between atoms: CAH_24  and  CAE_25
REMARK                            x       y       z     vdW  Elec       q    Type
REMARK                         _______ _______ _______ _____ _____    ______ ____
ROOT
ATOM      7  C   UNL     1     -17.190  -6.844  -8.172  0.00  0.00    +0.170 C 
ATOM      8  C   UNL     1     -16.285  -6.072  -7.335  0.00  0.00    +0.170 A 
ATOM      9  N   UNL     1     -15.138  -6.427  -6.793  0.00  0.00    -0.131 NA
ATOM     10  N   UNL     1     -14.630  -5.363  -6.150  0.00  0.00    -0.133 NA
ATOM     11  C   UNL     1     -15.434  -4.312  -6.263  0.00  0.00    +0.147 A 
ATOM     12  C   UNL     1     -15.262  -2.991  -5.723  0.00  0.00    +0.074 C 
ATOM     13  N   UNL     1     -16.547  -4.717  -7.054  0.00  0.00    -0.279 N 
ATOM     14  C   UNL     1     -17.743  -4.023  -7.515  0.00  0.00    +0.071 A 
ATOM     15  C   UNL     1     -18.443  -3.143  -6.665  0.00  0.00    +0.055 A 
ATOM     16  C   UNL     1     -19.607  -2.456  -7.050  0.00  0.00    +0.140 A 
ATOM     19  C   UNL     1     -20.054  -2.699  -8.328  0.00  0.00    +0.037 A 
ATOM     20  C   UNL     1     -19.364  -3.577  -9.175  0.00  0.00    +0.006 A 
ATOM     21  C   UNL     1     -18.200  -4.267  -8.814  0.00  0.00    +0.034 A 
ATOM     22  C   UNL     1     -17.562  -5.199  -9.836  0.00  0.00    +0.078 C 
ATOM     30  N   UNL     1     -17.106  -6.326  -9.569  0.00  0.00    -0.264 NA
ENDROOT
BRANCH  22  23
ATOM     23  C   UNL     1     -17.343  -4.635 -11.246  0.00  0.00    +0.017 A 
ATOM     24  C   UNL     1     -17.123  -3.275 -11.475  0.00  0.00    +0.002 A 
ATOM     25  C   UNL     1     -16.921  -2.754 -12.740  0.00  0.00    +0.011 A 
ATOM     26  C   UNL     1     -16.958  -3.601 -13.791  0.00  0.00    +0.058 A 
ATOM     27  C   UNL     1     -17.174  -4.941 -13.654  0.00  0.00    +0.011 A 
ATOM     28 CL   UNL     1     -16.710  -2.988 -15.405  0.00  0.00    -0.082 Cl
ATOM     29  C   UNL     1     -17.371  -5.440 -12.361  0.00  0.00    +0.002 A 
ENDBRANCH  22  23
BRANCH   7   5
ATOM      5  C   UNL     1     -17.015  -8.361  -8.030  0.00  0.00    +0.108 C 
ATOM      6  C   UNL     1     -17.319  -8.867  -6.642  0.00  0.00    +0.012 C 
BRANCH   5   4
ATOM      3  N   UNL     1     -17.105  -9.929  -9.972  0.00  0.00    -0.205 NA
ATOM      4  C   UNL     1     -17.758  -9.079  -9.104  0.00  0.00    +0.243 C 
ATOM     31  O   UNL     1     -18.975  -8.869  -9.190  0.00  0.00    -0.273 OA
BRANCH   3   2
ATOM      1  C   UNL     1     -18.289 -11.996 -10.623  0.00  0.00    +0.025 C 
ATOM      2  C   UNL     1     -17.720 -10.673 -11.027  0.00  0.00    +0.115 C 
ENDBRANCH   3   2
ENDBRANCH   5   4
ENDBRANCH   7   5
BRANCH  16  17
ATOM     17  O   UNL     1     -20.257  -1.618  -6.235  0.00  0.00    -0.471 OA
ATOM     18  C   UNL     1     -21.433  -0.967  -6.719  0.00  0.00    +0.253 C 
ENDBRANCH  16  17
TORSDOF 5
