REMARK  Name = 2xj0_ligand
REMARK  2 active torsions:
REMARK  status: ('A' for Active; 'I' for Inactive)
REMARK    1  A    between atoms: C_2  and  CA_4
REMARK    2  A    between atoms: CB_5  and  CG_6
REMARK                            x       y       z     vdW  Elec       q    Type
REMARK                         _______ _______ _______ _____ _____    ______ ____
ROOT
ATOM      5  C   UNL     1     -22.093 -35.170   0.312  0.00  0.00    +0.020 A 
ATOM      6  C   UNL     1     -22.555 -36.296   0.983  0.00  0.00    +0.118 A 
ATOM      7  N   UNL     1     -22.812 -37.404   0.310  0.00  0.00    -0.249 NA
ATOM      8  C   UNL     1     -22.633 -37.465  -1.018  0.00  0.00    +0.194 A 
ATOM      9  N   UNL     1     -22.902 -38.590  -1.674  0.00  0.00    -0.301 N 
ATOM     10  H   UNL     1     -23.243 -39.407  -1.167  0.00  0.00    +0.184 HD
ATOM     11  H   UNL     1     -22.768 -38.636  -2.684  0.00  0.00    +0.184 HD
ATOM     12  N   UNL     1     -22.185 -36.393  -1.690  0.00  0.00    -0.249 NA
ATOM     13  C   UNL     1     -21.916 -35.260  -1.065  0.00  0.00    +0.118 A 
ENDROOT
BRANCH   5   4
ATOM      3  C   UNL     1     -21.360 -32.847   0.400  0.00  0.00    +0.031 C 
ATOM      4  C   UNL     1     -21.824 -34.002   1.019  0.00  0.00    +0.028 C 
BRANCH   3   2
ATOM      1  O   UNL     1     -20.694 -30.691   0.549  0.00  0.00    -0.564 OA
ATOM      2  C   UNL     1     -21.106 -31.706   1.152  0.00  0.00    +0.050 C 
ATOM     14  O   UNL     1     -21.304 -31.757   2.386  0.00  0.00    -0.564 OA
ENDBRANCH   3   2
ENDBRANCH   5   4
TORSDOF 2
