REMARK  Name = 4V1
REMARK  1 active torsions:
REMARK  status: ('A' for Active; 'I' for Inactive)
REMARK    1  A    between atoms: CAD_14  and  C2_15
REMARK                            x       y       z     vdW  Elec       q    Type
REMARK                         _______ _______ _______ _____ _____    ______ ____
ROOT
ATOM      1  N   UNL     1      17.806  11.314 -20.973  0.00  0.00    -0.220 NA
ATOM      2  C   UNL     1      17.026  11.761 -19.973  0.00  0.00    +0.166 A 
ATOM      3  N   UNL     1      16.956  11.054 -18.773  0.00  0.00    -0.189 NA
ATOM      4  C   UNL     1      17.645   9.889 -18.601  0.00  0.00    +0.282 A 
ATOM      5  O   UNL     1      17.456   9.382 -17.481  0.00  0.00    -0.265 OA
ATOM      6  C   UNL     1      18.435   9.420 -19.623  0.00  0.00    +0.078 A 
ATOM      7  C   UNL     1      19.218   8.302 -19.686  0.00  0.00    -0.011 A 
ATOM      8  C   UNL     1      19.393   7.347 -18.681  0.00  0.00    +0.044 C 
ATOM      9  C   UNL     1      20.204   6.128 -19.114  0.00  0.00    +0.077 C 
ATOM     10  N   UNL     1      20.084   5.834 -20.564  0.00  0.00    -0.267 NA
ATOM     11  C   UNL     1      18.644   5.556 -20.665  0.00  0.00    +0.090 C 
ATOM     12  C   UNL     1      20.705   7.060 -21.107  0.00  0.00    +0.105 C 
ATOM     13  C   UNL     1      19.881   8.135 -20.854  0.00  0.00    +0.021 A 
ATOM     14  S   UNL     1      19.520   9.373 -21.818  0.00  0.00    -0.071 S 
ATOM     24  C   UNL     1      18.493  10.154 -20.784  0.00  0.00    +0.116 A 
ENDROOT
BRANCH   2  15
ATOM     15  C   UNL     1      16.272  12.915 -19.900  0.00  0.00    +0.035 A 
ATOM     16  C   UNL     1      14.964  12.767 -19.447  0.00  0.00    +0.002 A 
ATOM     17  C   UNL     1      14.179  13.873 -19.286  0.00  0.00    +0.017 A 
ATOM     18  C   UNL     1      12.892  13.734 -18.849  0.00  0.00    +0.034 C 
ATOM     19  C   UNL     1      14.725  15.103 -19.519  0.00  0.00    +0.188 A 
ATOM     20  O   UNL     1      13.915  16.141 -19.317  0.00  0.00    -0.287 OA
ATOM     21  C   UNL     1      16.040  15.313 -19.923  0.00  0.00    +0.017 A 
ATOM     22  C   UNL     1      16.567  16.593 -20.186  0.00  0.00    +0.034 C 
ATOM     23  C   UNL     1      16.832  14.181 -20.104  0.00  0.00    +0.002 A 
ENDBRANCH   2  15
TORSDOF 1
