REMARK  Name = 5KKT
REMARK  8 active torsions:
REMARK  status: ('A' for Active; 'I' for Inactive)
REMARK    1  A    between atoms: C_6  and  C_7
REMARK    2  A    between atoms: C_6  and  N_12
REMARK    3  A    between atoms: C_7  and  C_8
REMARK    4  A    between atoms: C_8  and  O_13
REMARK    5  A    between atoms: C_9  and  O_13
REMARK    6  A    between atoms: C_16  and  C_18
REMARK    7  A    between atoms: C_18  and  C_19
REMARK    8  A    between atoms: C_24  and  C_27
REMARK                            x       y       z     vdW  Elec       q    Type
REMARK                         _______ _______ _______ _____ _____    ______ ____
ROOT
ATOM     13  C   UNL     1      51.922 105.059  33.199  0.00  0.00    +0.114 C 
ENDROOT
BRANCH  13  14
ATOM     14  C   UNL     1      51.687 105.453  31.766  0.00  0.00    +0.252 C 
ATOM     15  N   UNL     1      51.481 104.438  30.898  0.00  0.00    -0.154 NA
ATOM     16  C   UNL     1      51.244 104.550  29.536  0.00  0.00    +0.186 A 
ATOM     17  S   UNL     1      51.134 106.003  28.671  0.00  0.00    -0.049 S 
ATOM     18  C   UNL     1      50.844 105.125  27.174  0.00  0.00    +0.057 A 
ATOM     19  C   UNL     1      50.876 103.811  27.462  0.00  0.00    +0.091 A 
ATOM     30  N   UNL     1      51.096 103.540  28.739  0.00  0.00    -0.222 NA
ATOM     31  O   UNL     1      51.656 106.635  31.457  0.00  0.00    -0.273 OA
BRANCH  19  20
ATOM     20  C   UNL     1      50.676 102.756  26.438  0.00  0.00    +0.038 A 
ATOM     21  C   UNL     1      51.011 101.333  26.575  0.00  0.00    +0.037 A 
ATOM     22  C   UNL     1      51.575 100.549  27.589  0.00  0.00    +0.005 A 
ATOM     23  C   UNL     1      51.725  99.189  27.349  0.00  0.00    +0.021 A 
ATOM     24  C   UNL     1      51.326  98.646  26.122  0.00  0.00    +0.101 A 
ATOM     25  N   UNL     1      50.810  99.414  25.171  0.00  0.00    -0.227 NA
ATOM     26  C   UNL     1      50.637 100.729  25.359  0.00  0.00    +0.141 A 
ATOM     27  N   UNL     1      50.116 101.705  24.568  0.00  0.00    -0.337 N 
ATOM     28  H   UNL     1      49.777 101.560  23.672  0.00  0.00    +0.167 HD
ATOM     29  C   UNL     1      50.135 102.913  25.208  0.00  0.00    +0.075 A 
ENDBRANCH  19  20
ENDBRANCH  13  14
BRANCH  13  12
ATOM     10  C   UNL     1      49.475 106.970  35.398  0.00  0.00    +0.138 A 
ATOM     11  C   UNL     1      50.610 106.639  34.657  0.00  0.00    +0.033 A 
ATOM     12  C   UNL     1      50.692 105.403  34.001  0.00  0.00    -0.010 A 
ATOM     32  C   UNL     1      49.661 104.481  34.096  0.00  0.00    -0.004 A 
ATOM     33  C   UNL     1      48.532 104.807  34.851  0.00  0.00    +0.003 A 
ATOM     34  C   UNL     1      48.438 106.041  35.495  0.00  0.00    +0.037 A 
BRANCH  10   9
ATOM      9  O   UNL     1      49.371 108.092  36.156  0.00  0.00    -0.475 OA
BRANCH   9   8
ATOM      8  C   UNL     1      49.972 109.364  35.886  0.00  0.00    +0.207 C 
BRANCH   8   7
ATOM      7  C   UNL     1      51.084 109.568  36.910  0.00  0.00    +0.065 C 
BRANCH   7   6
ATOM      6  C   UNL     1      50.855 110.811  37.765  0.00  0.00    +0.076 C 
BRANCH   6   5
ATOM      1  C   UNL     1      53.307 115.627  36.127  0.00  0.00    +0.090 C 
ATOM      2  N   UNL     1      52.593 114.576  36.870  0.00  0.00    -0.269 NA
ATOM      3  C   UNL     1      53.483 113.443  37.189  0.00  0.00    +0.090 C 
ATOM      4  C   UNL     1      52.699 112.391  37.984  0.00  0.00    +0.090 C 
ATOM      5  N   UNL     1      51.557 111.955  37.168  0.00  0.00    -0.270 NA
ATOM     35  C   UNL     1      50.627 113.070  36.889  0.00  0.00    +0.090 C 
ATOM     36  C   UNL     1      51.382 114.174  36.134  0.00  0.00    +0.090 C 
ENDBRANCH   6   5
ENDBRANCH   7   6
ENDBRANCH   8   7
ENDBRANCH   9   8
ENDBRANCH  10   9
ENDBRANCH  13  12
TORSDOF 8
