REMARK  Name = 3QZI
REMARK  5 active torsions:
REMARK  status: ('A' for Active; 'I' for Inactive)
REMARK    1  A    between atoms: N_1  and  C_8
REMARK    2  A    between atoms: N_1  and  C_13
REMARK    3  A    between atoms: N_5  and  C_11
REMARK    4  A    between atoms: C_7  and  C_12
REMARK    5  A    between atoms: C_13  and  C_14
REMARK                            x       y       z     vdW  Elec       q    Type
REMARK                         _______ _______ _______ _____ _____    ______ ____
ROOT
ATOM     10  C   UNL     1     -65.782  -9.919  24.366  0.00  0.00    +0.041 A 
ATOM     11  C   UNL     1     -66.158  -9.495  25.678  0.00  0.00    +0.046 A 
ATOM     12  C   UNL     1     -67.470  -9.051  25.962  0.00  0.00    +0.073 A 
ATOM     13 CL   UNL     1     -67.801  -8.594  27.581  0.00  0.00    -0.081 Cl
ATOM     14  C   UNL     1     -68.471  -9.003  24.918  0.00  0.00    +0.145 A 
ATOM     15  C   UNL     1     -68.097  -9.437  23.612  0.00  0.00    +0.049 A 
ATOM     19  C   UNL     1     -66.767  -9.901  23.324  0.00  0.00    +0.059 A 
ENDROOT
BRANCH  19  20
ATOM     20  C   UNL     1     -66.478 -10.326  22.048  0.00  0.00    +0.243 C 
ATOM     21  O   UNL     1     -65.668 -11.223  21.861  0.00  0.00    -0.270 OA
ATOM     22  N   UNL     1     -67.140  -9.803  20.989  0.00  0.00    -0.325 N 
ATOM     23  H   UNL     1     -66.912 -10.136  19.998  0.00  0.00    +0.145 HD
ATOM     24  H   UNL     1     -67.891  -9.056  21.143  0.00  0.00    +0.145 HD
ENDBRANCH  19  20
BRANCH  14  16
ATOM     16  N   UNL     1     -69.691  -8.593  25.123  0.00  0.00    +0.058 N 
ATOM     17  O   UNL     1     -70.660  -8.890  24.278  0.00  0.00    -0.126 OA
ATOM     18  O   UNL     1     -69.997  -7.835  26.145  0.00  0.00    -0.126 OA
ENDBRANCH  14  16
BRANCH  10   1
ATOM      1  N   UNL     1     -64.562 -10.325  24.119  0.00  0.00    -0.339 N 
ATOM      2  H   UNL     1     -64.406 -10.985  23.291  0.00  0.00    +0.146 HD
BRANCH   1   3
ATOM      3  C   UNL     1     -63.384  -9.919  24.925  0.00  0.00    +0.140 C 
BRANCH   3   4
ATOM      4  C   UNL     1     -63.061 -10.994  25.932  0.00  0.00    +0.006 A 
ATOM      5  C   UNL     1     -63.262 -12.357  25.680  0.00  0.00    +0.119 A 
ATOM      6  N   UNL     1     -62.985 -13.346  26.575  0.00  0.00    -0.243 NA
ATOM      7  C   UNL     1     -62.481 -12.948  27.773  0.00  0.00    +0.221 A 
ATOM      8  N   UNL     1     -62.242 -11.659  28.131  0.00  0.00    -0.243 NA
ATOM      9  C   UNL     1     -62.540 -10.706  27.194  0.00  0.00    +0.119 A 
ENDBRANCH   3   4
ENDBRANCH   1   3
ENDBRANCH  10   1
TORSDOF 5
