REMARK  Name = D7D
REMARK  5 active torsions:
REMARK  status: ('A' for Active; 'I' for Inactive)
REMARK    1  A    between atoms: N3_3  and  C6_6
REMARK    2  A    between atoms: N3_3  and  S_14
REMARK    3  A    between atoms: C4_4  and  N2_17
REMARK    4  A    between atoms: C8_7  and  C9_8
REMARK    5  A    between atoms: C8_7  and  S_14
REMARK                            x       y       z     vdW  Elec       q    Type
REMARK                         _______ _______ _______ _____ _____    ______ ____
ROOT
ATOM      1  C   UNL     1      -2.439   2.605  11.980  0.00  0.00    +0.371 C 
ATOM      2  N   UNL     1      -2.318   3.862  12.529  0.00  0.00    +0.016 NA
ATOM      3  C   UNL     1      -3.094   4.760  11.887  0.00  0.00    +0.472 C 
ATOM      4  N   UNL     1      -3.928   4.581  10.818  0.00  0.00    +0.010 NA
ATOM      5  C   UNL     1      -4.008   3.315  10.289  0.00  0.00    +0.321 C 
ATOM      6  N   UNL     1      -4.784   3.184   9.144  0.00  0.00    -0.193 N 
ATOM     18  C   UNL     1      -5.320   4.386   8.489  0.00  0.00    +0.253 C 
ATOM     19  N   UNL     1      -1.744   1.477  12.382  0.00  0.00    -0.034 NA
ATOM     20  C   UNL     1      -2.150   0.405  11.570  0.00  0.00    +0.232 C 
ATOM     21  C   UNL     1      -3.068   0.853  10.646  0.00  0.00    +0.049 C 
ATOM     22  C   UNL     1      -3.274   2.251  10.876  0.00  0.00    +0.243 C 
ENDROOT
BRANCH   6   7
ATOM      7  C   UNL     1      -5.188   1.881   8.666  0.00  0.00    +0.163 C 
ATOM      8  C   UNL     1      -6.620   1.676   8.089  0.00  0.00    +0.066 C 
ATOM      9  C   UNL     1      -5.978   0.788   6.978  0.00  0.00    +0.105 C 
ATOM     17  C   UNL     1      -4.597   1.414   7.302  0.00  0.00    +0.066 C 
BRANCH   9  10
ATOM     10  N   UNL     1      -6.502   0.912   5.632  0.00  0.00    -0.083 NA
BRANCH  10  11
ATOM     11  S   UNL     1      -7.912   0.162   5.249  0.00  0.00    +0.057 S 
ATOM     12  O   UNL     1      -8.768   0.267   6.374  0.00  0.00    -0.156 OA
ATOM     16  O   UNL     1      -8.330   0.660   3.989  0.00  0.00    -0.156 OA
BRANCH  11  13
ATOM     13  C   UNL     1      -7.460  -1.459   5.062  0.00  0.00    +0.171 C 
BRANCH  13  14
ATOM     14  C   UNL     1      -8.683  -2.381   4.931  0.00  0.00    +0.027 C 
ATOM     15  C   UNL     1      -9.165  -2.891   6.280  0.00  0.00    +0.002 C 
ENDBRANCH  13  14
ENDBRANCH  11  13
ENDBRANCH  10  11
ENDBRANCH   9  10
ENDBRANCH   6   7
TORSDOF 5
