REMARK  Name = 5FM3
REMARK  6 active torsions:
REMARK  status: ('A' for Active; 'I' for Inactive)
REMARK    1  A    between atoms: N_1  and  C_18
REMARK    2  A    between atoms: C_9  and  C_11
REMARK    3  A    between atoms: C_14  and  C_17
REMARK    4  A    between atoms: C_18  and  C_19
REMARK    5  A    between atoms: C_18  and  C_20
REMARK    6  A    between atoms: C_18  and  C_21
REMARK                            x       y       z     vdW  Elec       q    Type
REMARK                         _______ _______ _______ _____ _____    ______ ____
ROOT
ATOM      1  N   UNL     1      -2.452 -25.837  -7.139  0.00  0.00    -0.240 N 
ATOM      6  N   UNL     1      -2.950 -27.106  -6.804  0.00  0.00    -0.168 NA
ATOM      7  C   UNL     1      -2.000 -28.007  -7.165  0.00  0.00    +0.105 A 
ATOM     15  C   UNL     1      -0.859 -27.241  -7.744  0.00  0.00    +0.086 A 
ATOM     16  C   UNL     1       0.467 -27.564  -8.322  0.00  0.00    +0.131 A 
ATOM     17  N   UNL     1       0.904 -28.844  -8.411  0.00  0.00    -0.343 N 
ATOM     18  H   UNL     1       1.865 -29.053  -8.832  0.00  0.00    +0.144 HD
ATOM     19  H   UNL     1       0.288 -29.645  -8.060  0.00  0.00    +0.144 HD
ATOM     20  N   UNL     1       1.228 -26.535  -8.757  0.00  0.00    -0.220 NA
ATOM     21  C   UNL     1       0.810 -25.258  -8.674  0.00  0.00    +0.225 A 
ATOM     22  N   UNL     1      -0.378 -24.888  -8.165  0.00  0.00    -0.216 NA
ATOM     23  C   UNL     1      -1.240 -25.819  -7.693  0.00  0.00    +0.164 A 
ENDROOT
BRANCH   7   8
ATOM      8  C   UNL     1      -2.082 -29.484  -6.994  0.00  0.00    +0.003 A 
ATOM      9  C   UNL     1      -1.243 -30.118  -6.086  0.00  0.00    +0.010 A 
ATOM     10  C   UNL     1      -1.318 -31.494  -5.915  0.00  0.00    +0.004 A 
ATOM     11  C   UNL     1      -2.232 -32.236  -6.650  0.00  0.00    -0.050 A 
ATOM     12  C   UNL     1      -2.307 -33.728  -6.460  0.00  0.00    +0.044 C 
ATOM     13  C   UNL     1      -3.075 -31.603  -7.555  0.00  0.00    +0.004 A 
ATOM     14  C   UNL     1      -3.002 -30.225  -7.725  0.00  0.00    +0.010 A 
ENDBRANCH   7   8
BRANCH   1   2
ATOM      2  C   UNL     1      -3.245 -24.608  -6.883  0.00  0.00    +0.058 C 
ATOM      3  C   UNL     1      -4.583 -25.015  -6.280  0.00  0.00    +0.036 C 
ATOM      4  C   UNL     1      -2.486 -23.710  -5.914  0.00  0.00    +0.036 C 
ATOM      5  C   UNL     1      -3.480 -23.880  -8.201  0.00  0.00    +0.036 C 
ENDBRANCH   1   2
TORSDOF 2
