REMARK  Name = 3ha6_ligand
REMARK  9 active torsions:
REMARK  status: ('A' for Active; 'I' for Inactive)
REMARK    1  A    between atoms: C17_9  and  C16_23
REMARK    2  A    between atoms: C17_9  and  N33_33
REMARK    3  A    between atoms: C20_10  and  N35_35
REMARK    4  A    between atoms: C21_11  and  C16_23
REMARK    5  A    between atoms: C1_16  and  O36_36
REMARK    6  A    between atoms: C2_17  and  O37_37
REMARK    7  A    between atoms: C19_25  and  N34_34
REMARK    8  A    between atoms: C23_26  and  O36_36
REMARK    9  A    between atoms: C25_27  and  O37_37
REMARK                            x       y       z     vdW  Elec       q    Type
REMARK                         _______ _______ _______ _____ _____    ______ ____
ROOT
ATOM      7  N   UNL     1     -26.820  20.604   3.182  0.00  0.00    -0.287 N 
ATOM      8  H   UNL     1     -27.033  20.121   2.297  0.00  0.00    +0.190 HD
ATOM      9  C   UNL     1     -27.767  21.234   4.010  0.00  0.00    +0.173 A 
ATOM     10  N   UNL     1     -27.339  21.936   5.065  0.00  0.00    -0.233 NA
ATOM     11  C   UNL     1     -28.273  22.517   5.821  0.00  0.00    +0.190 A 
ATOM     12  N   UNL     1     -27.793  23.239   6.919  0.00  0.00    -0.250 N 
ATOM     13  H   UNL     1     -26.772  23.318   7.028  0.00  0.00    +0.218 HD
ATOM     24  N   UNL     1     -29.584  22.435   5.574  0.00  0.00    -0.229 NA
ATOM     25  C   UNL     1     -29.938  21.714   4.499  0.00  0.00    +0.193 A 
ATOM     26  N   UNL     1     -31.289  21.564   4.150  0.00  0.00    -0.239 N 
ATOM     27  H   UNL     1     -31.483  21.040   3.285  0.00  0.00    +0.222 HD
ATOM     38  N   UNL     1     -29.060  21.099   3.695  0.00  0.00    -0.232 NA
ENDROOT
BRANCH  26  28
ATOM     28  C   UNL     1     -32.407  22.050   4.851  0.00  0.00    +0.074 A 
ATOM     29  C   UNL     1     -32.342  22.625   6.102  0.00  0.00    +0.027 A 
ATOM     30  C   UNL     1     -33.483  23.075   6.734  0.00  0.00    -0.004 A 
ATOM     31  C   UNL     1     -34.728  22.966   6.139  0.00  0.00    +0.040 A 
ATOM     32  N   UNL     1     -35.853  23.394   6.730  0.00  0.00    -0.300 NA
ATOM     33  C   UNL     1     -35.727  23.944   7.940  0.00  0.00    +0.090 A 
ATOM     34  C   UNL     1     -34.532  24.091   8.606  0.00  0.00    +0.032 A 
ATOM     35  C   UNL     1     -34.777  22.386   4.890  0.00  0.00    +0.022 A 
ATOM     36  C   UNL     1     -33.385  23.645   7.985  0.00  0.00    +0.033 A 
ATOM     37  C   UNL     1     -33.643  21.936   4.254  0.00  0.00    +0.036 A 
ENDBRANCH  26  28
BRANCH  12  14
ATOM     14  C   UNL     1     -28.599  23.863   7.882  0.00  0.00    +0.048 A 
ATOM     15  C   UNL     1     -28.346  23.612   9.214  0.00  0.00    +0.026 A 
ATOM     16  C   UNL     1     -29.113  24.212  10.192  0.00  0.00    +0.111 A 
ATOM     19  C   UNL     1     -30.137  25.064   9.834  0.00  0.00    +0.108 A 
ATOM     22  C   UNL     1     -30.393  25.329   8.504  0.00  0.00    -0.001 A 
ATOM     23  C   UNL     1     -29.620  24.727   7.533  0.00  0.00    -0.015 A 
BRANCH  16  17
ATOM     17  O   UNL     1     -28.889  23.976  11.542  0.00  0.00    -0.327 OA
ATOM     18  C   UNL     1     -27.830  23.028  11.666  0.00  0.00    +0.229 C 
ENDBRANCH  16  17
BRANCH  19  20
ATOM     20  O   UNL     1     -30.882  25.648  10.845  0.00  0.00    -0.332 OA
ATOM     21  C   UNL     1     -32.056  26.195  10.244  0.00  0.00    +0.225 C 
ENDBRANCH  19  20
ENDBRANCH  12  14
BRANCH   7   6
ATOM      6  C   UNL     1     -25.491  20.739   3.768  0.00  0.00    +0.152 C 
BRANCH   6   5
ATOM      5  C   UNL     1     -24.660  21.696   2.906  0.00  0.00    +0.090 C 
BRANCH   5   4
ATOM      1  C   UNL     1     -22.088  24.031   5.394  0.00  0.00    -0.016 A 
ATOM      2  C   UNL     1     -21.753  22.728   5.061  0.00  0.00    -0.016 A 
ATOM      3  C   UNL     1     -22.587  21.974   4.258  0.00  0.00    -0.007 A 
ATOM      4  C   UNL     1     -23.765  22.518   3.781  0.00  0.00    -0.007 A 
ATOM     39  C   UNL     1     -24.091  23.824   4.119  0.00  0.00    +0.133 A 
ATOM     40  F   UNL     1     -25.231  24.382   3.669  0.00  0.00    -0.189 F 
ATOM     41  C   UNL     1     -23.261  24.581   4.922  0.00  0.00    +0.024 A 
ENDBRANCH   5   4
ENDBRANCH   6   5
ENDBRANCH   7   6
TORSDOF 7
