REMARK  Name = 89G
REMARK  4 active torsions:
REMARK  status: ('A' for Active; 'I' for Inactive)
REMARK    1  A    between atoms: C10_6  and  C14_16
REMARK    2  A    between atoms: C15_8  and  O23_23
REMARK    3  A    between atoms: C11_14  and  O22_22
REMARK    4  A    between atoms: C12_15  and  O22_22
REMARK                            x       y       z     vdW  Elec       q    Type
REMARK                         _______ _______ _______ _____ _____    ______ ____
ROOT
ATOM      5  C   UNL     1      15.103  11.559  -3.374  0.00  0.00    +0.147 A 
ATOM      6  C   UNL     1      14.964  12.002  -2.072  0.00  0.00    +0.057 A 
ATOM     17  C   UNL     1      16.013  12.599  -1.403  0.00  0.00    +0.005 A 
ATOM     18  C   UNL     1      17.214  12.767  -2.075  0.00  0.00    +0.000 A 
ATOM     19  C   UNL     1      17.358  12.315  -3.374  0.00  0.00    +0.003 A 
ATOM     20  C   UNL     1      16.314  11.700  -4.037  0.00  0.00    +0.037 A 
ENDROOT
BRANCH   6   7
ATOM      7  C   UNL     1      13.681  11.809  -1.353  0.00  0.00    +0.138 C 
ATOM      8  N   UNL     1      13.568  10.799  -0.555  0.00  0.00    -0.164 NA
ATOM      9  N   UNL     1      12.386  10.651   0.095  0.00  0.00    -0.214 N 
ATOM     10  C   UNL     1      12.290   9.493   0.962  0.00  0.00    +0.157 C 
ATOM     11  C   UNL     1      11.332  11.529   0.041  0.00  0.00    +0.280 C 
ATOM     12  O   UNL     1      10.294  11.390   0.693  0.00  0.00    -0.265 OA
ATOM     13  C   UNL     1      11.485  12.686  -0.893  0.00  0.00    +0.101 C 
ATOM     14  C   UNL     1      12.627  12.806  -1.608  0.00  0.00    +0.163 C 
BRANCH  14  15
ATOM     15  O   UNL     1      12.928  13.812  -2.525  0.00  0.00    -0.470 OA
ATOM     16  C   UNL     1      11.733  14.512  -2.875  0.00  0.00    +0.253 C 
ENDBRANCH  14  15
ENDBRANCH   6   7
BRANCH   5   4
ATOM      4  O   UNL     1      14.002  10.942  -3.955  0.00  0.00    -0.453 OA
BRANCH   4   3
ATOM      1  C   UNL     1      13.343  12.434  -7.247  0.00  0.00    +0.003 A 
ATOM      2  C   UNL     1      13.697  12.351  -5.916  0.00  0.00    +0.037 A 
ATOM      3  C   UNL     1      13.689  11.116  -5.294  0.00  0.00    +0.145 A 
ATOM     21  C   UNL     1      13.294   9.982  -5.976  0.00  0.00    +0.037 A 
ATOM     22  C   UNL     1      12.913  10.074  -7.297  0.00  0.00    +0.003 A 
ATOM     23  C   UNL     1      12.951  11.300  -7.931  0.00  0.00    +0.000 A 
ENDBRANCH   4   3
ENDBRANCH   5   4
TORSDOF 4
