REMARK  Name = 3orn_ligand
REMARK  9 active torsions:
REMARK  status: ('A' for Active; 'I' for Inactive)
REMARK    1  A    between atoms: C4_1  and  C26_11
REMARK    2  A    between atoms: C6_3  and  C7_4
REMARK    3  A    between atoms: C7_4  and  N8_15
REMARK    4  A    between atoms: C1_12  and  N2_13
REMARK    5  A    between atoms: N2_13  and  C3_14
REMARK    6  A    between atoms: N28_28  and  O29_29
REMARK    7  A    between atoms: O29_29  and  C30_30
REMARK    8  A    between atoms: C30_30  and  C31_31
REMARK    9  A    between atoms: C31_31  and  O32_32
REMARK                            x       y       z     vdW  Elec       q    Type
REMARK                         _______ _______ _______ _____ _____    ______ ____
ROOT
ATOM      1  C   UNL     1      63.202 -10.375  12.198  0.00  0.00    +0.061 A 
ATOM      2  C   UNL     1      64.584 -10.816  12.362  0.00  0.00    +0.105 A 
ATOM      3  C   UNL     1      65.385 -10.109  13.315  0.00  0.00    +0.186 A 
ATOM      4  F   UNL     1      66.660 -10.447  13.520  0.00  0.00    -0.193 F 
ATOM      5  C   UNL     1      64.881  -9.039  14.076  0.00  0.00    +0.164 A 
ATOM      6  F   UNL     1      65.696  -8.433  14.953  0.00  0.00    -0.189 F 
ATOM      7  C   UNL     1      63.544  -8.602  13.930  0.00  0.00    +0.008 A 
ATOM     35  C   UNL     1      62.707  -9.275  12.985  0.00  0.00    -0.001 A 
ENDROOT
BRANCH   1  26
ATOM     26  C   UNL     1      62.288 -11.065  11.207  0.00  0.00    +0.215 C 
ATOM     27  N   UNL     1      60.930 -10.968  11.423  0.00  0.00    -0.163 N 
ATOM     28  H   UNL     1      60.545 -10.608  12.296  0.00  0.00    +0.221 HD
ATOM     34  O   UNL     1      62.772 -11.668  10.243  0.00  0.00    -0.394 OA
BRANCH  27  29
ATOM     29  O   UNL     1      60.098 -11.402  10.350  0.00  0.00    -0.255 OA
BRANCH  29  30
ATOM     30  C   UNL     1      59.317 -10.301   9.852  0.00  0.00    +0.225 C 
BRANCH  30  31
ATOM     31  C   UNL     1      59.711 -10.042   8.406  0.00  0.00    +0.187 C 
BRANCH  31  32
ATOM     32  O   UNL     1      59.225 -11.097   7.595  0.00  0.00    -0.393 OA
ATOM     33  H   UNL     1      59.606 -11.927   7.890  0.00  0.00    +0.209 HD
ENDBRANCH  31  32
ENDBRANCH  30  31
ENDBRANCH  29  30
ENDBRANCH  27  29
ENDBRANCH   1  26
BRANCH   2  16
ATOM     16  N   UNL     1      65.087 -11.901  11.598  0.00  0.00    -0.274 N 
ATOM     17  H   UNL     1      64.960 -11.757  10.596  0.00  0.00    +0.207 HD
BRANCH  16  18
ATOM     18  C   UNL     1      65.721 -13.133  11.883  0.00  0.00    +0.095 A 
ATOM     19  C   UNL     1      65.829 -14.102  10.850  0.00  0.00    +0.156 A 
ATOM     20  F   UNL     1      65.327 -13.824   9.636  0.00  0.00    -0.191 F 
ATOM     21  C   UNL     1      66.454 -15.360  11.056  0.00  0.00    +0.032 A 
ATOM     22  C   UNL     1      66.986 -15.656  12.336  0.00  0.00    -0.005 A 
ATOM     23  I   UNL     1      67.916 -17.464  12.692  0.00  0.00    -0.061 I 
ATOM     24  C   UNL     1      66.896 -14.722  13.386  0.00  0.00    -0.008 A 
ATOM     25  C   UNL     1      66.271 -13.481  13.157  0.00  0.00    +0.014 A 
ENDBRANCH  16  18
ENDBRANCH   2  16
BRANCH   7   8
ATOM      8  C   UNL     1      63.022  -7.448  14.755  0.00  0.00    +0.229 C 
BRANCH   8   9
ATOM      9  N   UNL     1      61.978  -7.837  15.694  0.00  0.00    -0.139 N 
ATOM     10  O   UNL     1      62.477  -8.761  16.673  0.00  0.00    -0.252 OA
ATOM     11  C   UNL     1      61.448  -9.567  17.288  0.00  0.00    +0.200 C 
ATOM     12  C   UNL     1      60.380  -8.629  17.846  0.00  0.00    +0.053 C 
ATOM     13  C   UNL     1      59.715  -7.879  16.706  0.00  0.00    +0.142 C 
ATOM     14  C   UNL     1      60.675  -7.369  15.648  0.00  0.00    +0.203 C 
ATOM     15  O   UNL     1      60.267  -6.574  14.805  0.00  0.00    -0.397 OA
ENDBRANCH   8   9
ENDBRANCH   7   8
TORSDOF 9
