REMARK  Name = EQT
REMARK  0 active torsions:
REMARK  status: ('A' for Active; 'I' for Inactive)
REMARK                            x       y       z     vdW  Elec       q    Type
REMARK                         _______ _______ _______ _____ _____    ______ ____
ROOT
ATOM      1  C   UNL     1      11.790   7.428  43.994  0.00  0.00    +0.193 A 
ATOM      2  C   UNL     1      10.446   7.483  44.484  0.00  0.00    +0.067 A 
ATOM      3  C   UNL     1      10.237   6.205  45.041  0.00  0.00    +0.107 A 
ATOM      4  C   UNL     1       9.016   5.862  45.618  0.00  0.00    +0.021 A 
ATOM      5  C   UNL     1       7.998   6.807  45.659  0.00  0.00    +0.003 A 
ATOM      6  C   UNL     1       8.186   8.078  45.127  0.00  0.00    +0.012 A 
ATOM      7  N   UNL     1      11.391   5.507  44.867  0.00  0.00    -0.147 NA
ATOM      8  C   UNL     1       9.400   8.402  44.542  0.00  0.00    +0.062 A 
ATOM      9 CL   UNL     1       9.610   9.993  43.877  0.00  0.00    -0.082 Cl
ATOM     10  N   UNL     1      12.349   6.249  44.233  0.00  0.00    -0.130 NA
ATOM     11  N   UNL     1      12.441   8.425  43.397  0.00  0.00    -0.105 NA
ENDROOT
TORSDOF 0
