REMARK  Name = 4W4V
REMARK  6 active torsions:
REMARK  status: ('A' for Active; 'I' for Inactive)
REMARK    1  A    between atoms: C_4  and  N_26
REMARK    2  A    between atoms: C_6  and  N_27
REMARK    3  A    between atoms: C_11  and  N_29
REMARK    4  A    between atoms: C_17  and  C_18
REMARK    5  A    between atoms: C_20  and  N_21
REMARK    6  A    between atoms: C_22  and  C_24
REMARK                            x       y       z     vdW  Elec       q    Type
REMARK                         _______ _______ _______ _____ _____    ______ ____
ROOT
ATOM     17  N   UNL     1      73.908  77.710  32.138  0.00  0.00    -0.238 N 
ATOM     18  N   UNL     1      72.814  77.153  32.733  0.00  0.00    -0.173 NA
ATOM     19  C   UNL     1      72.030  78.149  33.197  0.00  0.00    +0.158 A 
ATOM     20  C   UNL     1      72.637  79.360  32.882  0.00  0.00    +0.073 A 
ATOM     34  C   UNL     1      73.840  79.052  32.277  0.00  0.00    +0.138 A 
ENDROOT
BRANCH  17  16
ATOM      1  C   UNL     1      76.500  76.811  29.719  0.00  0.00    +0.003 A 
ATOM      2  C   UNL     1      77.000  75.641  30.294  0.00  0.00    +0.013 A 
ATOM      3  C   UNL     1      76.445  75.174  31.491  0.00  0.00    +0.039 A 
ATOM     15  C   UNL     1      75.402  75.879  32.096  0.00  0.00    +0.041 A 
ATOM     16  C   UNL     1      74.902  77.044  31.524  0.00  0.00    +0.066 A 
ATOM     35  C   UNL     1      75.444  77.500  30.314  0.00  0.00    +0.028 A 
BRANCH   3   4
ATOM      4  C   UNL     1      76.947  73.964  32.196  0.00  0.00    +0.248 C 
ATOM      5  O   UNL     1      78.150  73.721  32.190  0.00  0.00    -0.270 OA
ATOM      6  N   UNL     1      76.002  73.133  32.907  0.00  0.00    -0.281 N 
ATOM      7  H   UNL     1      75.495  73.798  33.575  0.00  0.00    +0.155 HD
BRANCH   6   8
ATOM      8  C   UNL     1      76.304  71.976  33.695  0.00  0.00    +0.037 A 
ATOM      9  C   UNL     1      75.387  70.927  33.784  0.00  0.00    +0.046 A 
ATOM     10  C   UNL     1      75.686  69.849  34.625  0.00  0.00    +0.040 A 
ATOM     11  C   UNL     1      74.767  68.699  34.719  0.00  0.00    +0.065 C 
ATOM     12  N   UNL     1      76.811  69.832  35.364  0.00  0.00    -0.260 NA
ATOM     13  C   UNL     1      77.693  70.853  35.339  0.00  0.00    +0.113 A 
ATOM     14  C   UNL     1      77.446  71.945  34.504  0.00  0.00    +0.043 A 
ENDBRANCH   6   8
ENDBRANCH   3   4
ENDBRANCH  17  16
BRANCH  20  21
ATOM     21  N   UNL     1      72.256  80.576  33.345  0.00  0.00    -0.267 N 
ATOM     22  H   UNL     1      71.443  80.601  34.040  0.00  0.00    +0.157 HD
ATOM     23  C   UNL     1      72.841  81.817  32.989  0.00  0.00    +0.308 C 
ATOM     24  N   UNL     1      72.465  83.048  33.595  0.00  0.00    -0.268 N 
ATOM     25  H   UNL     1      72.856  83.955  33.184  0.00  0.00    +0.156 HD
ATOM     33  O   UNL     1      73.647  81.859  32.098  0.00  0.00    -0.252 OA
BRANCH  24  26
ATOM     26  C   UNL     1      71.591  83.138  34.725  0.00  0.00    +0.053 A 
ATOM     27  C   UNL     1      70.538  84.040  34.742  0.00  0.00    +0.062 A 
ATOM     28 CL   UNL     1      70.238  85.110  33.393  0.00  0.00    -0.082 Cl
ATOM     29  C   UNL     1      69.751  84.144  35.911  0.00  0.00    +0.022 A 
ATOM     30  C   UNL     1      69.956  83.308  37.014  0.00  0.00    +0.002 A 
ATOM     31  C   UNL     1      71.021  82.395  36.998  0.00  0.00    +0.002 A 
ATOM     32  C   UNL     1      71.838  82.317  35.863  0.00  0.00    +0.025 A 
ENDBRANCH  24  26
ENDBRANCH  20  21
TORSDOF 5
