REMARK  Name = 5A46
REMARK  4 active torsions:
REMARK  status: ('A' for Active; 'I' for Inactive)
REMARK    1  A    between atoms: C_1  and  N_17
REMARK    2  A    between atoms: C_6  and  N_18
REMARK    3  A    between atoms: C_7  and  C_11
REMARK    4  A    between atoms: C_12  and  N_23
REMARK                            x       y       z     vdW  Elec       q    Type
REMARK                         _______ _______ _______ _____ _____    ______ ____
ROOT
ATOM      6  C   UNL     1      84.419   2.246   4.748  0.00  0.00    +0.032 A 
ATOM      7  C   UNL     1      84.932   2.898   5.880  0.00  0.00    +0.050 A 
ATOM      8  C   UNL     1      85.719   2.182   6.778  0.00  0.00    +0.068 A 
ATOM      9  C   UNL     1      86.003   0.834   6.572  0.00  0.00    +0.090 A 
ATOM     10  C   UNL     1      85.502   0.183   5.446  0.00  0.00    +0.032 A 
ATOM     11  N   UNL     1      86.799   0.356   7.613  0.00  0.00    -0.228 NA
ATOM     12  C   UNL     1      86.949   1.388   8.426  0.00  0.00    +0.146 A 
ATOM     29  N   UNL     1      86.384   2.529   7.945  0.00  0.00    -0.338 N 
ATOM     30  H   UNL     1      86.362   3.479   8.295  0.00  0.00    +0.167 HD
ATOM     31  C   UNL     1      84.705   0.883   4.555  0.00  0.00    +0.025 A 
ENDROOT
BRANCH  12  13
ATOM     13  C   UNL     1      87.820   1.341   9.616  0.00  0.00    +0.103 C 
ATOM     14  C   UNL     1      88.691   0.200   9.827  0.00  0.00    +0.262 C 
ATOM     15  N   UNL     1      89.223  -0.003  11.052  0.00  0.00    -0.321 N 
ATOM     16  H   UNL     1      89.746  -0.857  11.214  0.00  0.00    +0.169 HD
ATOM     17  C   UNL     1      89.066   0.845  12.141  0.00  0.00    +0.054 A 
ATOM     18  C   UNL     1      89.651   0.511  13.365  0.00  0.00    +0.026 A 
ATOM     19  C   UNL     1      89.536   1.356  14.452  0.00  0.00    +0.005 A 
ATOM     20  C   UNL     1      88.817   2.531  14.350  0.00  0.00    +0.039 A 
ATOM     21  C   UNL     1      88.206   2.830  13.154  0.00  0.00    +0.134 A 
ATOM     22  F   UNL     1      87.530   3.996  13.070  0.00  0.00    -0.205 F 
ATOM     23  C   UNL     1      88.288   2.031  12.012  0.00  0.00    +0.055 A 
ATOM     24  O   UNL     1      88.843  -0.666   8.969  0.00  0.00    -0.267 OA
ATOM     25  C   UNL     1      87.682   2.309  10.693  0.00  0.00    +0.053 C 
BRANCH  25  26
ATOM     26  N   UNL     1      86.962   3.458  10.581  0.00  0.00    -0.357 N 
ATOM     27  H   UNL     1      86.467   3.739   9.747  0.00  0.00    +0.142 HD
ATOM     28  H   UNL     1      86.846   4.092  11.364  0.00  0.00    +0.142 HD
ENDBRANCH  25  26
ENDBRANCH  12  13
BRANCH   6   5
ATOM      1  C   UNL     1      81.136   5.208   1.247  0.00  0.00    +0.105 C 
ATOM      2  N   UNL     1      81.890   4.697   2.401  0.00  0.00    -0.302 NA
ATOM      3  C   UNL     1      83.323   4.683   2.119  0.00  0.00    +0.103 C 
ATOM      4  C   UNL     1      84.108   4.230   3.333  0.00  0.00    +0.120 C 
ATOM      5  N   UNL     1      83.627   2.932   3.822  0.00  0.00    -0.327 N 
ATOM     32  C   UNL     1      82.171   2.852   3.990  0.00  0.00    +0.120 C 
ATOM     33  C   UNL     1      81.450   3.350   2.752  0.00  0.00    +0.103 C 
ENDBRANCH   6   5
TORSDOF 3
