REMARK  Name = 4YJS
REMARK  9 active torsions:
REMARK  status: ('A' for Active; 'I' for Inactive)
REMARK    1  A    between atoms: O_1  and  S_2
REMARK    2  A    between atoms: S_2  and  O_3
REMARK    3  A    between atoms: C_6  and  N_12
REMARK    4  A    between atoms: C_15  and  N_19
REMARK    5  A    between atoms: N_19  and  C_20
REMARK    6  A    between atoms: N_19  and  C_24
REMARK    7  A    between atoms: C_20  and  C_21
REMARK    8  A    between atoms: C_21  and  C_22
REMARK    9  A    between atoms: C_22  and  O_23
REMARK                            x       y       z     vdW  Elec       q    Type
REMARK                         _______ _______ _______ _____ _____    ______ ____
ROOT
ATOM     11  N   UNL     1      25.332 -42.587  35.497  0.00  0.00    -0.283 N 
ATOM     12  H   UNL     1      26.301 -43.019  35.640  0.00  0.00    +0.155 HD
ATOM     13  C   UNL     1      25.097 -42.026  34.261  0.00  0.00    +0.221 A 
ATOM     14  N   UNL     1      26.137 -42.118  33.436  0.00  0.00    -0.223 NA
ATOM     15  C   UNL     1      25.989 -41.591  32.217  0.00  0.00    +0.118 A 
ATOM     16  C   UNL     1      24.837 -40.972  31.805  0.00  0.00    +0.064 A 
ATOM     17  C   UNL     1      23.795 -40.907  32.720  0.00  0.00    +0.131 A 
ATOM     34  N   UNL     1      23.947 -41.427  33.949  0.00  0.00    -0.199 NA
ENDROOT
BRANCH  11  10
ATOM      3  S   UNL     1      21.080 -41.150  38.149  0.00  0.00    -0.108 S 
ATOM      4  N   UNL     1      20.630 -42.178  39.363  0.00  0.00    -0.210 NA
ATOM      5  H   UNL     1      19.617 -42.325  39.674  0.00  0.00    +0.146 HD
ATOM      6  C   UNL     1      21.777 -42.865  39.966  0.00  0.00    +0.140 C 
ATOM      7  C   UNL     1      22.811 -42.907  38.843  0.00  0.00    -0.008 A 
ATOM      8  C   UNL     1      23.945 -43.694  38.735  0.00  0.00    +0.008 A 
ATOM      9  C   UNL     1      24.764 -43.563  37.611  0.00  0.00    +0.024 A 
ATOM     10  C   UNL     1      24.468 -42.661  36.578  0.00  0.00    +0.035 A 
ATOM     35  C   UNL     1      23.310 -41.886  36.703  0.00  0.00    +0.050 A 
ATOM     36  C   UNL     1      22.533 -42.034  37.830  0.00  0.00    +0.082 A 
BRANCH   3   1
ATOM      1  O   UNL     1      20.140 -41.237  37.078  0.00  0.00    -0.280 OA
ATOM      2  H   UNL     1      19.221 -40.831  37.384  0.00  0.00    +0.242 HD
ENDBRANCH   3   1
BRANCH   3  37
ATOM     37  O   UNL     1      21.379 -39.834  38.638  0.00  0.00    -0.280 OA
ATOM     38  H   UNL     1      21.779 -39.253  37.860  0.00  0.00    +0.242 HD
ENDBRANCH   3  37
ENDBRANCH  11  10
BRANCH  17  18
ATOM     18  N   UNL     1      22.559 -40.342  32.364  0.00  0.00    -0.284 N 
BRANCH  18  19
ATOM     19  C   UNL     1      22.344 -39.720  31.075  0.00  0.00    +0.046 A 
ATOM     20  C   UNL     1      22.904 -38.458  30.810  0.00  0.00    +0.041 A 
ATOM     21  C   UNL     1      23.704 -37.533  31.551  0.00  0.00    +0.144 A 
ATOM     22  N   UNL     1      23.966 -36.460  30.830  0.00  0.00    -0.181 NA
ATOM     23  N   UNL     1      23.364 -36.671  29.628  0.00  0.00    -0.277 N 
ATOM     24  H   UNL     1      23.407 -35.978  28.814  0.00  0.00    +0.189 HD
ATOM     25  C   UNL     1      22.700 -37.862  29.574  0.00  0.00    +0.068 A 
ATOM     26  C   UNL     1      21.976 -38.454  28.567  0.00  0.00    +0.028 A 
ATOM     27  C   UNL     1      21.417 -39.711  28.816  0.00  0.00    +0.004 A 
ATOM     28  C   UNL     1      21.610 -40.344  30.056  0.00  0.00    +0.024 A 
ENDBRANCH  18  19
BRANCH  18  29
ATOM     29  C   UNL     1      21.433 -40.282  33.294  0.00  0.00    +0.114 C 
BRANCH  29  30
ATOM     30  C   UNL     1      21.547 -38.980  34.107  0.00  0.00    +0.047 C 
BRANCH  30  31
ATOM     31  C   UNL     1      20.235 -38.553  34.746  0.00  0.00    +0.157 C 
BRANCH  31  32
ATOM     32  O   UNL     1      19.873 -37.301  34.187  0.00  0.00    -0.395 OA
ATOM     33  H   UNL     1      20.625 -36.596  34.389  0.00  0.00    +0.209 HD
ENDBRANCH  31  32
ENDBRANCH  30  31
ENDBRANCH  29  30
ENDBRANCH  18  29
ENDBRANCH  17  18
TORSDOF 9
