REMARK  Name = 4uyn_ligand
REMARK  7 active torsions:
REMARK  status: ('A' for Active; 'I' for Inactive)
REMARK    1  A    between atoms: C16_2  and  furan_3
REMARK    2  A    between atoms: C16_2  and  C7_6
REMARK    3  A    between atoms: furan_3  and  C19_4
REMARK    4  A    between atoms: C19_4  and  C20_5
REMARK    5  A    between atoms: C2_11  and  C15_20
REMARK    6  A    between atoms: C23_22  and  S25_25
REMARK    7  A    between atoms: S25_25  and  C26_26
REMARK                            x       y       z     vdW  Elec       q    Type
REMARK                         _______ _______ _______ _____ _____    ______ ____
ROOT
ATOM      3  C   UNL     1      26.173  -8.029  12.229  0.00  0.00    +0.139 A 
ATOM      4  N   UNL     1      25.838  -8.532  13.448  0.00  0.00    -0.289 N 
ATOM      5  H   UNL     1      25.348  -9.424  13.606  0.00  0.00    +0.229 HD
ATOM      6  C   UNL     1      26.250  -7.675  14.432  0.00  0.00    +0.100 A 
ATOM      7  C   UNL     1      26.889  -6.560  13.825  0.00  0.00    -0.022 A 
ATOM      8  C   UNL     1      27.495  -5.425  14.497  0.00  0.00    +0.132 C 
ATOM     25  C   UNL     1      28.063  -4.479  13.524  0.00  0.00    +0.195 C 
ATOM     26  C   UNL     1      27.978  -4.706  12.046  0.00  0.00    +0.040 C 
ATOM     27  N   UNL     1      27.388  -5.808  11.534  0.00  0.00    -0.332 NA
ATOM     28  C   UNL     1      28.579  -3.674  11.107  0.00  0.00    +0.123 C 
ATOM     29  C   UNL     1      29.756  -2.951  11.794  0.00  0.00    +0.046 C 
ATOM     30  C   UNL     1      29.330  -2.258  13.090  0.00  0.00    +0.127 C 
ATOM     31  C   UNL     1      28.741  -3.248  14.053  0.00  0.00    +0.132 C 
ATOM     32  O   UNL     1      28.794  -3.050  15.256  0.00  0.00    -0.386 OA
ATOM     33  C   UNL     1      26.862  -6.712  12.382  0.00  0.00    +0.016 A 
ENDROOT
BRANCH   8   9
ATOM      9  C   UNL     1      26.444  -4.821  15.334  0.00  0.00    +0.102 A 
ATOM     10  C   UNL     1      25.734  -3.667  15.007  0.00  0.00    -0.059 A 
ATOM     11  C   UNL     1      24.814  -3.523  16.044  0.00  0.00    -0.047 A 
ATOM     12  C   UNL     1      25.066  -4.613  16.884  0.00  0.00    +0.169 A 
ATOM     24  O   UNL     1      26.071  -5.419  16.491  0.00  0.00    -0.249 OA
BRANCH  12  13
ATOM     13  S   UNL     1      24.207  -5.009  18.347  0.00  0.00    +0.049 S 
BRANCH  13  14
ATOM     14  C   UNL     1      25.049  -4.476  19.774  0.00  0.00    +0.200 A 
ATOM     15  N   UNL     1      26.136  -3.711  19.659  0.00  0.00    -0.306 NA
ATOM     16  C   UNL     1      26.481  -3.446  20.928  0.00  0.00    +0.022 A 
ATOM     17  C   UNL     1      27.518  -2.672  21.451  0.00  0.00    -0.012 A 
ATOM     18  C   UNL     1      27.621  -2.516  22.822  0.00  0.00    -0.027 A 
ATOM     19  C   UNL     1      26.715  -3.153  23.669  0.00  0.00    -0.024 A 
ATOM     20  C   UNL     1      25.693  -3.947  23.153  0.00  0.00    +0.012 A 
ATOM     21  C   UNL     1      25.566  -4.087  21.778  0.00  0.00    +0.079 A 
ATOM     22  N   UNL     1      24.662  -4.749  21.021  0.00  0.00    -0.236 N 
ATOM     23  H   UNL     1      23.867  -5.325  21.332  0.00  0.00    +0.233 HD
ENDBRANCH  13  14
ENDBRANCH  12  13
ENDBRANCH   8   9
BRANCH   3   2
ATOM      1  O   UNL     1      25.411  -9.661  10.671  0.00  0.00    -0.371 OA
ATOM      2  C   UNL     1      25.958  -8.584  10.856  0.00  0.00    +0.266 C 
BRANCH   2  34
ATOM     34  O   UNL     1      26.417  -7.830   9.700  0.00  0.00    -0.281 OA
BRANCH  34  35
ATOM     35  C   UNL     1      26.207  -8.337   8.384  0.00  0.00    +0.193 C 
ATOM     36  C   UNL     1      24.928  -7.755   7.817  0.00  0.00    +0.039 C 
ENDBRANCH  34  35
ENDBRANCH   2  34
ENDBRANCH   3   2
TORSDOF 6
