REMARK  Name = 3FI4
REMARK  7 active torsions:
REMARK  status: ('A' for Active; 'I' for Inactive)
REMARK    1  A    between atoms: C_8  and  O_9
REMARK    2  A    between atoms: O_9  and  C_10
REMARK    3  A    between atoms: N_14  and  C_15
REMARK    4  A    between atoms: C_15  and  C_16
REMARK    5  A    between atoms: C_16  and  O_17
REMARK    6  A    between atoms: C_16  and  C_18
REMARK    7  A    between atoms: C_23  and  C_24
REMARK                            x       y       z     vdW  Elec       q    Type
REMARK                         _______ _______ _______ _____ _____    ______ ____
ROOT
ATOM      5  C   UNL     1      42.742  54.617  92.983  0.00  0.00    +0.304 C 
ATOM      6  N   UNL     1      43.972  55.154  93.148  0.00  0.00    -0.177 NA
ATOM      7  C   UNL     1      45.116  54.426  93.053  0.00  0.00    +0.166 C 
ATOM      8  C   UNL     1      45.018  53.049  92.778  0.00  0.00    +0.088 C 
ATOM      9  C   UNL     1      45.881  51.952  92.592  0.00  0.00    +0.107 C 
ATOM     17  N   UNL     1      45.110  50.861  92.348  0.00  0.00    -0.171 NA
ATOM     18  N   UNL     1      43.763  51.228  92.357  0.00  0.00    -0.261 NA
ATOM     19  H   UNL     1      42.922  50.589  92.189  0.00  0.00    +0.191 HD
ATOM     20  C   UNL     1      43.736  52.542  92.618  0.00  0.00    +0.142 C 
ATOM     21  N   UNL     1      46.299  55.083  93.229  0.00  0.00    -0.262 NA
ATOM     27  N   UNL     1      42.616  53.297  92.715  0.00  0.00    -0.294 NA
ATOM     28  H   UNL     1      41.649  52.858  92.582  0.00  0.00    +0.172 HD
ENDROOT
BRANCH   9  10
ATOM     10  C   UNL     1      47.276  51.874  92.658  0.00  0.00    +0.021 A 
ATOM     11  C   UNL     1      47.847  51.113  93.681  0.00  0.00    +0.011 A 
ATOM     12  C   UNL     1      49.232  50.993  93.787  0.00  0.00    +0.001 A 
ATOM     13  C   UNL     1      50.060  51.626  92.860  0.00  0.00    +0.002 A 
ATOM     14  C   UNL     1      49.492  52.378  91.832  0.00  0.00    +0.021 A 
ATOM     15  C   UNL     1      48.105  52.490  91.740  0.00  0.00    +0.050 A 
ATOM     16 CL   UNL     1      47.383  53.455  90.430  0.00  0.00    -0.083 Cl
ENDBRANCH   9  10
BRANCH   5   4
ATOM      4  O   UNL     1      41.645  55.436  93.101  0.00  0.00    -0.422 OA
BRANCH   4   3
ATOM      1  F   UNL     1      40.469  53.875  95.086  0.00  0.00    -0.202 F 
ATOM      2  C   UNL     1      39.789  54.163  93.961  0.00  0.00    +0.168 A 
ATOM      3  C   UNL     1      40.374  54.944  92.962  0.00  0.00    +0.167 A 
ATOM     29  C   UNL     1      39.669  55.243  91.799  0.00  0.00    +0.052 A 
ATOM     30  C   UNL     1      38.376  54.757  91.634  0.00  0.00    +0.042 A 
ATOM     31  C   UNL     1      37.788  53.978  92.625  0.00  0.00    +0.126 A 
ATOM     32  F   UNL     1      36.542  53.513  92.440  0.00  0.00    -0.205 F 
ATOM     33  C   UNL     1      38.489  53.678  93.795  0.00  0.00    +0.080 A 
ENDBRANCH   4   3
ENDBRANCH   5   4
BRANCH  21  22
ATOM     22  C   UNL     1      46.333  56.532  93.495  0.00  0.00    +0.174 C 
BRANCH  22  23
ATOM     23  C   UNL     1      45.946  57.242  92.171  0.00  0.00    +0.133 C 
ATOM     24  C   UNL     1      46.953  57.040  91.041  0.00  0.00    +0.039 C 
BRANCH  23  25
ATOM     25  O   UNL     1      45.749  58.659  92.334  0.00  0.00    -0.390 OA
ATOM     26  H   UNL     1      44.977  58.828  93.025  0.00  0.00    +0.210 HD
ENDBRANCH  23  25
ENDBRANCH  22  23
ENDBRANCH  21  22
TORSDOF 6
