REMARK  Name = 8P9
REMARK  5 active torsions:
REMARK  status: ('A' for Active; 'I' for Inactive)
REMARK    1  A    between atoms: OAL_2  and  CAB_3
REMARK    2  A    between atoms: CAA_12  and  NAK_13
REMARK    3  A    between atoms: NAK_13  and  SAN_14
REMARK    4  A    between atoms: SAN_14  and  CAQ_17
REMARK    5  A    between atoms: CAR_23  and  OAW_24
REMARK                            x       y       z     vdW  Elec       q    Type
REMARK                         _______ _______ _______ _____ _____    ______ ____
ROOT
ATOM      1  C   UNL     1       8.600   4.000   5.000  0.00  0.00    +0.000 C 
ENDROOT
TORSDOF 0
