REMARK  Name = 1233
REMARK  6 active torsions:
REMARK  status: ('A' for Active; 'I' for Inactive)
REMARK    1  A    between atoms: C3F_21  and  O3F_24
REMARK    2  A    between atoms: C8B_34  and  N7B_35
REMARK    3  A    between atoms: N7B_35  and  C5B_38
REMARK    4  A    between atoms: C5B_37  and  C5B_38
REMARK    5  A    between atoms: C5B_37  and  C4B_50
REMARK    6  A    between atoms: C5B_38  and  C6B_40
REMARK                            x       y       z     vdW  Elec       q    Type
REMARK                         _______ _______ _______ _____ _____    ______ ____
ROOT
ATOM      1  O   HOH     1      -6.000  11.122  -4.608  0.00  0.00    +0.000 OA
ENDROOT
TORSDOF 0
