REMARK  Name = 5D9L
REMARK  4 active torsions:
REMARK  status: ('A' for Active; 'I' for Inactive)
REMARK    1  A    between atoms: C_1  and  C_3
REMARK    2  A    between atoms: C_2  and  C_12
REMARK    3  A    between atoms: O_4  and  C_9
REMARK    4  A    between atoms: O_5  and  C_10
REMARK                            x       y       z     vdW  Elec       q    Type
REMARK                         _______ _______ _______ _____ _____    ______ ____
ROOT
ATOM      1  C   UNL     1      -1.547  11.334  27.637  0.00  0.00    +0.027 A 
ATOM      2  C   UNL     1      -1.243  12.545  28.281  0.00  0.00    +0.143 A 
ATOM      3  N   UNL     1      -0.130  12.430  28.997  0.00  0.00    -0.181 NA
ATOM      4  N   UNL     1       0.306  11.152  28.825  0.00  0.00    -0.276 N 
ATOM      5  H   UNL     1       1.195  10.750  29.264  0.00  0.00    +0.189 HD
ATOM     14  C   UNL     1      -0.535  10.458  28.025  0.00  0.00    +0.073 A 
ENDROOT
BRANCH   1   6
ATOM      6  C   UNL     1      -2.733  11.080  26.774  0.00  0.00    -0.014 A 
ATOM      7  C   UNL     1      -2.635  10.286  25.630  0.00  0.00    +0.012 A 
ATOM      8  C   UNL     1      -3.746  10.046  24.837  0.00  0.00    +0.046 A 
ATOM      9  C   UNL     1      -4.974  10.604  25.174  0.00  0.00    +0.117 A 
ATOM     10  C   UNL     1      -5.083  11.406  26.302  0.00  0.00    +0.046 A 
ATOM     13  C   UNL     1      -3.969  11.646  27.088  0.00  0.00    +0.012 A 
BRANCH   9  11
ATOM     11  O   UNL     1      -6.088  10.366  24.416  0.00  0.00    -0.507 OA
ATOM     12  H   UNL     1      -5.925  10.708  23.437  0.00  0.00    +0.292 HD
ENDBRANCH   9  11
ENDBRANCH   1   6
BRANCH  14  15
ATOM     15  C   UNL     1      -0.370   9.013  27.796  0.00  0.00    +0.001 A 
ATOM     16  C   UNL     1      -1.469   8.161  27.866  0.00  0.00    +0.013 A 
ATOM     17  C   UNL     1      -1.348   6.821  27.546  0.00  0.00    +0.046 A 
ATOM     18  C   UNL     1      -0.121   6.313  27.148  0.00  0.00    +0.117 A 
ATOM     19  C   UNL     1       0.994   7.143  27.103  0.00  0.00    +0.046 A 
ATOM     22  C   UNL     1       0.871   8.482  27.434  0.00  0.00    +0.013 A 
BRANCH  18  20
ATOM     20  O   UNL     1      -0.049   5.001  26.807  0.00  0.00    -0.507 OA
ATOM     21  H   UNL     1       0.270   4.915  25.810  0.00  0.00    +0.292 HD
ENDBRANCH  18  20
ENDBRANCH  14  15
TORSDOF 4
