REMARK  Name = T75
REMARK  5 active torsions:
REMARK  status: ('A' for Active; 'I' for Inactive)
REMARK    1  A    between atoms: C22_2  and  C23_3
REMARK    2  A    between atoms: N19_9  and  C8_10
REMARK    3  A    between atoms: C6_15  and  C5_16
REMARK    4  A    between atoms: C3_18  and  C20_19
REMARK    5  A    between atoms: C1_22  and  C12_23
REMARK                            x       y       z     vdW  Elec       q    Type
REMARK                         _______ _______ _______ _____ _____    ______ ____
ROOT
ATOM      4  C   UNL     1      15.377   5.136  -5.638  0.00  0.00    +0.155 A 
ATOM      5  C   UNL     1      15.626   5.214  -4.264  0.00  0.00    +0.037 A 
ATOM      6  C   UNL     1      16.951   5.200  -3.786  0.00  0.00    +0.012 A 
ATOM     21  C   UNL     1      17.989   5.075  -4.735  0.00  0.00    +0.021 A 
ATOM     22  C   UNL     1      17.666   5.012  -6.082  0.00  0.00    +0.100 A 
ATOM     23  N   UNL     1      16.401   5.038  -6.486  0.00  0.00    -0.227 NA
ENDROOT
BRANCH   6   7
ATOM      7  C   UNL     1      17.195   5.246  -2.327  0.00  0.00    +0.048 A 
ATOM      8  S   UNL     1      16.018   4.581  -1.200  0.00  0.00    -0.071 S 
ATOM      9  C   UNL     1      17.006   4.976   0.134  0.00  0.00    +0.088 A 
ATOM     12  N   UNL     1      18.088   5.538  -0.271  0.00  0.00    -0.243 NA
ATOM     13  C   UNL     1      18.263   5.710  -1.574  0.00  0.00    +0.087 A 
BRANCH  13  14
ATOM     14  C   UNL     1      19.485   6.392  -2.065  0.00  0.00    +0.018 A 
ATOM     15  C   UNL     1      20.767   5.897  -1.775  0.00  0.00    -0.003 A 
ATOM     16  C   UNL     1      21.874   6.586  -2.242  0.00  0.00    -0.022 A 
ATOM     17  C   UNL     1      23.253   6.069  -1.948  0.00  0.00    +0.031 C 
ATOM     18  C   UNL     1      21.733   7.762  -2.978  0.00  0.00    -0.004 A 
ATOM     19  C   UNL     1      20.469   8.262  -3.265  0.00  0.00    -0.000 A 
ATOM     20  C   UNL     1      19.349   7.582  -2.806  0.00  0.00    +0.002 A 
ENDBRANCH  13  14
BRANCH   9  10
ATOM     10  C   UNL     1      16.674   4.712   1.587  0.00  0.00    +0.053 C 
ATOM     11  C   UNL     1      15.311   4.026   1.729  0.00  0.00    +0.007 C 
ENDBRANCH   9  10
ENDBRANCH   6   7
BRANCH   4   3
ATOM      1  O   UNL     1      12.799   4.852  -4.354  0.00  0.00    -0.268 OA
ATOM      2  C   UNL     1      12.886   5.004  -5.566  0.00  0.00    +0.270 C 
ATOM      3  N   UNL     1      14.089   5.146  -6.191  0.00  0.00    -0.157 NA
BRANCH   2  24
ATOM     24  C   UNL     1      11.644   5.033  -6.387  0.00  0.00    +0.055 A 
ATOM     25  C   UNL     1      10.485   4.357  -5.949  0.00  0.00    +0.005 A 
ATOM     26  C   UNL     1       9.327   4.385  -6.719  0.00  0.00    +0.000 A 
ATOM     27  C   UNL     1       9.305   5.080  -7.928  0.00  0.00    +0.000 A 
ATOM     28  C   UNL     1      10.442   5.748  -8.377  0.00  0.00    +0.000 A 
ATOM     29  C   UNL     1      11.605   5.729  -7.613  0.00  0.00    +0.005 A 
ENDBRANCH   2  24
ENDBRANCH   4   3
TORSDOF 5
