REMARK  Name = 3P2B
REMARK  3 active torsions:
REMARK  status: ('A' for Active; 'I' for Inactive)
REMARK    1  A    between atoms: N_2  and  C_3
REMARK    2  A    between atoms: C_8  and  C_9
REMARK    3  A    between atoms: C_24  and  O_25
REMARK                            x       y       z     vdW  Elec       q    Type
REMARK                         _______ _______ _______ _____ _____    ______ ____
ROOT
ATOM      1  C   UNL     1      20.615  14.003  20.835  0.00  0.00    +0.129 A 
ATOM      2  C   UNL     1      21.901  13.543  20.657  0.00  0.00    +0.072 A 
ATOM      3  C   UNL     1      22.173  12.261  21.093  0.00  0.00    +0.078 A 
ATOM     12  N   UNL     1      21.225  11.494  21.670  0.00  0.00    -0.214 NA
ATOM     13  C   UNL     1      19.993  11.998  21.817  0.00  0.00    +0.220 A 
ATOM     14  N   UNL     1      19.018  11.233  22.404  0.00  0.00    -0.295 N 
ATOM     15  C   UNL     1      19.353  10.066  23.213  0.00  0.00    +0.136 C 
ATOM     16  C   UNL     1      18.556  10.112  24.519  0.00  0.00    +0.178 C 
ATOM     17  O   UNL     1      17.155  10.258  24.262  0.00  0.00    -0.377 OA
ATOM     18  C   UNL     1      16.896  11.502  23.601  0.00  0.00    +0.178 C 
ATOM     19  C   UNL     1      17.603  11.557  22.245  0.00  0.00    +0.136 C 
ATOM     20  N   UNL     1      19.676  13.235  21.410  0.00  0.00    -0.199 NA
ATOM     21  N   UNL     1      20.174  15.274  20.465  0.00  0.00    -0.298 N 
ATOM     22  H   UNL     1      20.942  15.868  20.015  0.00  0.00    +0.154 HD
ENDROOT
BRANCH   3   4
ATOM      4  C   UNL     1      23.498  11.621  20.965  0.00  0.00    +0.004 A 
ATOM      5  C   UNL     1      23.931  10.633  21.872  0.00  0.00    +0.055 A 
ATOM      6  C   UNL     1      25.181  10.033  21.723  0.00  0.00    +0.117 A 
ATOM      9  C   UNL     1      26.023  10.386  20.675  0.00  0.00    +0.045 A 
ATOM     10  C   UNL     1      25.613  11.351  19.761  0.00  0.00    +0.004 A 
ATOM     11  C   UNL     1      24.360  11.956  19.902  0.00  0.00    +0.010 A 
BRANCH   6   7
ATOM      7  O   UNL     1      25.620   9.082  22.598  0.00  0.00    -0.507 OA
ATOM      8  H   UNL     1      25.804   8.187  22.080  0.00  0.00    +0.292 HD
ENDBRANCH   6   7
ENDBRANCH   3   4
BRANCH  21  23
ATOM     23  C   UNL     1      18.949  15.942  20.553  0.00  0.00    +0.051 A 
ATOM     24  C   UNL     1      18.902  17.335  20.461  0.00  0.00    +0.134 A 
ATOM     25  N   UNL     1      17.776  18.088  20.538  0.00  0.00    -0.261 NA
ATOM     26  C   UNL     1      16.619  17.417  20.716  0.00  0.00    +0.111 A 
ATOM     27  C   UNL     1      16.540  16.040  20.821  0.00  0.00    +0.021 A 
ATOM     28  C   UNL     1      17.721  15.303  20.739  0.00  0.00    +0.026 A 
ENDBRANCH  21  23
TORSDOF 3
