REMARK  Name = 5M44
REMARK  6 active torsions:
REMARK  status: ('A' for Active; 'I' for Inactive)
REMARK    1  A    between atoms: C_3  and  S_11
REMARK    2  A    between atoms: C_7  and  C_9
REMARK    3  A    between atoms: C_9  and  C_10
REMARK    4  A    between atoms: C_10  and  S_11
REMARK    5  A    between atoms: C_15  and  C_16
REMARK    6  A    between atoms: C_19  and  C_20
REMARK                            x       y       z     vdW  Elec       q    Type
REMARK                         _______ _______ _______ _____ _____    ______ ____
ROOT
ATOM      1  C   UNL     1      -3.768  18.076 -18.170  0.00  0.00    +0.113 A 
ATOM      2  S   UNL     1      -3.153  18.497 -19.624  0.00  0.00    -0.076 S 
ATOM      3  C   UNL     1      -3.864  17.326 -20.490  0.00  0.00    +0.056 A 
ATOM      4  C   UNL     1      -4.595  16.600 -19.639  0.00  0.00    +0.001 A 
ATOM     12  N   UNL     1      -3.564  18.662 -16.982  0.00  0.00    -0.228 NA
ATOM     13  C   UNL     1      -4.179  18.162 -15.848  0.00  0.00    +0.223 A 
ATOM     14  N   UNL     1      -4.991  17.049 -16.012  0.00  0.00    -0.229 NA
ATOM     15  C   UNL     1      -5.172  16.492 -17.219  0.00  0.00    +0.109 A 
ATOM     22  C   UNL     1      -4.563  16.987 -18.325  0.00  0.00    +0.047 A 
ENDROOT
BRANCH   4   5
ATOM      5  C   UNL     1      -5.264  15.561 -20.148  0.00  0.00    -0.017 A 
ATOM      6  C   UNL     1      -4.721  14.282 -20.053  0.00  0.00    +0.009 A 
ATOM      7  C   UNL     1      -5.392  13.184 -20.580  0.00  0.00    +0.004 A 
ATOM      8  C   UNL     1      -6.608  13.366 -21.227  0.00  0.00    -0.050 A 
ATOM      9  C   UNL     1      -7.283  12.273 -21.762  0.00  0.00    +0.044 C 
ATOM     10  C   UNL     1      -7.148  14.643 -21.335  0.00  0.00    +0.004 A 
ATOM     11  C   UNL     1      -6.477  15.741 -20.802  0.00  0.00    +0.009 A 
ENDBRANCH   4   5
BRANCH  15  16
ATOM     16  S   UNL     1      -6.250  15.070 -17.231  0.00  0.00    -0.105 S 
BRANCH  16  17
ATOM     17  C   UNL     1      -7.246  15.337 -15.719  0.00  0.00    +0.082 C 
BRANCH  17  18
ATOM     18  C   UNL     1      -8.261  14.216 -15.471  0.00  0.00    +0.063 C 
BRANCH  18  19
ATOM     19  C   UNL     1      -9.264  14.139 -16.631  0.00  0.00    +0.043 C 
ATOM     20  O   UNL     1     -10.300  14.835 -16.534  0.00  0.00    -0.550 OA
ATOM     21  O   UNL     1      -8.980  13.377 -17.584  0.00  0.00    -0.550 OA
ENDBRANCH  18  19
ENDBRANCH  17  18
ENDBRANCH  16  17
ENDBRANCH  15  16
TORSDOF 5
