REMARK  Name = 3iw5_ligand
REMARK  9 active torsions:
REMARK  status: ('A' for Active; 'I' for Inactive)
REMARK    1  A    between atoms: CAR_18  and  CAU_21
REMARK    2  A    between atoms: CAR_18  and  NAW_23
REMARK    3  A    between atoms: CAU_21  and  NBL_38
REMARK    4  A    between atoms: CAV_22  and  SBA_27
REMARK    5  A    between atoms: CAV_22  and  CBB_28
REMARK    6  A    between atoms: NAX_24  and  CBD_30
REMARK    7  A    between atoms: SBA_27  and  CBI_35
REMARK    8  A    between atoms: CBC_29  and  CBE_31
REMARK    9  A    between atoms: CBF_32  and  CBM_39
REMARK                            x       y       z     vdW  Elec       q    Type
REMARK                         _______ _______ _______ _____ _____    ______ ____
ROOT
ATOM     17  C   UNL     1      18.955   0.130 -23.023  0.00  0.00    +0.013 A 
ATOM     18  C   UNL     1      18.468   1.427 -22.973  0.00  0.00    -0.011 A 
ATOM     19  C   UNL     1      18.394   1.740 -21.633  0.00  0.00    +0.064 A 
ATOM     20  N   UNL     1      18.829   0.670 -20.973  0.00  0.00    -0.272 N 
ATOM     37  C   UNL     1      17.915   2.992 -21.239  0.00  0.00    +0.010 A 
ATOM     38  C   UNL     1      17.531   3.938 -22.200  0.00  0.00    -0.024 A 
ATOM     39  C   UNL     1      17.621   3.612 -23.546  0.00  0.00    -0.028 A 
ATOM     40  C   UNL     1      18.082   2.361 -23.922  0.00  0.00    -0.020 A 
ATOM     41  C   UNL     1      19.162  -0.303 -21.796  0.00  0.00    +0.110 A 
ENDROOT
BRANCH  17  16
ATOM     16  S   UNL     1      19.300  -0.861 -24.440  0.00  0.00    -0.109 S 
BRANCH  16  15
ATOM     15  C   UNL     1      21.029  -0.423 -24.780  0.00  0.00    +0.223 C 
BRANCH  15   2
ATOM      1  O   UNL     1      20.815   1.400 -26.237  0.00  0.00    -0.385 OA
ATOM      2  C   UNL     1      21.091   1.032 -25.112  0.00  0.00    +0.212 C 
ATOM      3  N   UNL     1      21.444   1.821 -24.122  0.00  0.00    -0.242 N 
ATOM      4  H   UNL     1      21.705   1.445 -23.233  0.00  0.00    +0.222 HD
BRANCH   3   5
ATOM      5  C   UNL     1      21.444   3.098 -24.331  0.00  0.00    +0.047 A 
ATOM      6  C   UNL     1      21.213   3.974 -23.292  0.00  0.00    +0.019 A 
ATOM      7  C   UNL     1      21.165   5.324 -23.580  0.00  0.00    +0.108 A 
ATOM      8  C   UNL     1      21.317   5.809 -24.876  0.00  0.00    +0.105 A 
ATOM      9  O   UNL     1      21.275   7.118 -25.214  0.00  0.00    -0.329 OA
ATOM     10  C   UNL     1      21.256   7.950 -24.063  0.00  0.00    +0.218 C 
ATOM     11  C   UNL     1      20.321   7.319 -23.058  0.00  0.00    +0.222 C 
ATOM     12  C   UNL     1      21.506   4.933 -25.902  0.00  0.00    -0.007 A 
ATOM     13  O   UNL     1      20.986   6.160 -22.552  0.00  0.00    -0.323 OA
ATOM     14  C   UNL     1      21.551   3.577 -25.619  0.00  0.00    -0.022 A 
ENDBRANCH   3   5
ENDBRANCH  15   2
ENDBRANCH  16  15
ENDBRANCH  17  16
BRANCH  20  21
ATOM     21  C   UNL     1      18.962   0.546 -19.518  0.00  0.00    +0.192 C 
BRANCH  21  22
ATOM     22  C   UNL     1      20.361   1.107 -19.152  0.00  0.00    +0.166 C 
BRANCH  22  23
ATOM     23  N   UNL     1      21.290   0.050 -19.553  0.00  0.00    -0.283 N 
ATOM     24  H   UNL     1      21.344  -0.765 -18.976  0.00  0.00    +0.185 HD
ATOM     25  C   UNL     1      22.086   0.099 -20.656  0.00  0.00    +0.212 C 
ATOM     36  O   UNL     1      22.133   1.021 -21.474  0.00  0.00    -0.384 OA
BRANCH  25  26
ATOM     26  C   UNL     1      22.918  -1.167 -20.875  0.00  0.00    +0.079 A 
ATOM     27  C   UNL     1      22.419  -2.409 -20.416  0.00  0.00    +0.080 A 
ATOM     28  C   UNL     1      23.160  -3.562 -20.632  0.00  0.00    +0.054 A 
ATOM     33  C   UNL     1      24.372  -3.487 -21.318  0.00  0.00    +0.061 A 
ATOM     34  C   UNL     1      24.849  -2.267 -21.795  0.00  0.00    +0.044 A 
ATOM     35  C   UNL     1      24.123  -1.100 -21.575  0.00  0.00    +0.076 A 
BRANCH  28  29
ATOM     29  C   UNL     1      22.693  -4.935 -20.149  0.00  0.00    +0.378 C 
ATOM     30  F   UNL     1      22.589  -5.752 -21.193  0.00  0.00    -0.220 F 
ATOM     31  F   UNL     1      21.550  -4.901 -19.574  0.00  0.00    -0.220 F 
ATOM     32  F   UNL     1      23.475  -5.422 -19.231  0.00  0.00    -0.220 F 
ENDBRANCH  28  29
ENDBRANCH  25  26
ENDBRANCH  22  23
ENDBRANCH  21  22
ENDBRANCH  20  21
TORSDOF 9
