REMARK  Name = 3WZE
REMARK  7 active torsions:
REMARK  status: ('A' for Active; 'I' for Inactive)
REMARK    1  A    between atoms: C_2  and  N_26
REMARK    2  A    between atoms: C_6  and  N_27
REMARK    3  A    between atoms: C_9  and  O_12
REMARK    4  A    between atoms: O_12  and  C_29
REMARK    5  A    between atoms: C_15  and  C_31
REMARK    6  A    between atoms: N_17  and  C_18
REMARK    7  A    between atoms: C_20  and  C_21
REMARK                            x       y       z     vdW  Elec       q    Type
REMARK                         _______ _______ _______ _____ _____    ______ ____
ROOT
ATOM     18  C   UNL     1      23.644  23.158  38.146  0.00  0.00    +0.035 A 
ATOM     19  C   UNL     1      22.427  23.325  37.534  0.00  0.00    +0.027 A 
ATOM     20  C   UNL     1      21.310  23.874  38.147  0.00  0.00    +0.048 A 
ATOM     21  C   UNL     1      21.419  24.260  39.450  0.00  0.00    +0.129 A 
ATOM     34  C   UNL     1      22.620  24.106  40.091  0.00  0.00    +0.048 A 
ATOM     35  C   UNL     1      23.737  23.562  39.463  0.00  0.00    +0.027 A 
ENDROOT
BRANCH  18  16
ATOM     12  N   UNL     1      26.047  22.111  35.728  0.00  0.00    -0.269 N 
ATOM     13  H   UNL     1      26.551  21.503  36.450  0.00  0.00    +0.156 HD
ATOM     14  C   UNL     1      25.001  22.857  36.180  0.00  0.00    +0.308 C 
ATOM     15  O   UNL     1      24.371  23.573  35.436  0.00  0.00    -0.252 OA
ATOM     16  N   UNL     1      24.768  22.731  37.500  0.00  0.00    -0.269 N 
ATOM     17  H   UNL     1      25.525  22.258  38.090  0.00  0.00    +0.156 HD
BRANCH  12  11
ATOM      1  C   UNL     1      26.300  23.060  33.488  0.00  0.00    +0.037 A 
ATOM      2  C   UNL     1      26.720  22.952  32.185  0.00  0.00    +0.075 A 
ATOM      7  C   UNL     1      27.420  21.742  31.745  0.00  0.00    +0.053 A 
ATOM      8 CL   UNL     1      27.936  21.587  30.052  0.00  0.00    -0.083 Cl
ATOM      9  C   UNL     1      27.657  20.720  32.683  0.00  0.00    +0.022 A 
ATOM     10  C   UNL     1      27.216  20.909  33.997  0.00  0.00    +0.025 A 
ATOM     11  C   UNL     1      26.527  22.059  34.422  0.00  0.00    +0.035 A 
BRANCH   2   3
ATOM      3  C   UNL     1      26.433  24.079  31.205  0.00  0.00    +0.419 C 
ATOM      4  F   UNL     1      27.559  24.500  30.723  0.00  0.00    -0.166 F 
ATOM      5  F   UNL     1      25.904  25.109  31.758  0.00  0.00    -0.166 F 
ATOM      6  F   UNL     1      25.643  23.689  30.251  0.00  0.00    -0.166 F 
ENDBRANCH   2   3
ENDBRANCH  12  11
ENDBRANCH  18  16
BRANCH  21  22
ATOM     22  O   UNL     1      20.298  24.684  40.144  0.00  0.00    -0.456 OA
BRANCH  22  23
ATOM     23  C   UNL     1      19.957  26.020  40.219  0.00  0.00    +0.132 A 
ATOM     24  C   UNL     1      18.648  26.212  40.667  0.00  0.00    +0.079 A 
ATOM     25  C   UNL     1      18.172  27.535  40.781  0.00  0.00    +0.129 A 
ATOM     31  N   UNL     1      18.976  28.565  40.448  0.00  0.00    -0.250 NA
ATOM     32  C   UNL     1      20.247  28.376  40.043  0.00  0.00    +0.115 A 
ATOM     33  C   UNL     1      20.809  27.098  39.944  0.00  0.00    +0.066 A 
BRANCH  25  26
ATOM     26  C   UNL     1      16.785  27.804  41.237  0.00  0.00    +0.262 C 
ATOM     27  O   UNL     1      16.064  26.850  41.479  0.00  0.00    -0.269 OA
ATOM     28  N   UNL     1      16.382  29.080  41.380  0.00  0.00    -0.313 N 
ATOM     29  H   UNL     1      17.059  29.873  41.141  0.00  0.00    +0.149 HD
ATOM     30  C   UNL     1      15.047  29.402  41.852  0.00  0.00    +0.128 C 
ENDBRANCH  25  26
ENDBRANCH  22  23
ENDBRANCH  21  22
TORSDOF 6
