REMARK  Name = 2gfs_ligand
REMARK  10 active torsions:
REMARK  status: ('A' for Active; 'I' for Inactive)
REMARK    1  A    between atoms: N1_1  and  C2_2
REMARK    2  A    between atoms: C3_3  and  C14_14
REMARK    3  A    between atoms: N6_6  and  C7_7
REMARK    4  A    between atoms: C14_14  and  C16_16
REMARK    5  A    between atoms: C20_20  and  O21_21
REMARK    6  A    between atoms: O21_21  and  C22_22
REMARK    7  A    between atoms: C22_22  and  C23_23
REMARK    8  A    between atoms: C23_23  and  O25_24
REMARK    9  A    between atoms: C23_23  and  C26_25
REMARK   10  A    between atoms: C26_25  and  O27_26
REMARK                            x       y       z     vdW  Elec       q    Type
REMARK                         _______ _______ _______ _____ _____    ______ ____
ROOT
ATOM     16  C   UNL     1      22.839   9.283  31.076  0.00  0.00    +0.124 C 
ATOM     31  O   UNL     1      22.342   8.187  30.872  0.00  0.00    -0.396 OA
ENDROOT
BRANCH  16  17
ATOM     17  C   UNL     1      24.339   9.369  31.176  0.00  0.00    +0.016 A 
ATOM     18  C   UNL     1      25.022   8.431  31.945  0.00  0.00    +0.043 A 
ATOM     19  C   UNL     1      26.412   8.481  32.043  0.00  0.00    +0.096 A 
ATOM     28  C   UNL     1      27.116   9.472  31.363  0.00  0.00    +0.029 A 
ATOM     29  C   UNL     1      26.439  10.406  30.583  0.00  0.00    -0.005 A 
ATOM     30  C   UNL     1      25.049  10.351  30.484  0.00  0.00    +0.002 A 
BRANCH  19  20
ATOM     20  O   UNL     1      27.085   7.559  32.810  0.00  0.00    -0.314 OA
BRANCH  20  21
ATOM     21  C   UNL     1      26.558   7.142  34.075  0.00  0.00    +0.227 C 
BRANCH  21  22
ATOM     22  C   UNL     1      27.644   6.444  34.883  0.00  0.00    +0.170 C 
BRANCH  22  26
ATOM     26  O   UNL     1      28.477   7.426  35.509  0.00  0.00    -0.387 OA
ATOM     27  H   UNL     1      29.154   6.990  36.013  0.00  0.00    +0.210 HD
ENDBRANCH  22  26
BRANCH  22  23
ATOM     23  C   UNL     1      27.000   5.545  35.931  0.00  0.00    +0.190 C 
BRANCH  23  24
ATOM     24  O   UNL     1      26.654   4.292  35.326  0.00  0.00    -0.392 OA
ATOM     25  H   UNL     1      26.252   3.728  35.976  0.00  0.00    +0.209 HD
ENDBRANCH  23  24
ENDBRANCH  22  23
ENDBRANCH  21  22
ENDBRANCH  20  21
ENDBRANCH  19  20
ENDBRANCH  16  17
BRANCH  16  15
ATOM      4  C   UNL     1      20.599  10.449  31.127  0.00  0.00    +0.194 A 
ATOM      5  N   UNL     1      20.101  11.667  31.289  0.00  0.00    -0.139 N 
ATOM     13  N   UNL     1      21.140  12.581  31.510  0.00  0.00    -0.222 NA
ATOM     14  C   UNL     1      22.296  11.842  31.463  0.00  0.00    +0.060 A 
ATOM     15  C   UNL     1      21.979  10.498  31.218  0.00  0.00    +0.066 A 
BRANCH   5   6
ATOM      6  C   UNL     1      18.805  12.018  31.272  0.00  0.00    +0.108 A 
ATOM      7  C   UNL     1      18.292  12.933  30.345  0.00  0.00    +0.029 A 
ATOM      8  C   UNL     1      16.949  13.308  30.329  0.00  0.00    +0.026 A 
ATOM      9  C   UNL     1      16.059  12.787  31.258  0.00  0.00    +0.125 A 
ATOM     10  F   UNL     1      14.757  13.147  31.245  0.00  0.00    -0.190 F 
ATOM     11  C   UNL     1      16.534  11.878  32.197  0.00  0.00    +0.026 A 
ATOM     12  C   UNL     1      17.881  11.512  32.193  0.00  0.00    +0.029 A 
ENDBRANCH   5   6
BRANCH   4   1
ATOM      1  N   UNL     1      19.894   9.309  30.890  0.00  0.00    -0.299 N 
ATOM      2  H   UNL     1      18.867   9.344  30.821  0.00  0.00    +0.183 HD
ATOM      3  H   UNL     1      20.388   8.412  30.780  0.00  0.00    +0.183 HD
ENDBRANCH   4   1
ENDBRANCH  16  15
TORSDOF 10
