REMARK  Name = 4gg5_ligand
REMARK  7 active torsions:
REMARK  status: ('A' for Active; 'I' for Inactive)
REMARK    1  A    between atoms: NBD_3  and  CAA_4
REMARK    2  A    between atoms: NBE_7  and  CAX_8
REMARK    3  A    between atoms: CAY_15  and  CBF_16
REMARK    4  A    between atoms: CAZ_21  and  NAU_22
REMARK    5  A    between atoms: NAU_22  and  CAS_23
REMARK    6  A    between atoms: CAS_23  and  CAV_24
REMARK    7  A    between atoms: CAW_29  and  NBC_30
REMARK                            x       y       z     vdW  Elec       q    Type
REMARK                         _______ _______ _______ _____ _____    ______ ____
ROOT
ATOM      3  C   UNL     1      -2.612  17.687  33.864  0.00  0.00    +0.086 A 
ATOM      4  C   UNL     1      -1.580  18.638  33.567  0.00  0.00    +0.135 A 
ATOM      5  N   UNL     1      -0.720  18.413  32.596  0.00  0.00    -0.282 NA
ATOM      6  C   UNL     1      -0.769  17.289  31.849  0.00  0.00    +0.069 A 
ATOM      7  C   UNL     1       0.190  17.119  30.823  0.00  0.00    +0.073 A 
ATOM      8  C   UNL     1       0.174  15.976  30.030  0.00  0.00    +0.025 A 
ATOM      9  C   UNL     1      -0.827  14.959  30.259  0.00  0.00    +0.021 A 
ATOM     10  C   UNL     1      -1.761  15.122  31.251  0.00  0.00    +0.066 A 
ATOM     27  C   UNL     1      -1.744  16.310  32.080  0.00  0.00    +0.041 A 
ATOM     28  C   UNL     1      -2.694  16.524  33.118  0.00  0.00    +0.062 A 
ENDROOT
BRANCH   3   2
ATOM      1  C   UNL     1      -4.725  17.341  34.726  0.00  0.00    +0.187 C 
ATOM      2  N   UNL     1      -3.555  18.017  34.955  0.00  0.00    -0.285 N 
ATOM     29  C   UNL     1      -3.547  19.324  35.385  0.00  0.00    +0.187 C 
ATOM     30  C   UNL     1      -4.384  19.493  36.607  0.00  0.00    +0.156 C 
ATOM     31  N   UNL     1      -5.657  18.736  36.562  0.00  0.00    +0.236 N 
ATOM     32  H   UNL     1      -6.269  19.527  36.438  0.00  0.00    +0.203 HD
ATOM     33  C   UNL     1      -6.277  18.272  37.751  0.00  0.00    +0.191 C 
ATOM     34  C   UNL     1      -5.910  18.103  35.238  0.00  0.00    +0.156 C 
ENDBRANCH   3   2
BRANCH   8  23
ATOM     23  C   UNL     1       1.199  15.820  28.905  0.00  0.00    +0.361 C 
ATOM     24  F   UNL     1       1.846  14.680  28.975  0.00  0.00    -0.233 F 
ATOM     25  F   UNL     1       2.042  16.830  28.894  0.00  0.00    -0.233 F 
ATOM     26  F   UNL     1       0.503  15.865  27.744  0.00  0.00    -0.233 F 
ENDBRANCH   8  23
BRANCH  10  11
ATOM     11  N   UNL     1      -2.758  14.097  31.480  0.00  0.00    -0.306 N 
ATOM     12  H   UNL     1      -3.399  14.175  32.283  0.00  0.00    +0.181 HD
BRANCH  11  13
ATOM     13  C   UNL     1      -2.857  12.963  30.584  0.00  0.00    +0.196 C 
BRANCH  13  14
ATOM     14  C   UNL     1      -3.607  13.292  29.292  0.00  0.00    -0.013 A 
ATOM     15  C   UNL     1      -4.991  13.529  29.335  0.00  0.00    +0.007 A 
ATOM     16  C   UNL     1      -5.689  13.846  28.160  0.00  0.00    +0.001 A 
ATOM     17  C   UNL     1      -4.976  13.924  26.930  0.00  0.00    +0.038 A 
ATOM     18  C   UNL     1      -3.586  13.690  26.902  0.00  0.00    +0.193 A 
ATOM     22  C   UNL     1      -2.893  13.380  28.066  0.00  0.00    +0.047 A 
BRANCH  18  19
ATOM     19  N   UNL     1      -2.898  13.771  25.655  0.00  0.00    +0.313 N 
ATOM     20  O   UNL     1      -1.664  13.332  25.514  0.00  0.00    +0.178 OA
ATOM     21  O   UNL     1      -3.525  14.300  24.651  0.00  0.00    +0.178 OA
ENDBRANCH  18  19
ENDBRANCH  13  14
ENDBRANCH  11  13
ENDBRANCH  10  11
TORSDOF 6
