REMARK  Name = D6Q
REMARK  5 active torsions:
REMARK  status: ('A' for Active; 'I' for Inactive)
REMARK    1  A    between atoms: C10_5  and  C1_13
REMARK    2  A    between atoms: C24_11  and  C23_19
REMARK    3  A    between atoms: C28_12  and  C27_20
REMARK    4  A    between atoms: C23_19  and  N20_31
REMARK    5  A    between atoms: C27_20  and  N26_32
REMARK                            x       y       z     vdW  Elec       q    Type
REMARK                         _______ _______ _______ _____ _____    ______ ____
ROOT
ATOM      4  C   UNL     1      50.661 -23.322  50.965  0.00  0.00    +0.251 C 
ATOM      5  N   UNL     1      51.244 -22.928  52.186  0.00  0.00    -0.276 N 
ATOM      6  C   UNL     1      50.712 -21.694  52.772  0.00  0.00    +0.095 C 
ATOM      7  C   UNL     1      51.397 -20.508  52.043  0.00  0.00    +0.034 C 
ATOM      8  C   UNL     1      52.957 -20.560  52.137  0.00  0.00    +0.095 C 
ATOM      9  C   UNL     1      53.384 -20.235  53.573  0.00  0.00    +0.233 C 
ATOM     10  O   UNL     1      53.373 -20.909  54.588  0.00  0.00    -0.274 OA
ATOM     11  N   UNL     1      53.860 -18.910  53.604  0.00  0.00    -0.250 N 
ATOM     21  C   UNL     1      53.896 -18.389  52.310  0.00  0.00    +0.053 A 
ATOM     22  C   UNL     1      54.273 -17.148  51.906  0.00  0.00    +0.017 A 
ATOM     23  C   UNL     1      54.319 -16.880  50.533  0.00  0.00    +0.033 A 
ATOM     24  C   UNL     1      54.013 -17.862  49.622  0.00  0.00    +0.167 A 
ATOM     25  C   UNL     1      53.623 -19.155  50.070  0.00  0.00    +0.165 A 
ATOM     26  F   UNL     1      53.403 -20.103  49.198  0.00  0.00    -0.202 F 
ATOM     27  F   UNL     1      54.086 -17.596  48.307  0.00  0.00    -0.202 F 
ATOM     28  C   UNL     1      53.521 -21.878  51.676  0.00  0.00    +0.034 C 
ATOM     29  C   UNL     1      53.533 -19.400  51.406  0.00  0.00    +0.029 A 
ATOM     30  C   UNL     1      52.744 -23.040  52.352  0.00  0.00    +0.095 C 
ATOM     31  O   UNL     1      49.685 -22.738  50.560  0.00  0.00    -0.270 OA
ENDROOT
BRANCH   4   3
ATOM      1  N   UNL     1      51.067 -26.871  49.794  0.00  0.00    -0.223 NA
ATOM      2  C   UNL     1      50.707 -25.740  50.434  0.00  0.00    +0.105 A 
ATOM      3  C   UNL     1      51.234 -24.439  50.179  0.00  0.00    +0.073 A 
ATOM     32  C   UNL     1      52.218 -24.254  49.206  0.00  0.00    +0.011 A 
ATOM     33  C   UNL     1      52.636 -25.412  48.502  0.00  0.00    +0.059 A 
ATOM     34  C   UNL     1      53.582 -25.714  47.457  0.00  0.00    +0.125 A 
ATOM     35  N   UNL     1      53.546 -27.021  47.175  0.00  0.00    -0.145 NA
ATOM     36  N   UNL     1      52.609 -27.614  47.996  0.00  0.00    -0.128 NA
ATOM     37  C   UNL     1      52.027 -26.679  48.829  0.00  0.00    +0.185 A 
ENDBRANCH   4   3
BRANCH  11  12
ATOM     12  C   UNL     1      54.317 -18.278  54.816  0.00  0.00    +0.185 C 
BRANCH  12  13
ATOM     13  C   UNL     1      55.815 -18.560  54.918  0.00  0.00    +0.262 C 
ATOM     14  N   UNL     1      56.462 -18.032  56.023  0.00  0.00    -0.195 NA
ATOM     20  O   UNL     1      56.405 -19.210  54.054  0.00  0.00    -0.272 OA
BRANCH  14  15
ATOM     15  C   UNL     1      57.871 -18.229  56.221  0.00  0.00    +0.218 C 
BRANCH  15  16
ATOM     16  C   UNL     1      57.938 -19.142  57.456  0.00  0.00    +0.417 C 
ATOM     17  F   UNL     1      57.656 -18.503  58.584  0.00  0.00    -0.168 F 
ATOM     18  F   UNL     1      59.119 -19.729  57.657  0.00  0.00    -0.168 F 
ATOM     19  F   UNL     1      57.026 -20.113  57.332  0.00  0.00    -0.168 F 
ENDBRANCH  15  16
ENDBRANCH  14  15
ENDBRANCH  12  13
ENDBRANCH  11  12
TORSDOF 5
