REMARK  Name = 3OC1
REMARK  7 active torsions:
REMARK  status: ('A' for Active; 'I' for Inactive)
REMARK    1  A    between atoms: N_3  and  C_4
REMARK    2  A    between atoms: N_11  and  C_12
REMARK    3  A    between atoms: C_14  and  C_21
REMARK    4  A    between atoms: N_16  and  C_17
REMARK    5  A    between atoms: C_18  and  C_21
REMARK    6  A    between atoms: C_19  and  C_21
REMARK    7  A    between atoms: C_20  and  C_21
REMARK                            x       y       z     vdW  Elec       q    Type
REMARK                         _______ _______ _______ _____ _____    ______ ____
ROOT
ATOM      1  C   UNL     1      -0.799   2.886  14.818  0.00  0.00    +0.309 C 
ATOM      2  N   UNL     1      -0.412   3.519  13.706  0.00  0.00    -0.254 N 
ATOM      3  H   UNL     1      -1.099   4.207  13.259  0.00  0.00    +0.158 HD
ATOM     14  N   UNL     1      -2.100   3.043  15.112  0.00  0.00    -0.269 N 
ATOM     15  H   UNL     1      -2.681   3.695  14.494  0.00  0.00    +0.156 HD
ATOM     23  O   UNL     1      -0.006   2.220  15.492  0.00  0.00    -0.252 OA
ENDROOT
BRANCH  14  16
ATOM     16  C   UNL     1      -2.711   2.432  16.132  0.00  0.00    +0.035 A 
ATOM     17  C   UNL     1      -2.011   2.221  17.309  0.00  0.00    +0.025 A 
ATOM     18  C   UNL     1      -2.661   1.609  18.352  0.00  0.00    +0.022 A 
ATOM     19  C   UNL     1      -3.987   1.185  18.221  0.00  0.00    +0.041 A 
ATOM     20 CL   UNL     1      -4.736   0.404  19.658  0.00  0.00    -0.084 Cl
ATOM     21  C   UNL     1      -4.726   1.381  17.051  0.00  0.00    +0.022 A 
ATOM     22  C   UNL     1      -4.062   2.026  15.997  0.00  0.00    +0.025 A 
ENDBRANCH  14  16
BRANCH   2   4
ATOM      4  C   UNL     1       0.796   3.348  13.104  0.00  0.00    +0.124 A 
ATOM      5  N   UNL     1       1.308   4.446  12.549  0.00  0.00    -0.253 N 
ATOM      6  C   UNL     1       0.892   5.868  12.441  0.00  0.00    +0.174 C 
ATOM      7  N   UNL     1       2.541   4.149  11.988  0.00  0.00    -0.174 NA
ATOM      8  C   UNL     1       2.719   2.849  12.226  0.00  0.00    +0.070 A 
ATOM     13  C   UNL     1       1.647   2.280  12.887  0.00  0.00    +0.069 A 
BRANCH   8   9
ATOM      9  C   UNL     1       3.967   2.139  11.698  0.00  0.00    +0.006 C 
ATOM     10  C   UNL     1       4.564   1.030  12.546  0.00  0.00    +0.017 C 
ATOM     11  C   UNL     1       3.608   1.474  10.377  0.00  0.00    +0.017 C 
ATOM     12  C   UNL     1       5.065   3.194  11.532  0.00  0.00    +0.017 C 
ENDBRANCH   8   9
ENDBRANCH   2   4
TORSDOF 3
