REMARK  Name = 3fyj_ligand
REMARK  3 active torsions:
REMARK  status: ('A' for Active; 'I' for Inactive)
REMARK    1  A    between atoms: C18_10  and  C13_14
REMARK    2  A    between atoms: C21_16  and  C22_20
REMARK    3  A    between atoms: C2_19  and  C1_21
REMARK                            x       y       z     vdW  Elec       q    Type
REMARK                         _______ _______ _______ _____ _____    ______ ____
ROOT
ATOM      1  C   UNL     1      81.607 262.539 109.516  0.00  0.00    +0.036 A 
ATOM      2  C   UNL     1      82.658 262.753 108.658  0.00  0.00    +0.008 A 
ATOM      3  C   UNL     1      82.354 263.257 107.411  0.00  0.00    +0.040 A 
ATOM      4  N   UNL     1      81.106 263.545 107.012  0.00  0.00    -0.296 NA
ATOM      5  C   UNL     1      80.102 263.321 107.864  0.00  0.00    +0.051 A 
ATOM     13  C   UNL     1      83.386 263.478 106.546  0.00  0.00    +0.019 A 
ATOM     14  C   UNL     1      84.691 263.219 106.869  0.00  0.00    +0.024 A 
ATOM     15  C   UNL     1      84.950 262.715 108.119  0.00  0.00    +0.045 A 
ATOM     16  S   UNL     1      86.522 262.327 108.695  0.00  0.00    -0.042 S 
ATOM     17  C   UNL     1      85.945 261.813 110.213  0.00  0.00    +0.108 A 
ATOM     18  C   UNL     1      86.951 261.379 111.134  0.00  0.00    +0.191 C 
ATOM     19  O   UNL     1      88.032 261.951 111.213  0.00  0.00    -0.404 OA
ATOM     20  N   UNL     1      86.637 260.310 111.937  0.00  0.00    -0.287 N 
ATOM     21  H   UNL     1      87.404 259.823 112.354  0.00  0.00    +0.183 HD
ATOM     22  C   UNL     1      85.320 259.817 112.242  0.00  0.00    +0.114 C 
ATOM     23  C   UNL     1      84.878 258.788 111.232  0.00  0.00    +0.035 C 
ATOM     24  C   UNL     1      84.287 260.881 112.550  0.00  0.00    +0.153 C 
ATOM     25  N   UNL     1      83.815 261.608 111.372  0.00  0.00    -0.322 N 
ATOM     26  H   UNL     1      82.827 261.899 111.368  0.00  0.00    +0.175 HD
ATOM     27  C   UNL     1      84.566 261.938 110.272  0.00  0.00    +0.065 A 
ATOM     28  C   UNL     1      83.968 262.457 109.065  0.00  0.00    +0.028 A 
ATOM     29  C   UNL     1      80.325 262.823 109.121  0.00  0.00    +0.040 A 
ENDROOT
BRANCH   5   6
ATOM      6  C   UNL     1      78.733 263.637 107.491  0.00  0.00    +0.021 A 
ATOM      7  C   UNL     1      77.658 262.884 107.914  0.00  0.00    +0.098 A 
ATOM      8  N   UNL     1      76.362 263.126 107.674  0.00  0.00    -0.294 NA
ATOM      9  C   UNL     1      76.104 264.225 106.960  0.00  0.00    +0.028 A 
ATOM     10  C   UNL     1      74.678 264.552 106.672  0.00  0.00    +0.113 C 
ATOM     11  C   UNL     1      77.095 265.048 106.479  0.00  0.00    +0.036 A 
ATOM     12  C   UNL     1      78.415 264.747 106.745  0.00  0.00    +0.037 A 
ENDBRANCH   5   6
TORSDOF 1
