REMARK  Name = 4QP1
REMARK  3 active torsions:
REMARK  status: ('A' for Active; 'I' for Inactive)
REMARK    1  A    between atoms: C_6  and  N_17
REMARK    2  A    between atoms: C_7  and  C_11
REMARK    3  A    between atoms: C_7  and  N_17
REMARK                            x       y       z     vdW  Elec       q    Type
REMARK                         _______ _______ _______ _____ _____    ______ ____
ROOT
ATOM      1  N   UNL     1     -16.779 -37.157 -27.660  0.00  0.00    -0.219 NA
ATOM      2  C   UNL     1     -16.331 -36.211 -26.839  0.00  0.00    +0.150 A 
ATOM     12  C   UNL     1     -16.648 -34.883 -27.113  0.00  0.00    +0.147 A 
ATOM     13  N   UNL     1     -16.374 -33.669 -26.519  0.00  0.00    -0.231 NA
ATOM     14  C   UNL     1     -16.971 -32.718 -27.269  0.00  0.00    +0.198 A 
ATOM     15  N   UNL     1     -17.590 -33.268 -28.276  0.00  0.00    -0.329 N 
ATOM     16  H   UNL     1     -18.143 -32.735 -29.021  0.00  0.00    +0.168 HD
ATOM     17  C   UNL     1     -17.431 -34.602 -28.241  0.00  0.00    +0.163 A 
ATOM     18  N   UNL     1     -17.842 -35.614 -29.009  0.00  0.00    -0.216 NA
ATOM     19  C   UNL     1     -17.516 -36.852 -28.712  0.00  0.00    +0.225 A 
ENDROOT
BRANCH   2   3
ATOM      3  N   UNL     1     -15.551 -36.530 -25.739  0.00  0.00    -0.323 N 
ATOM      4  H   UNL     1     -15.681 -36.002 -24.817  0.00  0.00    +0.148 HD
BRANCH   3   5
ATOM      5  C   UNL     1     -14.548 -37.593 -25.844  0.00  0.00    +0.138 C 
BRANCH   5   6
ATOM      6  C   UNL     1     -14.868 -38.694 -24.868  0.00  0.00    -0.030 A 
ATOM      7  C   UNL     1     -14.321 -38.674 -23.598  0.00  0.00    +0.005 A 
ATOM      8  C   UNL     1     -14.615 -39.686 -22.704  0.00  0.00    +0.000 A 
ATOM      9  C   UNL     1     -15.456 -40.717 -23.082  0.00  0.00    +0.000 A 
ATOM     10  C   UNL     1     -16.002 -40.737 -24.353  0.00  0.00    +0.000 A 
ATOM     11  C   UNL     1     -15.708 -39.725 -25.246  0.00  0.00    +0.005 A 
ENDBRANCH   5   6
ENDBRANCH   3   5
ENDBRANCH   2   3
TORSDOF 3
