REMARK  Name = 5VD1
REMARK  8 active torsions:
REMARK  status: ('A' for Active; 'I' for Inactive)
REMARK    1  A    between atoms: C_2  and  C_5
REMARK    2  A    between atoms: N_3  and  C_4
REMARK    3  A    between atoms: N_7  and  C_8
REMARK    4  A    between atoms: C_14  and  C_15
REMARK    5  A    between atoms: C_14  and  C_16
REMARK    6  A    between atoms: N_21  and  C_22
REMARK    7  A    between atoms: C_25  and  N_28
REMARK    8  A    between atoms: N_31  and  C_32
REMARK                            x       y       z     vdW  Elec       q    Type
REMARK                         _______ _______ _______ _____ _____    ______ ____
ROOT
ATOM      3  C   UNL     1       3.534  -3.595  -2.407  0.00  0.00    +0.151 A 
ATOM      4  C   UNL     1       4.211  -2.283  -2.425  0.00  0.00    +0.018 A 
ATOM      5  C   UNL     1       3.831  -0.799  -2.343  0.00  0.00    -0.002 C 
ATOM      6  C   UNL     1       2.643  -0.487  -3.232  0.00  0.00    +0.016 C 
ATOM      7  C   UNL     1       3.594  -0.413  -0.894  0.00  0.00    +0.016 C 
ATOM      8  C   UNL     1       4.946   0.081  -2.919  0.00  0.00    +0.050 C 
ATOM      9  C   UNL     1       6.372  -0.344  -2.553  0.00  0.00    -0.001 A 
ATOM     10  C   UNL     1       7.406   0.568  -2.392  0.00  0.00    +0.120 A 
ATOM     11  N   UNL     1       8.652   0.132  -2.120  0.00  0.00    -0.222 NA
ATOM     12  C   UNL     1       8.967  -1.187  -1.969  0.00  0.00    +0.220 A 
ATOM     13  N   UNL     1      10.250  -1.520  -1.686  0.00  0.00    -0.284 N 
ATOM     14  H   UNL     1      10.783  -0.807  -1.460  0.00  0.00    +0.155 HD
ATOM     28  N   UNL     1       7.978  -2.094  -2.122  0.00  0.00    -0.212 NA
ATOM     29  C   UNL     1       6.717  -1.701  -2.432  0.00  0.00    +0.097 A 
ATOM     30  C   UNL     1       5.626  -2.686  -2.508  0.00  0.00    +0.092 A 
ATOM     31  N   UNL     1       5.676  -4.018  -2.513  0.00  0.00    -0.264 N 
ATOM     32  C   UNL     1       6.784  -4.980  -2.627  0.00  0.00    +0.173 C 
ATOM     33  N   UNL     1       4.433  -4.579  -2.476  0.00  0.00    -0.166 NA
ENDROOT
BRANCH  13  15
ATOM     15  C   UNL     1      10.899  -2.736  -1.677  0.00  0.00    +0.034 A 
ATOM     16  C   UNL     1      10.185  -3.966  -1.591  0.00  0.00    +0.025 A 
ATOM     17  C   UNL     1      10.888  -5.195  -1.609  0.00  0.00    +0.025 A 
ATOM     18  C   UNL     1      12.317  -5.216  -1.688  0.00  0.00    +0.030 A 
ATOM     26  C   UNL     1      12.994  -3.988  -1.746  0.00  0.00    +0.025 A 
ATOM     27  C   UNL     1      12.306  -2.790  -1.754  0.00  0.00    +0.025 A 
BRANCH  18  19
ATOM     19  N   UNL     1      13.053  -6.427  -1.696  0.00  0.00    -0.328 N 
ATOM     20  C   UNL     1      14.481  -6.313  -2.093  0.00  0.00    +0.120 C 
ATOM     21  C   UNL     1      15.147  -7.679  -1.951  0.00  0.00    +0.103 C 
ATOM     22  N   UNL     1      14.331  -8.567  -2.773  0.00  0.00    -0.302 NA
ATOM     23  C   UNL     1      14.832  -9.932  -2.899  0.00  0.00    +0.105 C 
ATOM     24  C   UNL     1      12.911  -8.295  -3.014  0.00  0.00    +0.103 C 
ATOM     25  C   UNL     1      12.393  -7.743  -1.703  0.00  0.00    +0.120 C 
ENDBRANCH  18  19
ENDBRANCH  13  15
BRANCH   3   2
ATOM      1  O   UNL     1       1.376  -2.948  -1.921  0.00  0.00    -0.269 OA
ATOM      2  C   UNL     1       2.102  -3.835  -2.348  0.00  0.00    +0.264 C 
ATOM     34  N   UNL     1       1.694  -5.040  -2.694  0.00  0.00    -0.313 N 
ATOM     35  H   UNL     1       2.293  -5.562  -3.151  0.00  0.00    +0.149 HD
ATOM     36  C   UNL     1       0.304  -5.482  -2.690  0.00  0.00    +0.128 C 
ENDBRANCH   3   2
TORSDOF 3
