REMARK  Name = 4FST
REMARK  9 active torsions:
REMARK  status: ('A' for Active; 'I' for Inactive)
REMARK    1  A    between atoms: O_1  and  C_2
REMARK    2  A    between atoms: C_3  and  O_4
REMARK    3  A    between atoms: O_4  and  C_5
REMARK    4  A    between atoms: C_7  and  C_10
REMARK    5  A    between atoms: C_11  and  C_12
REMARK    6  A    between atoms: C_21  and  O_22
REMARK    7  A    between atoms: O_22  and  C_23
REMARK    8  A    between atoms: C_24  and  O_26
REMARK    9  A    between atoms: O_26  and  C_27
REMARK                            x       y       z     vdW  Elec       q    Type
REMARK                         _______ _______ _______ _____ _____    ______ ____
ROOT
ATOM      9  C   UNL     1      14.229  -3.132  10.129  0.00  0.00    +0.155 C 
ATOM     10  N   UNL     1      14.537  -2.046   9.292  0.00  0.00    -0.218 NA
ATOM     11  H   UNL     1      13.917  -1.290   9.021  0.00  0.00    +0.146 HD
ATOM     12  N   UNL     1      15.822  -2.076   8.828  0.00  0.00    -0.278 N 
ATOM     13  H   UNL     1      16.303  -1.375   8.178  0.00  0.00    +0.166 HD
ATOM     14  C   UNL     1      16.340  -3.183   9.373  0.00  0.00    +0.051 C 
ATOM     15  C   UNL     1      17.592  -3.907   9.501  0.00  0.00    +0.004 A 
ATOM     16  C   UNL     1      18.834  -3.625   8.935  0.00  0.00    +0.059 A 
ATOM     17  C   UNL     1      19.929  -4.421   9.249  0.00  0.00    +0.162 A 
ATOM     18  C   UNL     1      19.773  -5.512  10.131  0.00  0.00    +0.162 A 
ATOM     21  C   UNL     1      18.525  -5.789  10.675  0.00  0.00    +0.054 A 
ATOM     24  C   UNL     1      17.434  -4.986  10.360  0.00  0.00    -0.031 A 
ATOM     25  C   UNL     1      16.005  -5.069  10.817  0.00  0.00    +0.071 C 
ATOM     26  C   UNL     1      15.382  -3.885  10.193  0.00  0.00    -0.006 C 
ENDROOT
BRANCH   9   8
ATOM      7  C   UNL     1      12.062  -3.502  11.476  0.00  0.00    -0.064 C 
ATOM      8  C   UNL     1      13.026  -3.287  10.807  0.00  0.00    -0.065 C 
BRANCH   7   6
ATOM      3  C   UNL     1       8.636  -4.141  13.853  0.00  0.00    +0.159 A 
ATOM      4  C   UNL     1       9.358  -5.229  13.362  0.00  0.00    +0.050 A 
ATOM      5  C   UNL     1      10.498  -5.026  12.609  0.00  0.00    +0.021 A 
ATOM      6  C   UNL     1      10.921  -3.728  12.321  0.00  0.00    +0.029 A 
ATOM     27  C   UNL     1      10.216  -2.634  12.821  0.00  0.00    +0.066 A 
ATOM     28  C   UNL     1       9.076  -2.840  13.582  0.00  0.00    +0.162 A 
BRANCH   3   1
ATOM      1  O   UNL     1       7.536  -4.348  14.622  0.00  0.00    -0.503 OA
ATOM      2  H   UNL     1       7.170  -3.475  14.922  0.00  0.00    +0.292 HD
ENDBRANCH   3   1
BRANCH  28  29
ATOM     29  O   UNL     1       8.303  -1.852  14.136  0.00  0.00    -0.491 OA
ATOM     30  C   UNL     1       8.683  -0.491  13.910  0.00  0.00    +0.277 C 
ENDBRANCH  28  29
ENDBRANCH   7   6
ENDBRANCH   9   8
BRANCH  18  19
ATOM     19  O   UNL     1      20.916  -6.229  10.371  0.00  0.00    -0.491 OA
ATOM     20  C   UNL     1      20.833  -7.380  11.214  0.00  0.00    +0.277 C 
ENDBRANCH  18  19
BRANCH  17  22
ATOM     22  O   UNL     1      21.196  -4.254   8.749  0.00  0.00    -0.491 OA
ATOM     23  C   UNL     1      21.416  -3.226   7.781  0.00  0.00    +0.277 C 
ENDBRANCH  17  22
TORSDOF 6
