REMARK  Name = 4c4e_ligand
REMARK  7 active torsions:
REMARK  status: ('A' for Active; 'I' for Inactive)
REMARK    1  A    between atoms: C3_1  and  O1_2
REMARK    2  A    between atoms: O1_2  and  C2_3
REMARK    3  A    between atoms: C6_6  and  N_11
REMARK    4  A    between atoms: C1_8  and  O_9
REMARK    5  A    between atoms: O_9  and  C_10
REMARK    6  A    between atoms: N_11  and  C7_12
REMARK    7  A    between atoms: C11_16  and  C12_21
REMARK                            x       y       z     vdW  Elec       q    Type
REMARK                         _______ _______ _______ _____ _____    ______ ____
ROOT
ATOM     11  C   UNL     1       0.032  44.040 131.486  0.00  0.00    +0.110 A 
ATOM     12  N   UNL     1      -0.191  44.085 132.872  0.00  0.00    -0.301 NA
ATOM     13  C   UNL     1      -0.980  43.133 133.428  0.00  0.00    +0.056 A 
ATOM     14  C   UNL     1      -1.584  42.118 132.693  0.00  0.00    -0.016 A 
ATOM     15  C   UNL     1      -2.434  41.041 133.005  0.00  0.00    -0.041 A 
ATOM     16  C   UNL     1      -2.674  40.373 131.826  0.00  0.00    +0.047 A 
ATOM     23  N   UNL     1      -2.007  41.020 130.764  0.00  0.00    -0.276 N 
ATOM     24  H   UNL     1      -2.020  40.738 129.774  0.00  0.00    +0.224 HD
ATOM     25  C   UNL     1      -1.343  42.087 131.290  0.00  0.00    +0.067 A 
ATOM     26  C   UNL     1      -0.551  43.038 130.652  0.00  0.00    +0.051 A 
ENDROOT
BRANCH  16  17
ATOM     17  C   UNL     1      -3.387  39.151 131.616  0.00  0.00    +0.025 A 
ATOM     18  C   UNL     1      -4.052  38.712 130.472  0.00  0.00    +0.077 A 
ATOM     19  N   UNL     1      -4.437  37.404 130.743  0.00  0.00    -0.215 NA
ATOM     20  N   UNL     1      -4.070  37.003 131.991  0.00  0.00    -0.216 N 
ATOM     21  H   UNL     1      -4.242  36.084 132.423  0.00  0.00    +0.260 HD
ATOM     22  C   UNL     1      -3.431  38.063 132.549  0.00  0.00    +0.167 A 
ENDBRANCH  16  17
BRANCH  11   9
ATOM      9  N   UNL     1       0.924  44.995 130.920  0.00  0.00    -0.277 N 
ATOM     10  H   UNL     1       1.411  45.601 131.595  0.00  0.00    +0.206 HD
BRANCH   9   8
ATOM      3  C   UNL     1       1.604  45.838 126.826  0.00  0.00    +0.107 A 
ATOM      4  C   UNL     1       1.491  46.890 127.794  0.00  0.00    +0.110 A 
ATOM      7  C   UNL     1       1.303  46.584 129.158  0.00  0.00    +0.023 A 
ATOM      8  C   UNL     1       1.237  45.229 129.550  0.00  0.00    +0.039 A 
ATOM     27  C   UNL     1       1.395  44.187 128.586  0.00  0.00    -0.018 A 
ATOM     28  C   UNL     1       1.565  44.488 127.244  0.00  0.00    -0.003 A 
BRANCH   3   2
ATOM      1  C   UNL     1       2.985  45.916 124.908  0.00  0.00    +0.225 C 
ATOM      2  O   UNL     1       1.688  46.139 125.478  0.00  0.00    -0.333 OA
ENDBRANCH   3   2
BRANCH   4   5
ATOM      5  O   UNL     1       1.616  48.202 127.374  0.00  0.00    -0.328 OA
ATOM      6  C   UNL     1       0.384  48.917 127.207  0.00  0.00    +0.229 C 
ENDBRANCH   4   5
ENDBRANCH   9   8
ENDBRANCH  11   9
TORSDOF 5
