REMARK  Name = 2OI4
REMARK  1 active torsions:
REMARK  status: ('A' for Active; 'I' for Inactive)
REMARK    1  A    between atoms: RU_13  and  C_14
REMARK                            x       y       z     vdW  Elec       q    Type
REMARK                         _______ _______ _______ _____ _____    ______ ____
ROOT
ATOM      1  F   UNL     1     -23.885 -38.540  -4.637  0.00  0.00    +0.000 F 
ATOM      2  C   UNL     1     -23.500 -37.419  -3.808  0.00  0.00    +0.000 C 
ATOM      3  C   UNL     1     -23.120 -36.270  -4.470  0.00  0.00    +0.000 C 
ATOM      4  N   UNL     1     -22.794 -35.193  -3.729  0.00  0.00    +0.000 N 
ATOM      5  C   UNL     1     -22.860 -35.332  -2.347  0.00  0.00    +0.000 A 
ATOM      6  C   UNL     1     -22.534 -34.203  -1.635  0.00  0.00    +0.000 A 
ATOM      7  C   UNL     1     -22.484 -34.078  -0.251  0.00  0.00    +0.000 A 
ATOM      8  C   UNL     1     -22.081 -32.748  -0.018  0.00  0.00    +0.000 A 
ATOM      9  C   UNL     1     -21.835 -32.005   1.160  0.00  0.00    +0.000 A 
ATOM     10  C   UNL     1     -21.394 -30.682   1.031  0.00  0.00    +0.000 A 
ATOM     11  C   UNL     1     -21.265 -30.137  -0.246  0.00  0.00    +0.000 A 
ATOM     12  C   UNL     1     -21.468 -30.838  -1.419  0.00  0.00    +0.000 A 
ATOM     13  C   UNL     1     -21.895 -32.153  -1.294  0.00  0.00    +0.000 A 
ATOM     14  C   UNL     1     -22.876 -35.253   0.449  0.00  0.00    +0.000 A 
ATOM     15  C   UNL     1     -23.101 -35.583   1.796  0.00  0.00    +0.000 A 
ATOM     16  O   UNL     1     -22.952 -34.842   2.706  0.00  0.00    +0.000 OA
ATOM     17  N   UNL     1     -23.493 -36.891   1.978  0.00  0.00    +0.000 N 
ATOM     18  H   UNL     1     -23.694 -37.394   2.901  0.00  0.00    +0.000 HD
ATOM     19  C   UNL     1     -23.567 -37.404   0.702  0.00  0.00    +0.000 A 
ATOM     20  O   UNL     1     -24.016 -38.526   0.454  0.00  0.00    +0.000 OA
ATOM     21  C   UNL     1     -23.224 -36.419  -0.247  0.00  0.00    +0.000 A 
ATOM     22  N   UNL     1     -22.141 -33.096  -2.338  0.00  0.00    +0.000 N 
ATOM     23  C   UNL     1     -23.219 -36.478  -1.658  0.00  0.00    +0.000 A 
ATOM     24 RU   UNL     1     -22.271 -33.329  -4.391  0.00  0.00    +0.000 Ru
ATOM     25  C   UNL     1     -22.576 -31.361  -5.106  0.00  0.00    +0.000 C 
ATOM     26  C   UNL     1     -22.131 -32.158  -6.162  0.00  0.00    +0.000 C 
ATOM     27  C   UNL     1     -23.054 -33.159  -6.387  0.00  0.00    +0.000 C 
ATOM     28  C   UNL     1     -24.097 -32.968  -5.472  0.00  0.00    +0.000 C 
ATOM     29  C   UNL     1     -23.816 -31.855  -4.680  0.00  0.00    +0.000 C 
ATOM     32  C   UNL     1     -23.573 -37.581  -2.418  0.00  0.00    +0.000 C 
ENDROOT
BRANCH  24  30
ATOM     30  C   UNL     1     -20.331 -33.659  -4.659  0.00  0.00    +0.000 C 
ATOM     31  O   UNL     1     -19.298 -33.949  -4.778  0.00  0.00    +0.000 OA
ENDBRANCH  24  30
TORSDOF 1
