REMARK  Name = 3u9c_ligand
REMARK  2 active torsions:
REMARK  status: ('A' for Active; 'I' for Inactive)
REMARK    1  A    between atoms: O4_1  and  C23_7
REMARK    2  A    between atoms: O6_4  and  C30_14
REMARK                            x       y       z     vdW  Elec       q    Type
REMARK                         _______ _______ _______ _____ _____    ______ ____
ROOT
ATOM      3  C   UNL     1      47.079  -2.647  41.859  0.00  0.00    +0.067 A 
ATOM      4  C   UNL     1      46.127  -3.587  41.470  0.00  0.00    +0.034 A 
ATOM      5  C   UNL     1      46.111  -4.070  40.124  0.00  0.00    +0.128 A 
ATOM      6  C   UNL     1      47.030  -3.609  39.217  0.00  0.00    +0.079 A 
ATOM      7  C   UNL     1      48.004  -2.647  39.615  0.00  0.00    -0.011 A 
ATOM      8  N   UNL     1      47.015  -4.086  37.880  0.00  0.00    -0.291 N 
ATOM      9  H   UNL     1      47.690  -3.754  37.191  0.00  0.00    +0.196 HD
ATOM     10  C   UNL     1      46.024  -5.043  37.539  0.00  0.00    +0.079 A 
ATOM     11  C   UNL     1      45.961  -5.559  36.210  0.00  0.00    -0.011 A 
ATOM     12  C   UNL     1      44.986  -6.500  35.874  0.00  0.00    -0.014 A 
ATOM     13  C   UNL     1      44.069  -6.938  36.840  0.00  0.00    +0.067 A 
ATOM     14  C   UNL     1      44.130  -6.435  38.139  0.00  0.00    +0.034 A 
ATOM     17  C   UNL     1      45.128  -5.472  38.485  0.00  0.00    +0.128 A 
ATOM     18  O   UNL     1      45.165  -4.994  39.768  0.00  0.00    -0.271 OA
ATOM     19  C   UNL     1      48.016  -2.178  40.928  0.00  0.00    -0.014 A 
ENDROOT
BRANCH   3   1
ATOM      1  O   UNL     1      47.101  -2.177  43.153  0.00  0.00    -0.344 OA
ATOM      2  H   UNL     1      46.399  -2.596  43.656  0.00  0.00    +0.244 HD
ENDBRANCH   3   1
BRANCH  13  15
ATOM     15  O   UNL     1      43.109  -7.866  36.508  0.00  0.00    -0.344 OA
ATOM     16  H   UNL     1      43.204  -8.107  35.584  0.00  0.00    +0.244 HD
ENDBRANCH  13  15
TORSDOF 2
