REMARK  Name = 4eh9_ligand
REMARK  2 active torsions:
REMARK  status: ('A' for Active; 'I' for Inactive)
REMARK    1  A    between atoms: CAQ_15  and  CAR_17
REMARK    2  A    between atoms: CAS_20  and  CAZ_21
REMARK                            x       y       z     vdW  Elec       q    Type
REMARK                         _______ _______ _______ _____ _____    ______ ____
ROOT
ATOM      1  O   UNL     1      -1.055 -11.771  11.688  0.00  0.00    -0.427 OA
ATOM      2  C   UNL     1      -1.015 -10.870  12.533  0.00  0.00    +0.188 A 
ATOM      3  N   UNL     1      -2.059 -10.675  13.389  0.00  0.00    -0.202 N 
ATOM      4  C   UNL     1      -3.232 -11.611  13.246  0.00  0.00    +0.203 C 
ATOM      5  C   UNL     1      -4.443 -11.203  14.100  0.00  0.00    +0.047 C 
ATOM      6  C   UNL     1      -3.944 -10.683  15.474  0.00  0.00    +0.038 C 
ATOM      7  C   UNL     1      -3.078  -9.408  15.266  0.00  0.00    +0.114 C 
ATOM      8  C   UNL     1      -4.025  -8.299  14.700  0.00  0.00    +0.166 C 
ATOM      9  N   UNL     1      -4.474  -8.783  13.358  0.00  0.00    -0.265 N 
ATOM     10  C   UNL     1      -4.112  -8.180  12.196  0.00  0.00    +0.227 C 
ATOM     21  O   UNL     1      -4.444  -8.659  11.111  0.00  0.00    -0.372 OA
ATOM     22  C   UNL     1      -5.198 -10.105  13.322  0.00  0.00    +0.145 C 
ATOM     23  C   UNL     1      -2.009  -9.680  14.344  0.00  0.00    +0.091 A 
ATOM     24  C   UNL     1      -0.865  -8.866  14.411  0.00  0.00    -0.016 A 
ATOM     25  C   UNL     1       0.208  -9.046  13.537  0.00  0.00    -0.027 A 
ATOM     26  C   UNL     1       0.130 -10.064  12.589  0.00  0.00    +0.005 A 
ENDROOT
BRANCH  10  11
ATOM     11  C   UNL     1      -3.500  -6.909  12.197  0.00  0.00    +0.077 A 
ATOM     12  C   UNL     1      -2.118  -6.696  12.168  0.00  0.00    +0.060 A 
ATOM     13  C   UNL     1      -1.622  -5.376  12.152  0.00  0.00    +0.058 A 
ATOM     14  C   UNL     1      -2.483  -4.257  12.173  0.00  0.00    +0.051 A 
ATOM     19  C   UNL     1      -3.864  -4.482  12.189  0.00  0.00    +0.058 A 
ATOM     20  C   UNL     1      -4.352  -5.792  12.194  0.00  0.00    +0.060 A 
BRANCH  14  15
ATOM     15  C   UNL     1      -2.004  -2.922  12.149  0.00  0.00    +0.379 C 
ATOM     16  F   UNL     1      -0.732  -2.873  11.958  0.00  0.00    -0.219 F 
ATOM     17  F   UNL     1      -2.271  -2.252  13.341  0.00  0.00    -0.219 F 
ATOM     18  F   UNL     1      -2.649  -2.226  11.076  0.00  0.00    -0.219 F 
ENDBRANCH  14  15
ENDBRANCH  10  11
TORSDOF 2
