REMARK  Name = 8NV
REMARK  4 active torsions:
REMARK  status: ('A' for Active; 'I' for Inactive)
REMARK    1  A    between atoms: C17_9  and  C21_11
REMARK    2  A    between atoms: C21_11  and  N24_24
REMARK    3  A    between atoms: C22_12  and  S29_29
REMARK    4  A    between atoms: C9_16  and  S29_29
REMARK                            x       y       z     vdW  Elec       q    Type
REMARK                         _______ _______ _______ _____ _____    ______ ____
ROOT
ATOM      1  C   UNL     1     -14.668 -10.958 -22.196  0.00  0.00    +0.096 A 
ATOM      2  N   UNL     1     -13.805 -10.659 -21.170  0.00  0.00    -0.239 NA
ATOM      3  C   UNL     1     -14.217  -9.507 -20.560  0.00  0.00    +0.137 A 
ATOM      4  C   UNL     1     -13.584  -8.790 -19.501  0.00  0.00    +0.279 C 
ATOM      5  O   UNL     1     -12.532  -9.146 -18.969  0.00  0.00    -0.265 OA
ATOM      6  N   UNL     1     -14.275  -7.622 -19.201  0.00  0.00    -0.291 N 
ATOM      7  C   UNL     1     -13.710  -6.781 -18.169  0.00  0.00    +0.134 C 
ATOM      8  C   UNL     1     -15.507  -7.279 -19.767  0.00  0.00    +0.079 C 
ATOM      9  C   UNL     1     -16.101  -7.985 -20.748  0.00  0.00    +0.020 C 
ATOM     10  C   UNL     1     -17.463  -7.623 -21.240  0.00  0.00    +0.016 A 
ATOM     11  C   UNL     1     -18.407  -7.179 -20.328  0.00  0.00    +0.020 A 
ATOM     12  C   UNL     1     -19.704  -6.897 -20.724  0.00  0.00    +0.106 A 
ATOM     19  C   UNL     1     -20.108  -7.060 -22.028  0.00  0.00    +0.020 A 
ATOM     20  C   UNL     1     -19.188  -7.541 -22.930  0.00  0.00    +0.016 A 
ATOM     21  C   UNL     1     -17.892  -7.847 -22.547  0.00  0.00    +0.048 A 
ATOM     22  N   UNL     1     -17.102  -8.427 -23.553  0.00  0.00    -0.303 N 
ATOM     23  C   UNL     1     -16.810  -9.837 -23.161  0.00  0.00    +0.119 C 
ATOM     28  C   UNL     1     -15.388  -9.123 -21.169  0.00  0.00    +0.023 A 
ATOM     29  C   UNL     1     -15.681 -10.013 -22.221  0.00  0.00    +0.018 A 
ENDROOT
BRANCH  12  13
ATOM     13  S   UNL     1     -20.887  -6.386 -19.502  0.00  0.00    +0.007 S 
ATOM     14  O   UNL     1     -20.457  -6.960 -18.242  0.00  0.00    -0.169 OA
ATOM     18  O   UNL     1     -22.175  -6.799 -20.050  0.00  0.00    -0.169 OA
BRANCH  13  15
ATOM     15  C   UNL     1     -20.902  -4.627 -19.341  0.00  0.00    +0.134 C 
ATOM     16  C   UNL     1     -22.074  -4.282 -18.451  0.00  0.00    +0.026 C 
ATOM     17  C   UNL     1     -19.640  -4.141 -18.672  0.00  0.00    +0.026 C 
ENDBRANCH  13  15
ENDBRANCH  12  13
BRANCH  22  24
ATOM     24  C   UNL     1     -16.091  -7.484 -24.013  0.00  0.00    +0.091 C 
BRANCH  24  25
ATOM     25  C   UNL     1     -15.531  -7.883 -25.320  0.00  0.00    +0.020 C 
ATOM     26  C   UNL     1     -14.656  -6.870 -25.987  0.00  0.00    +0.002 C 
ATOM     27  C   UNL     1     -16.005  -7.188 -26.564  0.00  0.00    +0.002 C 
ENDBRANCH  24  25
ENDBRANCH  22  24
TORSDOF 4
