REMARK  Name = 5MZ3
REMARK  7 active torsions:
REMARK  status: ('A' for Active; 'I' for Inactive)
REMARK    1  A    between atoms: C_1  and  C_9
REMARK    2  A    between atoms: C_2  and  C_10
REMARK    3  A    between atoms: C_7  and  C_19
REMARK    4  A    between atoms: C_16  and  N_29
REMARK    5  A    between atoms: C_17  and  C_18
REMARK    6  A    between atoms: C_20  and  N_23
REMARK    7  A    between atoms: C_24  and  C_25
REMARK                            x       y       z     vdW  Elec       q    Type
REMARK                         _______ _______ _______ _____ _____    ______ ____
ROOT
ATOM      1  C   UNL     1      -6.143 -31.925  31.608  0.00  0.00    -0.043 A 
ATOM      2  C   UNL     1      -7.405 -31.627  31.068  0.00  0.00    +0.006 A 
ATOM      3  C   UNL     1      -7.540 -30.732  29.989  0.00  0.00    +0.023 A 
ATOM      4  C   UNL     1      -6.409 -30.086  29.462  0.00  0.00    +0.034 A 
ATOM     19  C   UNL     1      -5.161 -30.354  30.008  0.00  0.00    +0.032 A 
ATOM     20  C   UNL     1      -6.056 -32.900  32.790  0.00  0.00    +0.044 C 
ATOM     21  C   UNL     1      -5.014 -31.276  31.052  0.00  0.00    -0.012 A 
ENDROOT
BRANCH  21  22
ATOM     22  C   UNL     1      -3.613 -31.413  31.590  0.00  0.00    -0.001 A 
ATOM     23  C   UNL     1      -2.934 -30.175  32.057  0.00  0.00    +0.013 A 
ATOM     24  C   UNL     1      -1.696 -30.250  32.547  0.00  0.00    +0.047 A 
ATOM     25  C   UNL     1      -1.145 -31.604  32.591  0.00  0.00    +0.140 A 
ATOM     26  N   UNL     1      -0.047 -31.934  33.073  0.00  0.00    -0.213 NA
ATOM     27  C   UNL     1       0.104 -33.353  32.927  0.00  0.00    +0.144 A 
ATOM     33  C   UNL     1      -1.069 -33.740  32.362  0.00  0.00    +0.136 A 
ATOM     34  N   UNL     1      -1.791 -32.661  32.157  0.00  0.00    -0.304 N 
ATOM     35  C   UNL     1      -2.995 -32.614  31.651  0.00  0.00    +0.101 A 
BRANCH  27  28
ATOM     28  N   UNL     1       1.185 -34.017  33.363  0.00  0.00    -0.269 N 
ATOM     29  H   UNL     1       1.889 -33.461  33.946  0.00  0.00    +0.156 HD
ATOM     30  C   UNL     1       1.472 -35.312  33.140  0.00  0.00    +0.215 C 
ATOM     31  O   UNL     1       0.759 -36.045  32.468  0.00  0.00    -0.276 OA
ATOM     32  C   UNL     1       2.739 -35.854  33.768  0.00  0.00    +0.109 C 
ENDBRANCH  27  28
ENDBRANCH  21  22
BRANCH   4   5
ATOM      5  N   UNL     1      -6.550 -29.218  28.345  0.00  0.00    -0.281 N 
ATOM      6  H   UNL     1      -7.234 -28.401  28.439  0.00  0.00    +0.155 HD
ATOM      7  C   UNL     1      -5.883 -29.344  27.164  0.00  0.00    +0.248 C 
ATOM      8  O   UNL     1      -5.038 -30.199  26.933  0.00  0.00    -0.270 OA
BRANCH   7   9
ATOM      9  C   UNL     1      -6.220 -28.411  26.027  0.00  0.00    +0.038 A 
ATOM     10  C   UNL     1      -5.934 -28.824  24.710  0.00  0.00    +0.025 A 
ATOM     11  C   UNL     1      -6.284 -28.016  23.613  0.00  0.00    +0.056 A 
ATOM     16  C   UNL     1      -6.914 -26.785  23.854  0.00  0.00    +0.012 A 
ATOM     17  C   UNL     1      -7.272 -26.396  25.154  0.00  0.00    +0.001 A 
ATOM     18  C   UNL     1      -6.921 -27.210  26.245  0.00  0.00    +0.013 A 
BRANCH  11  12
ATOM     12  C   UNL     1      -5.917 -28.463  22.192  0.00  0.00    +0.417 C 
ATOM     13  F   UNL     1      -6.695 -29.493  21.798  0.00  0.00    -0.166 F 
ATOM     14  F   UNL     1      -4.636 -28.911  22.173  0.00  0.00    -0.166 F 
ATOM     15  F   UNL     1      -6.076 -27.454  21.290  0.00  0.00    -0.166 F 
ENDBRANCH  11  12
ENDBRANCH   7   9
ENDBRANCH   4   5
TORSDOF 5
