REMARK  Name = 4WA9
REMARK  6 active torsions:
REMARK  status: ('A' for Active; 'I' for Inactive)
REMARK    1  A    between atoms: C_2  and  C_5
REMARK    2  A    between atoms: N_3  and  C_4
REMARK    3  A    between atoms: C_9  and  S_11
REMARK    4  A    between atoms: S_11  and  C_12
REMARK    5  A    between atoms: C_19  and  C_21
REMARK    6  A    between atoms: C_22  and  C_23
REMARK                            x       y       z     vdW  Elec       q    Type
REMARK                         _______ _______ _______ _____ _____    ______ ____
ROOT
ATOM      6  C   UNL     1      24.960 127.219  17.074  0.00  0.00    +0.015 A 
ATOM      7  C   UNL     1      25.714 126.209  17.666  0.00  0.00    +0.043 A 
ATOM      8  C   UNL     1      26.398 125.272  16.816  0.00  0.00    +0.067 A 
ATOM      9  C   UNL     1      26.305 125.357  15.438  0.00  0.00    +0.027 A 
ATOM     10  C   UNL     1      27.097 124.277  14.906  0.00  0.00    +0.093 A 
ATOM     19  N   UNL     1      27.606 123.599  15.954  0.00  0.00    -0.173 NA
ATOM     20  C   UNL     1      25.530 126.397  14.831  0.00  0.00    +0.013 A 
ATOM     21  N   UNL     1      27.184 124.178  17.126  0.00  0.00    -0.276 N 
ATOM     22  H   UNL     1      27.423 123.839  18.112  0.00  0.00    +0.189 HD
ATOM     23  C   UNL     1      24.862 127.326  15.672  0.00  0.00    +0.016 A 
ENDROOT
BRANCH  10  11
ATOM     11  C   UNL     1      27.339 123.899  13.472  0.00  0.00    +0.032 C 
ATOM     12  C   UNL     1      26.937 124.618  12.372  0.00  0.00    +0.030 C 
BRANCH  12  13
ATOM     13  C   UNL     1      27.238 124.022  11.024  0.00  0.00    +0.064 A 
ATOM     14  C   UNL     1      26.871 124.681   9.859  0.00  0.00    +0.028 A 
ATOM     15  C   UNL     1      27.189 124.098   8.630  0.00  0.00    +0.004 A 
ATOM     16  C   UNL     1      27.850 122.878   8.601  0.00  0.00    +0.020 A 
ATOM     17  C   UNL     1      28.197 122.251   9.790  0.00  0.00    +0.111 A 
ATOM     18  N   UNL     1      27.885 122.841  10.966  0.00  0.00    -0.256 NA
ENDBRANCH  12  13
ENDBRANCH  10  11
BRANCH   6   5
ATOM      5  S   UNL     1      24.114 128.382  18.148  0.00  0.00    -0.089 S 
BRANCH   5   4
ATOM      3  C   UNL     1      21.550 129.381  18.123  0.00  0.00    +0.050 A 
ATOM      4  C   UNL     1      22.389 128.352  17.675  0.00  0.00    +0.025 A 
ATOM     24  C   UNL     1      21.893 127.339  16.862  0.00  0.00    +0.016 A 
ATOM     25  C   UNL     1      20.541 127.324  16.490  0.00  0.00    +0.001 A 
ATOM     26  C   UNL     1      19.702 128.345  16.948  0.00  0.00    +0.001 A 
ATOM     27  C   UNL     1      20.205 129.362  17.758  0.00  0.00    +0.014 A 
BRANCH   3   2
ATOM      1  O   UNL     1      22.635 130.179  20.069  0.00  0.00    -0.270 OA
ATOM      2  C   UNL     1      22.079 130.464  19.014  0.00  0.00    +0.245 C 
ATOM     28  N   UNL     1      21.911 131.842  18.678  0.00  0.00    -0.314 N 
ATOM     29  H   UNL     1      21.420 132.121  17.769  0.00  0.00    +0.149 HD
ATOM     30  C   UNL     1      22.414 132.863  19.584  0.00  0.00    +0.128 C 
ENDBRANCH   3   2
ENDBRANCH   5   4
ENDBRANCH   6   5
TORSDOF 5
