REMARK  Name = 4otw_ligand
REMARK  13 active torsions:
REMARK  status: ('A' for Active; 'I' for Inactive)
REMARK    1  A    between atoms: CAA_1  and  OAV_22
REMARK    2  A    between atoms: O02_2  and  CAX_24
REMARK    3  A    between atoms: O02_2  and  C01_36
REMARK    4  A    between atoms: CAC_3  and  CAM_13
REMARK    5  A    between atoms: CAC_3  and  NBH_34
REMARK    6  A    between atoms: CAG_7  and  CBA_27
REMARK    7  A    between atoms: CAM_13  and  CAN_14
REMARK    8  A    between atoms: CAN_14  and  OAW_23
REMARK    9  A    between atoms: CAO_15  and  NBI_35
REMARK   10  A    between atoms: NAU_21  and  CBB_28
REMARK   11  A    between atoms: NAU_21  and  CBE_31
REMARK   12  A    between atoms: OAV_22  and  CBC_29
REMARK   13  A    between atoms: OAW_23  and  CBD_30
REMARK                            x       y       z     vdW  Elec       q    Type
REMARK                         _______ _______ _______ _____ _____    ______ ____
ROOT
ATOM      3  C   UNL     1      51.809  14.333  12.960  0.00  0.00    +0.131 A 
ATOM      4  C   UNL     1      52.112  12.972  13.188  0.00  0.00    +0.132 A 
ATOM     18  C   UNL     1      51.231  11.945  12.866  0.00  0.00    +0.031 A 
ATOM     19  C   UNL     1      49.996  12.260  12.288  0.00  0.00    +0.021 A 
ATOM     20  C   UNL     1      49.685  13.633  12.056  0.00  0.00    +0.029 A 
ATOM     21  C   UNL     1      48.416  13.971  11.470  0.00  0.00    +0.119 A 
ATOM     22  C   UNL     1      47.549  12.879  11.154  0.00  0.00    +0.135 A 
ATOM     23  C   UNL     1      47.945  11.547  11.426  0.00  0.00    +0.101 A 
ATOM     38  N   UNL     1      49.137  11.275  11.975  0.00  0.00    -0.322 NA
ATOM     39  C   UNL     1      50.574  14.663  12.385  0.00  0.00    +0.035 A 
ENDROOT
BRANCH   3   2
ATOM      1  C   UNL     1      52.346  16.672  13.432  0.00  0.00    +0.231 C 
ATOM      2  O   UNL     1      52.719  15.337  13.298  0.00  0.00    -0.321 OA
ENDBRANCH   3   2
BRANCH  22  24
ATOM     24  C   UNL     1      46.215  13.064  10.525  0.00  0.00    +0.085 C 
ATOM     25  N   UNL     1      45.183  13.232  10.044  0.00  0.00    -0.347 NA
ENDBRANCH  22  24
BRANCH  21  26
ATOM     26  N   UNL     1      48.116  15.405  11.245  0.00  0.00    -0.256 N 
ATOM     27  H   UNL     1      48.902  16.068  11.181  0.00  0.00    +0.222 HD
BRANCH  26  28
ATOM     28  C   UNL     1      46.747  15.923  11.109  0.00  0.00    +0.073 A 
ATOM     29  C   UNL     1      46.399  16.719  10.009  0.00  0.00    +0.053 A 
ATOM     30  C   UNL     1      45.086  17.193   9.886  0.00  0.00    +0.007 A 
ATOM     31  C   UNL     1      44.143  16.855  10.868  0.00  0.00    +0.057 A 
ATOM     32  C   UNL     1      44.496  16.060  11.958  0.00  0.00    +0.097 A 
ATOM     35 CL   UNL     1      42.494  17.399  10.766  0.00  0.00    -0.088 Cl
ATOM     36 CL   UNL     1      47.595  17.109   8.818  0.00  0.00    -0.088 Cl
ATOM     37  C   UNL     1      45.806  15.592  12.092  0.00  0.00    +0.038 A 
BRANCH  32  33
ATOM     33  O   UNL     1      43.555  15.729  12.930  0.00  0.00    -0.323 OA
ATOM     34  C   UNL     1      43.800  14.647  13.765  0.00  0.00    +0.233 C 
ENDBRANCH  32  33
ENDBRANCH  26  28
ENDBRANCH  21  26
BRANCH   4   5
ATOM      5  O   UNL     1      53.331  12.572  13.760  0.00  0.00    -0.313 OA
BRANCH   5   6
ATOM      6  C   UNL     1      53.767  11.252  13.496  0.00  0.00    +0.199 C 
BRANCH   6   7
ATOM      7  C   UNL     1      55.296  11.203  13.499  0.00  0.00    +0.084 C 
BRANCH   7   8
ATOM      8  C   UNL     1      55.794  12.245  14.480  0.00  0.00    +0.134 C 
BRANCH   8   9
ATOM      9  N   UNL     1      56.477  11.515  15.583  0.00  0.00    +0.243 N 
ATOM     10  H   UNL     1      55.731  10.859  15.754  0.00  0.00    +0.204 HD
ATOM     11  C   UNL     1      57.509  10.555  15.191  0.00  0.00    +0.183 C 
ATOM     12  C   UNL     1      58.890  11.095  15.491  0.00  0.00    +0.183 C 
ATOM     13  N   UNL     1      58.898  11.527  16.888  0.00  0.00    +0.240 N 
ATOM     14  H   UNL     1      59.785  11.998  16.972  0.00  0.00    +0.203 HD
ATOM     15  C   UNL     1      57.943  12.581  17.160  0.00  0.00    +0.183 C 
ATOM     16  C   UNL     1      59.005  10.475  17.909  0.00  0.00    +0.191 C 
ATOM     17  C   UNL     1      56.593  11.995  16.960  0.00  0.00    +0.183 C 
ENDBRANCH   8   9
ENDBRANCH   7   8
ENDBRANCH   6   7
ENDBRANCH   5   6
ENDBRANCH   4   5
TORSDOF 10
