REMARK  Name = 5T23
REMARK  5 active torsions:
REMARK  status: ('A' for Active; 'I' for Inactive)
REMARK    1  A    between atoms: C_5  and  C_8
REMARK    2  A    between atoms: C_9  and  C_14
REMARK    3  A    between atoms: C_14  and  C_22
REMARK    4  A    between atoms: C_14  and  N_29
REMARK    5  A    between atoms: C_23  and  N_28
REMARK                            x       y       z     vdW  Elec       q    Type
REMARK                         _______ _______ _______ _____ _____    ______ ____
ROOT
ATOM      1  C   UNL     1     -42.608  16.033 -33.507  0.00  0.00    +0.002 A 
ATOM      2  C   UNL     1     -42.189  15.069 -32.618  0.00  0.00    +0.032 A 
ATOM      3  C   UNL     1     -43.124  14.665 -31.683  0.00  0.00    +0.113 A 
ATOM      4  N   UNL     1     -43.007  13.740 -30.686  0.00  0.00    -0.129 NA
ATOM      5  N   UNL     1     -44.167  13.697 -30.049  0.00  0.00    -0.058 NA
ATOM      6  N   UNL     1     -45.012  14.569 -30.619  0.00  0.00    -0.191 N 
ATOM      7  C   UNL     1     -46.393  14.494 -30.366  0.00  0.00    +0.197 A 
ATOM      8  N   UNL     1     -47.174  15.489 -30.805  0.00  0.00    -0.220 NA
ATOM      9  C   UNL     1     -48.471  15.324 -30.525  0.00  0.00    +0.130 A 
ATOM     10  C   UNL     1     -48.954  14.228 -29.848  0.00  0.00    +0.144 A 
ATOM     11  N   UNL     1     -48.173  13.238 -29.415  0.00  0.00    -0.235 NA
ATOM     26  C   UNL     1     -46.873  13.388 -29.688  0.00  0.00    +0.161 A 
ATOM     27  N   UNL     1     -45.989  12.392 -29.267  0.00  0.00    -0.340 N 
ATOM     28  H   UNL     1     -46.358  11.536 -28.742  0.00  0.00    +0.144 HD
ATOM     29  H   UNL     1     -44.942  12.485 -29.469  0.00  0.00    +0.144 HD
ATOM     30  C   UNL     1     -44.391  15.206 -31.659  0.00  0.00    +0.097 A 
ATOM     31  C   UNL     1     -44.820  16.172 -32.542  0.00  0.00    +0.030 A 
ATOM     32  C   UNL     1     -43.878  16.564 -33.468  0.00  0.00    +0.002 A 
ENDROOT
BRANCH   9  12
ATOM     12  C   UNL     1     -49.394  16.332 -30.977  0.00  0.00    +0.202 A 
ATOM     13  N   UNL     1     -50.690  16.328 -30.645  0.00  0.00    -0.148 NA
ATOM     14  N   UNL     1     -51.133  17.407 -31.300  0.00  0.00    -0.250 N 
ATOM     15  C   UNL     1     -52.528  17.787 -31.221  0.00  0.00    +0.174 C 
ATOM     16  C   UNL     1     -50.135  18.018 -32.000  0.00  0.00    +0.145 A 
ATOM     25  N   UNL     1     -49.016  17.357 -31.807  0.00  0.00    -0.208 NA
BRANCH  16  17
ATOM     17  C   UNL     1     -50.338  19.227 -32.814  0.00  0.00    +0.122 C 
ATOM     24  C   UNL     1     -50.055  18.922 -34.270  0.00  0.00    +0.032 C 
BRANCH  17  18
ATOM     18  N   UNL     1     -49.505  20.289 -32.261  0.00  0.00    -0.288 NA
ATOM     19  C   UNL     1     -48.895  21.118 -33.292  0.00  0.00    +0.113 C 
ATOM     20  C   UNL     1     -48.074  22.181 -32.596  0.00  0.00    +0.175 C 
ATOM     21  O   UNL     1     -48.942  22.988 -31.800  0.00  0.00    -0.377 OA
ATOM     22  C   UNL     1     -49.538  22.187 -30.783  0.00  0.00    +0.175 C 
ATOM     23  C   UNL     1     -50.381  21.124 -31.449  0.00  0.00    +0.113 C 
ENDBRANCH  17  18
ENDBRANCH  16  17
ENDBRANCH   9  12
TORSDOF 3
