REMARK  Name = F48
REMARK  5 active torsions:
REMARK  status: ('A' for Active; 'I' for Inactive)
REMARK    1  A    between atoms: C7_5  and  C8_6
REMARK    2  A    between atoms: N2_7  and  C15_15
REMARK    3  A    between atoms: C11_10  and  C12_11
REMARK    4  A    between atoms: C12_11  and  C13_13
REMARK    5  A    between atoms: C13_13  and  C14_14
REMARK                            x       y       z     vdW  Elec       q    Type
REMARK                         _______ _______ _______ _____ _____    ______ ____
ROOT
ATOM      1  C   UNL     1      41.372  52.097   4.856  0.00  0.00    +0.256 C 
ATOM      2  N   UNL     1      41.125  52.986   5.826  0.00  0.00    -0.032 NA
ATOM      3  C   UNL     1      39.863  53.452   5.894  0.00  0.00    +0.361 C 
ATOM      4  N   UNL     1      39.367  54.351   6.791  0.00  0.00    -0.034 NA
ATOM      5  C   UNL     1      38.036  54.579   6.544  0.00  0.00    +0.232 C 
ATOM      6  C   UNL     1      37.624  53.844   5.481  0.00  0.00    +0.042 C 
ATOM      7  C   UNL     1      38.758  53.095   5.037  0.00  0.00    +0.177 C 
ATOM      8  C   UNL     1      39.087  52.124   4.062  0.00  0.00    +0.076 A 
ATOM      9  N   UNL     1      38.398  51.420   3.056  0.00  0.00    -0.313 N 
ATOM     16  C   UNL     1      39.316  50.592   2.454  0.00  0.00    +0.179 A 
ATOM     17  N   UNL     1      40.524  50.697   2.969  0.00  0.00    -0.220 NA
ATOM     27  C   UNL     1      40.394  51.641   3.980  0.00  0.00    +0.142 A 
ENDROOT
BRANCH   9  10
ATOM     10  C   UNL     1      36.966  51.555   2.677  0.00  0.00    +0.087 C 
ATOM     11  C   UNL     1      35.998  51.141   3.780  0.00  0.00    +0.023 C 
ATOM     12  C   UNL     1      34.568  51.179   3.259  0.00  0.00    +0.002 C 
ATOM     13  C   UNL     1      34.237  52.539   2.641  0.00  0.00    +0.000 C 
ATOM     14  C   UNL     1      35.202  52.882   1.523  0.00  0.00    +0.002 C 
ATOM     15  C   UNL     1      36.640  52.888   2.027  0.00  0.00    +0.023 C 
ENDBRANCH   9  10
BRANCH  16  18
ATOM     18  C   UNL     1      39.013  49.668   1.385  0.00  0.00    +0.179 A 
ATOM     19  O   UNL     1      37.688  49.293   1.318  0.00  0.00    -0.455 OA
ATOM     20  C   UNL     1      37.551  48.458   0.245  0.00  0.00    +0.124 A 
ATOM     25  C   UNL     1      38.749  48.304  -0.358  0.00  0.00    +0.036 A 
ATOM     26  C   UNL     1      39.692  49.077   0.377  0.00  0.00    +0.043 A 
BRANCH  20  21
ATOM     21  C   UNL     1      36.165  47.926   0.080  0.00  0.00    +0.081 C 
BRANCH  21  22
ATOM     22  C   UNL     1      35.353  48.563  -1.033  0.00  0.00    +0.113 C 
BRANCH  22  23
ATOM     23  C   UNL     1      33.998  48.962  -0.585  0.00  0.00    +0.074 C 
ATOM     24  N   UNL     1      32.933  49.281  -0.291  0.00  0.00    -0.196 NA
ENDBRANCH  22  23
ENDBRANCH  21  22
ENDBRANCH  20  21
ENDBRANCH  16  18
TORSDOF 5
