REMARK  Name = R55
REMARK  7 active torsions:
REMARK  status: ('A' for Active; 'I' for Inactive)
REMARK    1  A    between atoms: C21_2  and  C14_3
REMARK    2  A    between atoms: N23_9  and  C31_10
REMARK    3  A    between atoms: C37_16  and  N41_17
REMARK    4  A    between atoms: C42_18  and  C51_20
REMARK    5  A    between atoms: C54_25  and  C61_26
REMARK    6  A    between atoms: C61_26  and  C71_28
REMARK    7  A    between atoms: C75_33  and  N91_35
REMARK                            x       y       z     vdW  Elec       q    Type
REMARK                         _______ _______ _______ _____ _____    ______ ____
ROOT
ATOM     15  C   UNL     1       4.049  21.808  32.304  0.00  0.00    +0.055 A 
ATOM     16  C   UNL     1       3.617  21.487  33.596  0.00  0.00    +0.005 A 
ATOM     17  C   UNL     1       2.993  20.280  33.830  0.00  0.00    +0.003 A 
ATOM     18  C   UNL     1       2.826  19.345  32.795  0.00  0.00    +0.039 A 
ATOM     36  C   UNL     1       3.227  19.670  31.494  0.00  0.00    +0.003 A 
ATOM     37  C   UNL     1       3.875  20.886  31.259  0.00  0.00    +0.005 A 
ENDROOT
BRANCH  15  13
ATOM     12  N   UNL     1       5.410  23.243  30.873  0.00  0.00    -0.202 NA
ATOM     13  C   UNL     1       4.651  23.096  32.021  0.00  0.00    +0.265 C 
ATOM     14  O   UNL     1       4.375  24.066  32.735  0.00  0.00    -0.268 OA
BRANCH  12  11
ATOM     10  C   UNL     1       7.118  24.366  29.467  0.00  0.00    +0.133 C 
ATOM     11  C   UNL     1       5.858  24.545  30.348  0.00  0.00    +0.117 C 
ATOM     38  C   UNL     1       4.633  25.232  29.728  0.00  0.00    +0.025 C 
ATOM     39  C   UNL     1       3.951  24.373  28.665  0.00  0.00    +0.021 C 
ATOM     40  C   UNL     1       4.598  24.444  27.280  0.00  0.00    +0.089 C 
ATOM     41  N   UNL     1       5.950  23.869  27.321  0.00  0.00    -0.216 NA
ATOM     42  C   UNL     1       6.934  24.744  27.989  0.00  0.00    +0.112 C 
BRANCH  10   9
ATOM      1  O   UNL     1       9.591  23.328  30.402  0.00  0.00    -0.268 OA
ATOM      2  C   UNL     1       9.440  24.577  30.390  0.00  0.00    +0.265 C 
ATOM      9  N   UNL     1       8.202  25.148  30.080  0.00  0.00    -0.200 NA
BRANCH   2   3
ATOM      3  C   UNL     1      10.563  25.486  30.678  0.00  0.00    +0.058 A 
ATOM      4  C   UNL     1      11.806  24.897  31.007  0.00  0.00    +0.025 A 
ATOM      5  C   UNL     1      12.915  25.660  31.267  0.00  0.00    +0.099 A 
ATOM      6  N   UNL     1      12.829  27.056  31.231  0.00  0.00    -0.242 NA
ATOM      7  C   UNL     1      11.622  27.648  30.948  0.00  0.00    +0.099 A 
ATOM      8  C   UNL     1      10.485  26.894  30.687  0.00  0.00    +0.025 A 
ENDBRANCH   2   3
ENDBRANCH  10   9
ENDBRANCH  12  11
ENDBRANCH  15  13
BRANCH  18  19
ATOM     19  C   UNL     1       2.095  18.108  33.063  0.00  0.00    +0.199 C 
ATOM     20  O   UNL     1       1.305  18.135  33.987  0.00  0.00    -0.286 OA
BRANCH  19  21
ATOM     21  C   UNL     1       2.159  16.857  32.289  0.00  0.00    +0.079 A 
ATOM     22  C   UNL     1       3.319  16.104  32.280  0.00  0.00    +0.199 A 
ATOM     23  O   UNL     1       4.400  16.569  32.966  0.00  0.00    -0.286 OA
ATOM     24  C   UNL     1       3.399  14.928  31.556  0.00  0.00    +0.043 A 
ATOM     25  C   UNL     1       2.311  14.517  30.831  0.00  0.00    +0.018 A 
ATOM     26  C   UNL     1       1.118  15.263  30.797  0.00  0.00    +0.048 A 
ATOM     35  C   UNL     1       1.060  16.443  31.540  0.00  0.00    +0.021 A 
BRANCH  26  27
ATOM     27  N   UNL     1       0.001  14.807  30.036  0.00  0.00    -0.308 N 
ATOM     28  C   UNL     1      -1.300  15.518  30.167  0.00  0.00    +0.091 C 
ATOM     29  C   UNL     1      -2.512  14.730  29.638  0.00  0.00    +0.021 C 
ATOM     30  C   UNL     1      -2.261  13.783  28.442  0.00  0.00    +0.003 C 
ATOM     31  C   UNL     1      -3.255  12.634  28.544  0.00  0.00    +0.000 C 
ATOM     32  C   UNL     1      -0.878  13.086  28.517  0.00  0.00    +0.021 C 
ATOM     33  C   UNL     1      -2.565  14.518  27.118  0.00  0.00    +0.000 C 
ATOM     34  C   UNL     1       0.251  14.072  28.776  0.00  0.00    +0.091 C 
ENDBRANCH  26  27
ENDBRANCH  19  21
ENDBRANCH  18  19
TORSDOF 7
