REMARK  Name = 2w1f_ligand
REMARK  3 active torsions:
REMARK  status: ('A' for Active; 'I' for Inactive)
REMARK    1  A    between atoms: C2_2  and  C20_18
REMARK    2  A    between atoms: N3_3  and  C4_4
REMARK    3  A    between atoms: C9_8  and  C10_9
REMARK                            x       y       z     vdW  Elec       q    Type
REMARK                         _______ _______ _______ _____ _____    ______ ____
ROOT
ATOM     11  C   UNL     1       5.001  30.579   7.488  0.00  0.00    +0.095 A 
ATOM     12  C   UNL     1       4.080  31.612   7.469  0.00  0.00    +0.119 A 
ATOM     23  N   UNL     1       3.682  31.918   8.687  0.00  0.00    -0.203 NA
ATOM     24  N   UNL     1       4.350  31.072   9.496  0.00  0.00    -0.229 N 
ATOM     25  H   UNL     1       4.257  31.056  10.522  0.00  0.00    +0.254 HD
ATOM     26  C   UNL     1       5.152  30.254   8.798  0.00  0.00    +0.142 A 
ENDROOT
BRANCH  12  13
ATOM     13  C   UNL     1       3.541  32.351   6.354  0.00  0.00    +0.144 A 
ATOM     14  N   UNL     1       2.914  33.546   6.453  0.00  0.00    -0.251 N 
ATOM     15  H   UNL     1       2.753  34.063   7.329  0.00  0.00    +0.230 HD
ATOM     16  C   UNL     1       2.530  33.958   5.214  0.00  0.00    +0.081 A 
ATOM     17  C   UNL     1       1.870  35.063   4.701  0.00  0.00    +0.014 A 
ATOM     18  C   UNL     1       1.645  35.166   3.350  0.00  0.00    -0.021 A 
ATOM     19  C   UNL     1       2.068  34.171   2.495  0.00  0.00    -0.025 A 
ATOM     20  C   UNL     1       2.722  33.066   2.989  0.00  0.00    -0.007 A 
ATOM     21  C   UNL     1       2.960  32.950   4.349  0.00  0.00    +0.029 A 
ATOM     22  N   UNL     1       3.574  31.976   5.086  0.00  0.00    -0.310 NA
ENDBRANCH  12  13
BRANCH  11   9
ATOM      1  O   UNL     1       5.827  27.917   7.070  0.00  0.00    -0.377 OA
ATOM      2  C   UNL     1       5.920  28.744   6.186  0.00  0.00    +0.224 C 
ATOM      9  N   UNL     1       5.591  30.046   6.377  0.00  0.00    -0.248 N 
ATOM     10  H   UNL     1       5.801  30.678   5.631  0.00  0.00    +0.215 HD
BRANCH   2   3
ATOM      3  C   UNL     1       6.408  28.356   4.823  0.00  0.00    +0.054 A 
ATOM      4  C   UNL     1       6.671  27.020   4.531  0.00  0.00    +0.025 A 
ATOM      5  C   UNL     1       7.116  26.660   3.284  0.00  0.00    +0.007 A 
ATOM      6  C   UNL     1       7.306  27.620   2.311  0.00  0.00    +0.008 A 
ATOM      7  C   UNL     1       7.052  28.946   2.584  0.00  0.00    +0.007 A 
ATOM      8  C   UNL     1       6.605  29.320   3.828  0.00  0.00    +0.025 A 
ENDBRANCH   2   3
ENDBRANCH  11   9
TORSDOF 3
