REMARK  Name = 2iw6_ligand
REMARK  14 active torsions:
REMARK  status: ('A' for Active; 'I' for Inactive)
REMARK    1  A    between atoms: C3_5  and  N7_17
REMARK    2  A    between atoms: C10_7  and  C33_33
REMARK    3  A    between atoms: C8_9  and  N7_17
REMARK    4  A    between atoms: C17_11  and  C16_12
REMARK    5  A    between atoms: C16_12  and  N7_17
REMARK    6  A    between atoms: C20_14  and  N19_19
REMARK    7  A    between atoms: C23_21  and  O26_24
REMARK    8  A    between atoms: O26_24  and  C27_25
REMARK    9  A    between atoms: C27_25  and  C28_26
REMARK   10  A    between atoms: C28_26  and  C29_27
REMARK   11  A    between atoms: C28_26  and  O33_31
REMARK   12  A    between atoms: C29_27  and  N30_28
REMARK   13  A    between atoms: N30_28  and  C31_29
REMARK   14  A    between atoms: N30_28  and  C32_30
REMARK                            x       y       z     vdW  Elec       q    Type
REMARK                         _______ _______ _______ _____ _____    ______ ____
ROOT
ATOM     16  N   UNL     1       7.149  42.607  49.172  0.00  0.00    -0.263 N 
ATOM     17  H   UNL     1       7.743  42.129  48.479  0.00  0.00    +0.212 HD
ATOM     18  C   UNL     1       7.754  43.670  49.894  0.00  0.00    +0.132 A 
ATOM     19  N   UNL     1       9.086  43.804  49.790  0.00  0.00    -0.266 NA
ATOM     20  C   UNL     1       9.721  44.776  50.454  0.00  0.00    +0.163 A 
ATOM     21  N   UNL     1       9.081  45.670  51.226  0.00  0.00    -0.265 NA
ATOM     22  C   UNL     1       7.742  45.625  51.384  0.00  0.00    +0.138 A 
ATOM     35  C   UNL     1       7.057  44.598  50.699  0.00  0.00    +0.087 A 
ENDROOT
BRANCH  16  15
ATOM      1  C   UNL     1       3.868  41.776  50.557  0.00  0.00    +0.010 A 
ATOM      2  C   UNL     1       3.229  41.196  49.455  0.00  0.00    +0.080 A 
ATOM     13  C   UNL     1       3.935  41.089  48.251  0.00  0.00    +0.010 A 
ATOM     14  C   UNL     1       5.257  41.568  48.195  0.00  0.00    +0.005 A 
ATOM     15  C   UNL     1       5.868  42.147  49.293  0.00  0.00    +0.053 A 
ATOM     36  C   UNL     1       5.174  42.253  50.495  0.00  0.00    +0.005 A 
BRANCH   2   3
ATOM      3  O   UNL     1       1.932  40.744  49.622  0.00  0.00    -0.323 OA
BRANCH   3   4
ATOM      4  C   UNL     1       1.129  40.212  48.562  0.00  0.00    +0.226 C 
BRANCH   4   5
ATOM      5  C   UNL     1      -0.402  40.196  48.801  0.00  0.00    +0.189 C 
BRANCH   5   6
ATOM      6  O   UNL     1      -1.028  40.979  47.766  0.00  0.00    -0.384 OA
ATOM      7  H   UNL     1      -0.711  40.692  46.918  0.00  0.00    +0.210 HD
ENDBRANCH   5   6
BRANCH   5   8
ATOM      8  C   UNL     1      -0.906  40.649  50.190  0.00  0.00    +0.165 C 
BRANCH   8   9
ATOM      9  N   UNL     1      -2.404  40.594  50.223  0.00  0.00    +0.233 N 
ATOM     10  H   UNL     1      -2.462  40.890  49.261  0.00  0.00    +0.203 HD
ATOM     11  C   UNL     1      -3.162  39.369  49.953  0.00  0.00    +0.190 C 
ATOM     12  C   UNL     1      -3.175  41.746  50.699  0.00  0.00    +0.190 C 
ENDBRANCH   8   9
ENDBRANCH   5   8
ENDBRANCH   4   5
ENDBRANCH   3   4
ENDBRANCH   2   3
ENDBRANCH  16  15
BRANCH  22  23
ATOM     23  N   UNL     1       7.115  46.545  52.197  0.00  0.00    -0.219 N 
BRANCH  23  27
ATOM     27  C   UNL     1       5.838  46.291  52.665  0.00  0.00    +0.075 A 
ATOM     28  C   UNL     1       5.560  45.602  53.867  0.00  0.00    +0.055 A 
ATOM     29 CL   UNL     1       6.836  44.978  54.925  0.00  0.00    -0.086 Cl
ATOM     30  C   UNL     1       4.264  45.364  54.311  0.00  0.00    -0.006 A 
ATOM     31  C   UNL     1       3.192  45.811  53.544  0.00  0.00    -0.025 A 
ATOM     32  C   UNL     1       3.434  46.478  52.348  0.00  0.00    -0.056 A 
ATOM     33  C   UNL     1       2.277  46.950  51.519  0.00  0.00    +0.083 C 
ATOM     34  C   UNL     1       4.743  46.727  51.912  0.00  0.00    +0.010 A 
ENDBRANCH  23  27
BRANCH  23  24
ATOM     24  C   UNL     1       7.788  47.810  52.583  0.00  0.00    +0.348 C 
BRANCH  24  25
ATOM     25  C   UNL     1       8.643  47.655  53.811  0.00  0.00    +0.120 C 
ATOM     26  N   UNL     1       9.349  47.552  54.769  0.00  0.00    -0.301 NA
ENDBRANCH  24  25
ENDBRANCH  23  24
ENDBRANCH  22  23
TORSDOF 11
