REMARK  Name = 4XX9
REMARK  9 active torsions:
REMARK  status: ('A' for Active; 'I' for Inactive)
REMARK    1  A    between atoms: C_1  and  C_9
REMARK    2  A    between atoms: C_5  and  C_10
REMARK    3  A    between atoms: C_6  and  O_7
REMARK    4  A    between atoms: O_7  and  C_8
REMARK    5  A    between atoms: C_8  and  C_11
REMARK    6  A    between atoms: C_11  and  S_12
REMARK    7  A    between atoms: S_12  and  C_13
REMARK    8  A    between atoms: N_14  and  C_22
REMARK    9  A    between atoms: C_22  and  C_23
REMARK                            x       y       z     vdW  Elec       q    Type
REMARK                         _______ _______ _______ _____ _____    ______ ____
ROOT
ATOM      8  C   UNL     1      -9.488  16.228  -9.249  0.00  0.00    +0.170 A 
ATOM      9  N   UNL     1     -10.645  16.038  -8.598  0.00  0.00    -0.222 NA
ATOM     10  C   UNL     1     -10.924  14.702  -8.683  0.00  0.00    +0.090 A 
ATOM     11  C   UNL     1     -12.008  13.927  -8.185  0.00  0.00    +0.030 A 
ATOM     12  C   UNL     1     -11.998  12.573  -8.426  0.00  0.00    +0.002 A 
ATOM     13  C   UNL     1     -10.928  11.951  -9.152  0.00  0.00    +0.002 A 
ATOM     14  C   UNL     1      -9.864  12.720  -9.666  0.00  0.00    +0.028 A 
ATOM     15  C   UNL     1      -9.865  14.085  -9.416  0.00  0.00    +0.070 A 
ATOM     16  N   UNL     1      -8.996  15.094  -9.761  0.00  0.00    -0.313 N 
ENDROOT
BRANCH   8   7
ATOM      7  S   UNL     1      -8.670  17.832  -9.465  0.00  0.00    -0.084 S 
BRANCH   7   6
ATOM      6  C   UNL     1      -9.595  18.932 -10.553  0.00  0.00    +0.118 C 
BRANCH   6   5
ATOM      5  C   UNL     1     -10.719  18.202 -11.391  0.00  0.00    +0.240 C 
BRANCH   5   4
ATOM      4  O   UNL     1     -11.816  19.133 -11.516  0.00  0.00    -0.491 OA
BRANCH   4   3
ATOM      1  C   UNL     1     -13.187  18.998 -13.571  0.00  0.00    -0.009 A 
ATOM      2  C   UNL     1     -12.142  19.857 -14.291  0.00  0.00    +0.048 C 
ATOM      3  C   UNL     1     -13.004  18.656 -12.219  0.00  0.00    +0.126 A 
ATOM     21  C   UNL     1     -13.983  17.864 -11.555  0.00  0.00    -0.009 A 
ATOM     22  C   UNL     1     -13.798  17.465 -10.060  0.00  0.00    +0.048 C 
ATOM     23  C   UNL     1     -15.081  17.434 -12.224  0.00  0.00    +0.007 A 
ATOM     24  C   UNL     1     -15.252  17.770 -13.568  0.00  0.00    +0.001 A 
ATOM     25  C   UNL     1     -14.287  18.573 -14.227  0.00  0.00    +0.007 A 
ENDBRANCH   4   3
ENDBRANCH   5   4
ENDBRANCH   6   5
ENDBRANCH   7   6
ENDBRANCH   8   7
BRANCH  16  17
ATOM     17  C   UNL     1      -7.764  14.974 -10.485  0.00  0.00    +0.176 C 
BRANCH  17  18
ATOM     18  C   UNL     1      -6.636  14.571  -9.507  0.00  0.00    +0.061 C 
ATOM     19  O   UNL     1      -6.897  14.338  -8.260  0.00  0.00    -0.548 OA
ATOM     20  O   UNL     1      -5.428  14.450  -9.930  0.00  0.00    -0.548 OA
ENDBRANCH  17  18
ENDBRANCH  16  17
TORSDOF 7
