REMARK  Name = 5WO4
REMARK  8 active torsions:
REMARK  status: ('A' for Active; 'I' for Inactive)
REMARK    1  A    between atoms: C_1  and  C_17
REMARK    2  A    between atoms: C_1  and  O_19
REMARK    3  A    between atoms: C_3  and  N_21
REMARK    4  A    between atoms: C_4  and  C_5
REMARK    5  A    between atoms: C_6  and  N_16
REMARK    6  A    between atoms: C_7  and  N_16
REMARK    7  A    between atoms: C_9  and  O_15
REMARK    8  A    between atoms: C_10  and  O_15
REMARK                            x       y       z     vdW  Elec       q    Type
REMARK                         _______ _______ _______ _____ _____    ______ ____
ROOT
ATOM      6  C   UNL     1       6.319  58.451   0.266  0.00  0.00    +0.117 C 
ATOM      7  C   UNL     1       7.571  58.011  -0.289  0.00  0.00    +0.288 C 
ATOM      8  N   UNL     1       7.792  56.745  -0.045  0.00  0.00    -0.157 N 
ATOM      9  H   UNL     1       8.643  56.158  -0.322  0.00  0.00    +0.318 HD
ATOM     10  N   UNL     1       6.678  56.346   0.649  0.00  0.00    -0.145 NA
ATOM     30  C   UNL     1       5.794  57.334   0.855  0.00  0.00    +0.177 C 
ENDROOT
BRANCH  10  11
ATOM     11  C   UNL     1       6.564  54.923   1.031  0.00  0.00    +0.140 C 
ATOM     12  C   UNL     1       6.739  54.020  -0.194  0.00  0.00    +0.183 C 
ATOM     13  O   UNL     1       6.694  52.608   0.116  0.00  0.00    -0.378 OA
ATOM     14  C   UNL     1       7.692  52.255   1.081  0.00  0.00    +0.161 C 
ATOM     15  C   UNL     1       7.529  53.010   2.379  0.00  0.00    +0.048 C 
ATOM     16  C   UNL     1       7.613  54.524   2.122  0.00  0.00    +0.116 C 
BRANCH  16  17
ATOM     17  C   UNL     1       7.329  55.250   3.365  0.00  0.00    +0.068 C 
ATOM     18  N   UNL     1       7.136  55.788   4.347  0.00  0.00    -0.196 NA
ENDBRANCH  16  17
ENDBRANCH  10  11
BRANCH   6   1
ATOM      1  C   UNL     1       5.753  59.817   0.176  0.00  0.00    +0.217 C 
ATOM      4  N   UNL     1       4.641  60.055   0.854  0.00  0.00    -0.267 NA
ATOM      5  H   UNL     1       4.192  61.026   0.822  0.00  0.00    +0.190 HD
BRANCH   1   2
ATOM      2  O   UNL     1       6.327  60.675  -0.494  0.00  0.00    -0.492 OA
ATOM      3  H   UNL     1       7.295  60.825  -0.116  0.00  0.00    +0.294 HD
ENDBRANCH   1   2
ENDBRANCH   6   1
BRANCH   7  19
ATOM     19  N   UNL     1       8.371  58.858  -1.010  0.00  0.00    -0.204 N 
ATOM     20  H   UNL     1       8.015  59.864  -1.082  0.00  0.00    +0.298 HD
BRANCH  19  21
ATOM     21  C   UNL     1       9.594  58.608  -1.673  0.00  0.00    +0.122 A 
ATOM     22  C   UNL     1      10.196  59.607  -2.428  0.00  0.00    +0.050 A 
ATOM     23  C   UNL     1      11.373  59.345  -3.105  0.00  0.00    +0.028 A 
ATOM     24  C   UNL     1      11.946  58.087  -3.028  0.00  0.00    +0.083 A 
ATOM     25 CL   UNL     1      13.413  57.766  -3.888  0.00  0.00    -0.080 Cl
ATOM     26  C   UNL     1      11.370  57.083  -2.254  0.00  0.00    +0.142 A 
ATOM     29  C   UNL     1      10.174  57.345  -1.596  0.00  0.00    +0.096 A 
BRANCH  26  27
ATOM     27  O   UNL     1      12.073  55.913  -2.136  0.00  0.00    -0.493 OA
ATOM     28  C   UNL     1      11.492  54.842  -1.372  0.00  0.00    +0.277 C 
ENDBRANCH  26  27
ENDBRANCH  19  21
ENDBRANCH   7  19
TORSDOF 7
