REMARK  Name = 4P5Q
REMARK  9 active torsions:
REMARK  status: ('A' for Active; 'I' for Inactive)
REMARK    1  A    between atoms: C_7  and  N_8
REMARK    2  A    between atoms: C_9  and  N_10
REMARK    3  A    between atoms: C_21  and  C_22
REMARK    4  A    between atoms: N_24  and  C_25
REMARK    5  A    between atoms: C_25  and  C_26
REMARK    6  A    between atoms: C_26  and  C_27
REMARK    7  A    between atoms: C_27  and  O_28
REMARK    8  A    between atoms: O_28  and  C_29
REMARK    9  A    between atoms: C_29  and  C_30
REMARK                            x       y       z     vdW  Elec       q    Type
REMARK                         _______ _______ _______ _____ _____    ______ ____
ROOT
ATOM      4  N   UNL     1       1.755 -10.246 -13.923  0.00  0.00    -0.279 N 
ATOM      5  C   UNL     1       1.900 -11.102 -14.954  0.00  0.00    +0.167 A 
ATOM      6  N   UNL     1       2.193 -10.968 -16.270  0.00  0.00    -0.226 NA
ATOM      7  C   UNL     1       2.275 -12.081 -17.036  0.00  0.00    +0.092 A 
ATOM      8  C   UNL     1       2.569 -11.971 -18.390  0.00  0.00    +0.030 A 
ATOM      9  C   UNL     1       2.653 -13.116 -19.178  0.00  0.00    +0.002 A 
ATOM     10  C   UNL     1       2.449 -14.382 -18.635  0.00  0.00    +0.002 A 
ATOM     11  C   UNL     1       2.150 -14.549 -17.285  0.00  0.00    +0.030 A 
ATOM     12  C   UNL     1       2.055 -13.439 -16.454  0.00  0.00    +0.090 A 
ATOM     13  N   UNL     1       1.765 -13.593 -15.140  0.00  0.00    -0.241 NA
ATOM     14  C   UNL     1       1.686 -12.468 -14.394  0.00  0.00    +0.123 A 
ATOM     15  C   UNL     1       1.392 -12.285 -12.946  0.00  0.00    +0.104 A 
ATOM     26  C   UNL     1       1.451 -10.820 -12.751  0.00  0.00    +0.117 A 
ENDROOT
BRANCH   4   3
ATOM      1 CL   UNL     1       4.537  -9.109 -13.117  0.00  0.00    -0.081 Cl
ATOM      2  C   UNL     1       3.135  -8.200 -13.766  0.00  0.00    +0.065 A 
ATOM      3  C   UNL     1       1.881  -8.930 -14.099  0.00  0.00    +0.068 A 
ATOM     30  C   UNL     1       0.859  -8.132 -14.602  0.00  0.00    +0.028 A 
ATOM     31  C   UNL     1       0.997  -6.765 -14.783  0.00  0.00    +0.002 A 
ATOM     32  C   UNL     1       2.176  -6.113 -14.472  0.00  0.00    +0.002 A 
ATOM     33  C   UNL     1       3.244  -6.831 -13.969  0.00  0.00    +0.022 A 
ENDBRANCH   4   3
BRANCH  15  16
ATOM     16  C   UNL     1       1.115 -13.415 -12.008  0.00  0.00    +0.250 C 
ATOM     17  N   UNL     1       1.105 -14.652 -12.485  0.00  0.00    -0.311 N 
ATOM     18  H   UNL     1       0.830 -14.817 -13.506  0.00  0.00    +0.149 HD
ATOM     25  O   UNL     1       0.915 -13.199 -10.821  0.00  0.00    -0.270 OA
BRANCH  17  19
ATOM     19  C   UNL     1       1.459 -15.786 -11.654  0.00  0.00    +0.107 C 
BRANCH  19  20
ATOM     20  C   UNL     1       1.319 -17.112 -12.400  0.00  0.00    +0.047 C 
BRANCH  20  21
ATOM     21  C   UNL     1      -0.070 -17.717 -12.228  0.00  0.00    +0.161 C 
BRANCH  21  22
ATOM     22  O   UNL     1      -0.286 -18.723 -13.219  0.00  0.00    -0.380 OA
BRANCH  22  23
ATOM     23  C   UNL     1      -1.443 -19.510 -12.938  0.00  0.00    +0.156 C 
ATOM     24  C   UNL     1      -1.777 -20.394 -14.120  0.00  0.00    +0.034 C 
ENDBRANCH  22  23
ENDBRANCH  21  22
ENDBRANCH  20  21
ENDBRANCH  19  20
ENDBRANCH  17  19
ENDBRANCH  15  16
BRANCH  26  27
ATOM     27  N   UNL     1       1.252 -10.163 -11.576  0.00  0.00    -0.344 N 
ATOM     28  H   UNL     1       1.012 -10.713 -10.690  0.00  0.00    +0.144 HD
ATOM     29  H   UNL     1       1.335  -9.097 -11.538  0.00  0.00    +0.144 HD
ENDBRANCH  26  27
TORSDOF 8
