REMARK  Name = 3hvc_ligand
REMARK  2 active torsions:
REMARK  status: ('A' for Active; 'I' for Inactive)
REMARK    1  A    between atoms: C5_5  and  C7_7
REMARK    2  A    between atoms: C12_11  and  C13_12
REMARK                            x       y       z     vdW  Elec       q    Type
REMARK                         _______ _______ _______ _____ _____    ______ ____
ROOT
ATOM      4  C   UNL     1      -2.727  36.821  17.766  0.00  0.00    +0.018 A 
ATOM      5  C   UNL     1      -3.226  36.075  18.890  0.00  0.00    +0.103 A 
ATOM     13  N   UNL     1      -2.827  34.818  18.780  0.00  0.00    -0.210 N 
ATOM     14  H   UNL     1      -3.034  34.054  19.439  0.00  0.00    +0.257 HD
ATOM     15  N   UNL     1      -2.105  34.718  17.656  0.00  0.00    -0.213 NA
ATOM     16  C   UNL     1      -2.011  35.886  17.007  0.00  0.00    +0.081 A 
ENDROOT
BRANCH   5   6
ATOM      6  C   UNL     1      -4.078  36.530  20.086  0.00  0.00    +0.012 A 
ATOM      7  C   UNL     1      -5.342  37.235  19.941  0.00  0.00    +0.012 A 
ATOM      8  C   UNL     1      -6.085  37.645  21.091  0.00  0.00    +0.035 A 
ATOM      9  C   UNL     1      -5.583  37.362  22.394  0.00  0.00    +0.135 A 
ATOM     10  F   UNL     1      -6.257  37.745  23.460  0.00  0.00    -0.182 F 
ATOM     11  C   UNL     1      -4.337  36.662  22.563  0.00  0.00    +0.035 A 
ATOM     12  C   UNL     1      -3.597  36.253  21.413  0.00  0.00    +0.012 A 
ENDBRANCH   5   6
BRANCH   4   3
ATOM      1  C   UNL     1      -3.302  40.052  15.662  0.00  0.00    +0.083 A 
ATOM      2  C   UNL     1      -3.175  38.666  16.001  0.00  0.00    +0.030 A 
ATOM      3  C   UNL     1      -2.868  38.275  17.373  0.00  0.00    -0.015 A 
ATOM     17  C   UNL     1      -2.700  39.337  18.360  0.00  0.00    +0.030 A 
ATOM     18  C   UNL     1      -2.858  40.775  17.892  0.00  0.00    +0.083 A 
ATOM     19  N   UNL     1      -3.150  41.085  16.571  0.00  0.00    -0.307 NA
ENDBRANCH   4   3
TORSDOF 2
