REMARK  Name = 2WO6
REMARK  7 active torsions:
REMARK  status: ('A' for Active; 'I' for Inactive)
REMARK    1  A    between atoms: C_7  and  C_8
REMARK    2  A    between atoms: C_8  and  C_9
REMARK    3  A    between atoms: C_8  and  C_12
REMARK    4  A    between atoms: C_9  and  C_10
REMARK    5  A    between atoms: C_10  and  N_11
REMARK    6  A    between atoms: N_14  and  C_15
REMARK    7  A    between atoms: C_25  and  C_27
REMARK                            x       y       z     vdW  Elec       q    Type
REMARK                         _______ _______ _______ _____ _____    ______ ____
ROOT
ATOM      7  C   UNL     1    -115.805  25.493 -30.612  0.00  0.00    +0.034 A 
ATOM      8  C   UNL     1    -114.505  25.623 -30.115  0.00  0.00    +0.025 A 
ATOM      9  C   UNL     1    -113.639  26.629 -30.539  0.00  0.00    +0.029 A 
ATOM     10  C   UNL     1    -114.040  27.572 -31.469  0.00  0.00    +0.068 A 
ATOM     11  N   UNL     1    -113.392  28.636 -32.030  0.00  0.00    -0.275 N 
ATOM     12  H   UNL     1    -112.380  28.919 -31.826  0.00  0.00    +0.189 HD
ATOM     13  N   UNL     1    -114.248  29.298 -32.909  0.00  0.00    -0.157 NA
ATOM     14  C   UNL     1    -115.393  28.615 -32.834  0.00  0.00    +0.155 A 
ATOM     15  N   UNL     1    -116.411  29.002 -33.673  0.00  0.00    -0.265 N 
ATOM     16  H   UNL     1    -116.136  29.400 -34.627  0.00  0.00    +0.157 HD
ATOM     17  C   UNL     1    -117.712  28.922 -33.396  0.00  0.00    +0.249 C 
ATOM     24  O   UNL     1    -118.130  28.505 -32.330  0.00  0.00    -0.270 OA
ATOM     25  C   UNL     1    -115.331  27.507 -31.955  0.00  0.00    +0.043 A 
ATOM     26  C   UNL     1    -116.210  26.472 -31.546  0.00  0.00    +0.036 A 
ENDROOT
BRANCH  17  18
ATOM     18  C   UNL     1    -118.702  29.366 -34.432  0.00  0.00    +0.037 A 
ATOM     19  C   UNL     1    -120.068  29.450 -34.115  0.00  0.00    +0.013 A 
ATOM     20  C   UNL     1    -120.989  29.870 -35.080  0.00  0.00    +0.001 A 
ATOM     21  C   UNL     1    -120.553  30.178 -36.372  0.00  0.00    +0.000 A 
ATOM     22  C   UNL     1    -119.204  30.075 -36.698  0.00  0.00    +0.001 A 
ATOM     23  C   UNL     1    -118.275  29.673 -35.723  0.00  0.00    +0.013 A 
ENDBRANCH  17  18
BRANCH   7   5
ATOM      4  C   UNL     1    -117.661  23.875 -30.775  0.00  0.00    +0.225 C 
ATOM      5  N   UNL     1    -116.635  24.433 -30.095  0.00  0.00    -0.285 N 
ATOM      6  H   UNL     1    -116.426  24.066 -29.112  0.00  0.00    +0.155 HD
ATOM     27  O   UNL     1    -117.955  24.236 -31.923  0.00  0.00    -0.275 OA
BRANCH   4   3
ATOM      3  C   UNL     1    -118.581  22.807 -30.210  0.00  0.00    +0.106 C 
BRANCH   3   2
ATOM      1  C   UNL     1    -118.825  22.860 -27.611  0.00  0.00    +0.024 A 
ATOM      2  C   UNL     1    -119.293  23.102 -28.915  0.00  0.00    -0.034 A 
ATOM     33  C   UNL     1    -120.588  23.589 -29.073  0.00  0.00    +0.004 A 
ATOM     34  C   UNL     1    -121.385  23.878 -27.970  0.00  0.00    +0.002 A 
ATOM     35  C   UNL     1    -120.908  23.694 -26.688  0.00  0.00    +0.020 A 
ATOM     36  C   UNL     1    -119.639  23.183 -26.506  0.00  0.00    +0.041 A 
ATOM     37 CL   UNL     1    -119.151  22.967 -24.791  0.00  0.00    -0.084 Cl
ENDBRANCH   3   2
BRANCH   3  28
ATOM     28  C   UNL     1    -118.000  21.403 -30.175  0.00  0.00    +0.032 C 
BRANCH  28  29
ATOM     29  C   UNL     1    -119.104  20.373 -30.454  0.00  0.00    +0.079 C 
BRANCH  29  30
ATOM     30  N   UNL     1    -118.814  19.135 -29.756  0.00  0.00    -0.330 NA
ATOM     31  H   UNL     1    -117.876  18.746 -30.093  0.00  0.00    +0.118 HD
ATOM     32  H   UNL     1    -118.764  19.322 -28.703  0.00  0.00    +0.118 HD
ENDBRANCH  29  30
ENDBRANCH  28  29
ENDBRANCH   3  28
ENDBRANCH   4   3
ENDBRANCH   7   5
TORSDOF 7
