REMARK  Name = 4kb8_ligand
REMARK  6 active torsions:
REMARK  status: ('A' for Active; 'I' for Inactive)
REMARK    1  A    between atoms: N2_3  and  C16_9
REMARK    2  A    between atoms: C7_4  and  C13_7
REMARK    3  A    between atoms: C5_13  and  C12_18
REMARK    4  A    between atoms: C10_16  and  C15_20
REMARK    5  A    between atoms: C15_20  and  N4_21
REMARK    6  A    between atoms: N4_21  and  C17_22
REMARK                            x       y       z     vdW  Elec       q    Type
REMARK                         _______ _______ _______ _____ _____    ______ ____
ROOT
ATOM      1  N   UNL     1      -7.621  -0.252   9.016  0.00  0.00    -0.205 NA
ATOM      2  C   UNL     1      -7.496  -1.371   9.797  0.00  0.00    +0.050 A 
ATOM     10  C   UNL     1      -6.317  -1.280  10.601  0.00  0.00    +0.017 A 
ATOM     11  C   UNL     1      -5.737  -0.046  10.294  0.00  0.00    +0.178 A 
ATOM     23  N   UNL     1      -6.557   0.535   9.334  0.00  0.00    -0.203 N 
ATOM     24  C   UNL     1      -6.376   1.847   8.702  0.00  0.00    +0.246 C 
ENDROOT
BRANCH   2   3
ATOM      3  C   UNL     1      -8.546  -2.375   9.784  0.00  0.00    -0.015 A 
ATOM      4  C   UNL     1      -9.246  -2.633   8.606  0.00  0.00    +0.005 A 
ATOM      5  C   UNL     1     -10.322  -3.511   8.607  0.00  0.00    +0.033 A 
ATOM      6  C   UNL     1     -10.672  -4.142   9.804  0.00  0.00    +0.133 A 
ATOM      7  F   UNL     1     -11.705  -4.974   9.826  0.00  0.00    -0.183 F 
ATOM      8  C   UNL     1      -9.959  -3.915  10.987  0.00  0.00    +0.033 A 
ATOM      9  C   UNL     1      -8.900  -3.021  10.968  0.00  0.00    +0.005 A 
ENDBRANCH   2   3
BRANCH  10  12
ATOM     12  C   UNL     1      -5.754  -2.241  11.513  0.00  0.00    -0.023 A 
ATOM     13  C   UNL     1      -5.093  -1.811  12.664  0.00  0.00    +0.029 A 
ATOM     14  C   UNL     1      -4.489  -2.771  13.483  0.00  0.00    +0.064 A 
ATOM     20  N   UNL     1      -4.564  -4.105  13.248  0.00  0.00    -0.302 NA
ATOM     21  C   UNL     1      -5.229  -4.490  12.135  0.00  0.00    +0.073 A 
ATOM     22  C   UNL     1      -5.824  -3.604  11.236  0.00  0.00    +0.017 A 
BRANCH  14  15
ATOM     15  C   UNL     1      -3.713  -2.353  14.713  0.00  0.00    +0.215 C 
BRANCH  15  16
ATOM     16  N   UNL     1      -2.311  -2.098  14.327  0.00  0.00    +0.239 N 
ATOM     17  H   UNL     1      -1.748  -2.097  15.163  0.00  0.00    +0.203 HD
ATOM     18  H   UNL     1      -2.009  -2.843  13.719  0.00  0.00    +0.203 HD
ATOM     19  C   UNL     1      -2.104  -0.822  13.630  0.00  0.00    +0.190 C 
ENDBRANCH  15  16
ENDBRANCH  14  15
ENDBRANCH  10  12
TORSDOF 4
