REMARK  Name = 5JRQ
REMARK  10 active torsions:
REMARK  status: ('A' for Active; 'I' for Inactive)
REMARK    1  A    between atoms: C_3  and  C_21
REMARK    2  A    between atoms: C_6  and  C_28
REMARK    3  A    between atoms: C_8  and  C_9
REMARK    4  A    between atoms: C_9  and  C_10
REMARK    5  A    between atoms: C_10  and  S_11
REMARK    6  A    between atoms: S_11  and  N_12
REMARK    7  A    between atoms: N_12  and  C_15
REMARK    8  A    between atoms: C_18  and  C_21
REMARK    9  A    between atoms: C_30  and  O_33
REMARK   10  A    between atoms: O_33  and  C_34
REMARK                            x       y       z     vdW  Elec       q    Type
REMARK                         _______ _______ _______ _____ _____    ______ ____
ROOT
ATOM      5  C   UNL     1     -11.908  -4.817 -29.662  0.00  0.00    +0.201 C 
ATOM      6  O   UNL     1     -13.087  -4.755 -29.327  0.00  0.00    -0.286 OA
ENDROOT
BRANCH   5   7
ATOM      7  C   UNL     1     -10.751  -4.520 -28.682  0.00  0.00    +0.051 A 
ATOM      8  C   UNL     1     -10.822  -4.307 -27.268  0.00  0.00    +0.032 A 
ATOM      9  C   UNL     1     -11.775  -4.261 -26.290  0.00  0.00    +0.022 A 
ATOM     10  C   UNL     1     -11.520  -4.023 -24.939  0.00  0.00    +0.001 A 
ATOM     19  C   UNL     1     -10.186  -3.801 -24.601  0.00  0.00    +0.121 A 
ATOM     20  N   UNL     1      -9.233  -3.834 -25.557  0.00  0.00    -0.235 NA
ATOM     21  C   UNL     1      -9.493  -4.068 -26.873  0.00  0.00    +0.161 A 
ATOM     22  N   UNL     1      -8.698  -4.138 -27.941  0.00  0.00    -0.235 NA
ATOM     23  C   UNL     1      -9.401  -4.406 -29.045  0.00  0.00    +0.125 A 
BRANCH  10  11
ATOM     11  C   UNL     1     -12.570  -3.979 -23.871  0.00  0.00    -0.016 A 
ATOM     12  C   UNL     1     -13.935  -3.455 -23.984  0.00  0.00    +0.012 A 
ATOM     13  C   UNL     1     -14.810  -3.451 -22.905  0.00  0.00    +0.046 A 
ATOM     14  C   UNL     1     -14.462  -3.906 -21.734  0.00  0.00    +0.121 A 
ATOM     17  C   UNL     1     -13.294  -4.379 -21.516  0.00  0.00    +0.046 A 
ATOM     18  C   UNL     1     -12.334  -4.438 -22.493  0.00  0.00    +0.012 A 
BRANCH  14  15
ATOM     15  O   UNL     1     -15.361  -3.881 -20.646  0.00  0.00    -0.489 OA
ATOM     16  C   UNL     1     -16.708  -4.248 -20.940  0.00  0.00    +0.270 C 
ENDBRANCH  14  15
ENDBRANCH  10  11
ENDBRANCH   5   7
BRANCH   5   4
ATOM      1  C   UNL     1     -10.445  -6.812 -32.560  0.00  0.00    +0.041 A 
ATOM      2  C   UNL     1     -10.885  -6.437 -31.272  0.00  0.00    +0.137 A 
ATOM      3  F   UNL     1     -10.764  -7.257 -30.219  0.00  0.00    -0.205 F 
ATOM      4  C   UNL     1     -11.470  -5.202 -31.072  0.00  0.00    +0.094 A 
ATOM     24  C   UNL     1     -11.602  -4.318 -32.130  0.00  0.00    +0.159 A 
ATOM     25  F   UNL     1     -12.152  -3.106 -31.998  0.00  0.00    -0.203 F 
ATOM     26  C   UNL     1     -11.182  -4.679 -33.400  0.00  0.00    +0.084 A 
ATOM     35  C   UNL     1     -10.602  -5.913 -33.632  0.00  0.00    +0.030 A 
BRANCH  26  27
ATOM     27  N   UNL     1     -11.392  -3.689 -34.376  0.00  0.00    -0.218 N 
ATOM     28  H   UNL     1     -11.742  -2.890 -34.128  0.00  0.00    +0.173 HD
BRANCH  27  29
ATOM     29  S   UNL     1     -11.033  -3.955 -35.964  0.00  0.00    +0.043 S 
ATOM     30  O   UNL     1     -11.548  -5.234 -36.394  0.00  0.00    -0.155 OA
ATOM     31  O   UNL     1     -11.750  -3.043 -36.805  0.00  0.00    -0.155 OA
BRANCH  29  32
ATOM     32  C   UNL     1      -9.302  -3.963 -36.347  0.00  0.00    +0.188 C 
BRANCH  32  33
ATOM     33  C   UNL     1      -8.534  -2.841 -35.677  0.00  0.00    +0.021 C 
ATOM     34  C   UNL     1      -7.083  -2.959 -36.146  0.00  0.00    +0.005 C 
ENDBRANCH  32  33
ENDBRANCH  29  32
ENDBRANCH  27  29
ENDBRANCH  26  27
ENDBRANCH   5   4
TORSDOF 8
