REMARK  Name = 3h0z_ligand
REMARK  7 active torsions:
REMARK  status: ('A' for Active; 'I' for Inactive)
REMARK    1  A    between atoms: C8_7  and  N1_8
REMARK    2  A    between atoms: C7_9  and  C6_11
REMARK    3  A    between atoms: C2_16  and  N5_17
REMARK    4  A    between atoms: N8_25  and  C_26
REMARK    5  A    between atoms: C20_29  and  C21_32
REMARK    6  A    between atoms: C21_32  and  C22_33
REMARK    7  A    between atoms: C25_41  and  C26_43
REMARK                            x       y       z     vdW  Elec       q    Type
REMARK                         _______ _______ _______ _____ _____    ______ ____
ROOT
ATOM     11  N   UNL     1      34.680  31.211  59.356  0.00  0.00    -0.253 N 
ATOM     12  H   UNL     1      34.224  32.097  59.095  0.00  0.00    +0.217 HD
ATOM     13  C   UNL     1      35.616  31.229  60.319  0.00  0.00    +0.171 A 
ATOM     14  C   UNL     1      36.024  32.430  60.729  0.00  0.00    +0.191 A 
ATOM     15  C   UNL     1      36.953  32.566  61.683  0.00  0.00    +0.118 A 
ATOM     16  N   UNL     1      37.546  31.510  62.232  0.00  0.00    -0.272 NA
ATOM     17  C   UNL     1      37.031  30.190  61.977  0.00  0.00    +0.190 A 
ATOM     18  N   UNL     1      37.819  29.082  62.512  0.00  0.00    -0.250 N 
ATOM     19  H   UNL     1      38.374  29.298  63.352  0.00  0.00    +0.215 HD
ATOM     38  F   UNL     1      35.510  33.519  60.198  0.00  0.00    -0.186 F 
ATOM     39  N   UNL     1      36.168  30.120  60.818  0.00  0.00    -0.236 NA
ENDROOT
BRANCH  11  10
ATOM      7  C   UNL     1      33.484  27.691  57.384  0.00  0.00    +0.044 A 
ATOM      8  C   UNL     1      32.546  28.584  57.899  0.00  0.00    +0.013 A 
ATOM      9  C   UNL     1      32.948  29.748  58.545  0.00  0.00    +0.023 A 
ATOM     10  C   UNL     1      34.296  30.034  58.688  0.00  0.00    +0.069 A 
ATOM     40  C   UNL     1      35.234  29.140  58.181  0.00  0.00    +0.023 A 
ATOM     41  C   UNL     1      34.832  27.977  57.534  0.00  0.00    +0.013 A 
BRANCH   7   6
ATOM      4  N   UNL     1      31.728  26.166  56.657  0.00  0.00    -0.234 N 
ATOM      5  H   UNL     1      31.118  26.705  57.238  0.00  0.00    +0.225 HD
ATOM      6  C   UNL     1      33.038  26.439  56.679  0.00  0.00    +0.224 C 
ATOM     42  O   UNL     1      33.879  25.719  56.159  0.00  0.00    -0.378 OA
BRANCH   4   3
ATOM      1 CL   UNL     1      31.879  23.476  57.889  0.00  0.00    -0.083 Cl
ATOM      2  C   UNL     1      31.168  23.849  56.294  0.00  0.00    +0.059 A 
ATOM      3  C   UNL     1      31.173  25.157  55.855  0.00  0.00    +0.080 A 
ATOM     43  C   UNL     1      30.615  25.463  54.621  0.00  0.00    +0.010 A 
ATOM     44  C   UNL     1      30.065  24.449  53.839  0.00  0.00    -0.017 A 
ATOM     45  C   UNL     1      30.068  23.132  54.288  0.00  0.00    -0.028 A 
ATOM     46  C   UNL     1      30.625  22.831  55.520  0.00  0.00    -0.003 A 
ENDBRANCH   4   3
ENDBRANCH   7   6
ENDBRANCH  11  10
BRANCH  18  20
ATOM     20  C   UNL     1      37.922  27.798  62.052  0.00  0.00    +0.058 A 
ATOM     21  C   UNL     1      37.110  27.197  61.084  0.00  0.00    +0.008 A 
ATOM     22  C   UNL     1      37.311  25.875  60.688  0.00  0.00    -0.014 A 
ATOM     23  C   UNL     1      38.326  25.111  61.250  0.00  0.00    -0.035 A 
ATOM     36  C   UNL     1      39.134  25.695  62.217  0.00  0.00    -0.014 A 
ATOM     37  C   UNL     1      38.932  27.018  62.611  0.00  0.00    +0.008 A 
BRANCH  23  24
ATOM     24  C   UNL     1      38.545  23.664  60.839  0.00  0.00    +0.193 C 
BRANCH  24  25
ATOM     25  C   UNL     1      37.816  22.737  61.822  0.00  0.00    +0.188 C 
ATOM     26  N   UNL     1      38.446  21.719  62.464  0.00  0.00    -0.268 N 
ATOM     27  C   UNL     1      39.855  21.317  62.343  0.00  0.00    +0.163 C 
ATOM     28  C   UNL     1      40.525  21.448  63.711  0.00  0.00    +0.163 C 
ATOM     29  N   UNL     1      39.732  20.686  64.676  0.00  0.00    -0.270 N 
ATOM     30  C   UNL     1      40.223  19.659  65.403  0.00  0.00    +0.175 C 
ATOM     31  C   UNL     1      39.296  18.970  66.366  0.00  0.00    +0.166 C 
ATOM     32  O   UNL     1      41.380  19.272  65.307  0.00  0.00    -0.397 OA
ATOM     33  C   UNL     1      38.359  21.174  64.758  0.00  0.00    +0.163 C 
ATOM     34  C   UNL     1      37.738  20.856  63.401  0.00  0.00    +0.163 C 
ATOM     35  O   UNL     1      36.619  22.947  62.012  0.00  0.00    -0.394 OA
ENDBRANCH  24  25
ENDBRANCH  23  24
ENDBRANCH  18  20
TORSDOF 6
