REMARK  Name = 6GU6
REMARK  7 active torsions:
REMARK  status: ('A' for Active; 'I' for Inactive)
REMARK    1  A    between atoms: N12_2  and  C13_3
REMARK    2  A    between atoms: N12_2  and  C11_19
REMARK    3  A    between atoms: C13_3  and  C14_20
REMARK    4  A    between atoms: C26_8  and  C27_28
REMARK    5  A    between atoms: C28_9  and  C27_28
REMARK    6  A    between atoms: C02_11  and  C03_12
REMARK    7  A    between atoms: C09_18  and  N21_25
REMARK                            x       y       z     vdW  Elec       q    Type
REMARK                         _______ _______ _______ _____ _____    ______ ____
ROOT
ATOM      1  C   UNL     1      23.804  22.123  -1.332  0.00  0.00    -0.100 C 
ATOM      2  C   UNL     1      23.132  23.258  -1.767  0.00  0.00    +0.200 C 
ATOM      3  N   UNL     1      21.868  23.067  -2.226  0.00  0.00    -0.150 N 
ATOM      4  C   UNL     1      21.282  21.809  -2.272  0.00  0.00    +0.100 A 
ATOM      5  N   UNL     1      21.933  20.700  -1.849  0.00  0.00    -0.150 NA
ATOM      6  C   UNL     1      20.004  22.025  -2.767  0.00  0.00    +0.000 A 
ATOM      7  C   UNL     1      19.899  23.383  -2.981  0.00  0.00    +0.000 A 
ATOM     10  N   UNL     1      21.020  24.040  -2.685  0.00  0.00    -0.350 NA
ATOM     20  C   UNL     1      23.197  20.858  -1.383  0.00  0.00    +0.150 C 
ENDROOT
BRANCH  20  21
ATOM     21  N   UNL     1      23.876  19.739  -0.946  0.00  0.00    -0.250 NA
ATOM     22  C   UNL     1      23.255  18.394  -1.024  0.00  0.00    +0.050 C 
ATOM     26  C   UNL     1      24.214  17.340  -1.571  0.00  0.00    -0.100 C 
ATOM     27  C   UNL     1      25.664  17.786  -1.525  0.00  0.00    -0.100 C 
ATOM     28  C   UNL     1      25.901  18.523  -0.251  0.00  0.00    -0.100 C 
ATOM     29  C   UNL     1      25.192  19.847  -0.295  0.00  0.00    +0.000 C 
BRANCH  22  23
ATOM     23  C   UNL     1      22.637  18.012   0.324  0.00  0.00    -0.100 C 
BRANCH  23  24
ATOM     24  C   UNL     1      21.133  17.901   0.260  0.00  0.00    +0.150 C 
ATOM     25  O   UNL     1      20.509  19.093  -0.203  0.00  0.00    -0.650 OA
ENDBRANCH  23  24
ENDBRANCH  22  23
ENDBRANCH  20  21
BRANCH   6   8
ATOM      8  C   UNL     1      19.004  20.942  -3.048  0.00  0.00    -0.100 C 
ATOM      9  C   UNL     1      17.877  20.808  -2.038  0.00  0.00    -0.150 C 
ENDBRANCH   6   8
BRANCH   2  11
ATOM     11  N   UNL     1      23.683  24.523  -1.784  0.00  0.00    -0.450 NA
BRANCH  11  12
ATOM     12  C   UNL     1      24.984  24.850  -1.239  0.00  0.00    +0.000 C 
BRANCH  12  13
ATOM     13  C   UNL     1      26.156  24.651  -2.171  0.00  0.00    +0.000 C 
ATOM     14  C   UNL     1      26.387  25.510  -3.228  0.00  0.00    +0.000 C 
ATOM     15  N   UNL     1      27.541  25.452  -3.935  0.00  0.00    -0.150 N 
ATOM     16  O   UNL     1      27.792  26.356  -4.859  0.00  0.00    -0.450 OA
ATOM     17  C   UNL     1      28.441  24.475  -3.708  0.00  0.00    +0.000 C 
ATOM     18  C   UNL     1      28.214  23.547  -2.723  0.00  0.00    -0.100 C 
ATOM     19  C   UNL     1      27.066  23.629  -1.947  0.00  0.00    -0.100 C 
ENDBRANCH  12  13
ENDBRANCH  11  12
ENDBRANCH   2  11
TORSDOF 7
