REMARK  Name = 4CV9
REMARK  5 active torsions:
REMARK  status: ('A' for Active; 'I' for Inactive)
REMARK    1  A    between atoms: C_2  and  C_3
REMARK    2  A    between atoms: C_8  and  N_9
REMARK    3  A    between atoms: N_12  and  C_13
REMARK    4  A    between atoms: N_16  and  C_17
REMARK    5  A    between atoms: C_22  and  C_24
REMARK                            x       y       z     vdW  Elec       q    Type
REMARK                         _______ _______ _______ _____ _____    ______ ____
ROOT
ATOM      1  O   UNL     1       0.050 -17.852 -45.847  0.00  0.00    -0.270 OA
ATOM      2  C   UNL     1      -0.441 -18.458 -46.847  0.00  0.00    +0.248 C 
ATOM      3  N   UNL     1      -0.303 -19.871 -47.071  0.00  0.00    -0.277 N 
ATOM      4  H   UNL     1      -0.734 -20.273 -47.964  0.00  0.00    +0.155 HD
ENDROOT
BRANCH   3   5
ATOM      5  C   UNL     1       0.358 -20.773 -46.204  0.00  0.00    +0.099 C 
ATOM      6  C   UNL     1       1.033 -20.467 -45.052  0.00  0.00    +0.038 C 
ATOM      7  C   UNL     1       1.521 -21.522 -44.174  0.00  0.00    +0.000 C 
ATOM     14  C   UNL     1       1.315 -22.865 -44.502  0.00  0.00    +0.094 C 
ATOM     15  N   UNL     1       0.657 -23.195 -45.689  0.00  0.00    -0.327 N 
ATOM     16  H   UNL     1       0.534 -24.227 -45.943  0.00  0.00    +0.168 HD
ATOM     17  C   UNL     1       0.144 -22.202 -46.574  0.00  0.00    +0.270 C 
ATOM     18  O   UNL     1      -0.520 -22.576 -47.566  0.00  0.00    -0.266 OA
BRANCH   7   8
ATOM      8  C   UNL     1       2.272 -21.153 -42.955  0.00  0.00    -0.014 A 
ATOM      9  C   UNL     1       2.448 -22.094 -41.908  0.00  0.00    +0.028 A 
ATOM     10  C   UNL     1       3.144 -21.705 -40.753  0.00  0.00    +0.111 A 
ATOM     11  N   UNL     1       3.660 -20.434 -40.595  0.00  0.00    -0.263 NA
ATOM     12  C   UNL     1       3.491 -19.521 -41.619  0.00  0.00    +0.111 A 
ATOM     13  C   UNL     1       2.807 -19.836 -42.814  0.00  0.00    +0.028 A 
ENDBRANCH   7   8
ENDBRANCH   3   5
BRANCH   2  19
ATOM     19  C   UNL     1      -1.187 -17.686 -47.886  0.00  0.00    +0.037 A 
ATOM     20  C   UNL     1      -1.629 -18.329 -49.060  0.00  0.00    +0.015 A 
ATOM     21  C   UNL     1      -2.252 -17.559 -50.079  0.00  0.00    +0.024 A 
ATOM     22  C   UNL     1      -2.437 -16.123 -49.902  0.00  0.00    +0.030 A 
ATOM     30  C   UNL     1      -1.982 -15.535 -48.684  0.00  0.00    +0.024 A 
ATOM     31  C   UNL     1      -1.371 -16.302 -47.704  0.00  0.00    +0.015 A 
BRANCH  22  23
ATOM     23  N   UNL     1      -3.016 -15.204 -50.873  0.00  0.00    -0.328 N 
ATOM     24  C   UNL     1      -3.144 -13.797 -50.438  0.00  0.00    +0.120 C 
ATOM     25  C   UNL     1      -3.478 -12.893 -51.611  0.00  0.00    +0.103 C 
ATOM     26  N   UNL     1      -4.622 -13.411 -52.356  0.00  0.00    -0.302 NA
ATOM     27  C   UNL     1      -5.025 -12.478 -53.399  0.00  0.00    +0.105 C 
ATOM     28  C   UNL     1      -4.283 -14.712 -52.932  0.00  0.00    +0.103 C 
ATOM     29  C   UNL     1      -4.001 -15.727 -51.839  0.00  0.00    +0.120 C 
ENDBRANCH  22  23
ENDBRANCH   2  19
TORSDOF 4
