REMARK  Name = BGE
REMARK  3 active torsions:
REMARK  status: ('A' for Active; 'I' for Inactive)
REMARK    1  A    between atoms: C17_2  and  N20_23
REMARK    2  A    between atoms: C06_11  and  C07_12
REMARK    3  A    between atoms: N13_18  and  C14_19
REMARK                            x       y       z     vdW  Elec       q    Type
REMARK                         _______ _______ _______ _____ _____    ______ ____
ROOT
ATOM      3  N   UNL     1       6.500   3.530 -13.647  0.00  0.00    -0.194 NA
ATOM      4  C   UNL     1       5.860   4.695 -14.191  0.00  0.00    +0.152 A 
ATOM      5  N   UNL     1       5.283   5.472 -13.288  0.00  0.00    -0.227 NA
ATOM      6  C   UNL     1       4.657   6.579 -13.618  0.00  0.00    +0.100 A 
ATOM      7  C   UNL     1       4.580   6.997 -14.926  0.00  0.00    +0.022 A 
ATOM      8  C   UNL     1       5.189   6.255 -15.931  0.00  0.00    +0.023 A 
ATOM     15  C   UNL     1       5.829   5.067 -15.549  0.00  0.00    +0.038 A 
ENDROOT
BRANCH   3   2
ATOM      1  C   UNL     1       6.574   1.988 -15.605  0.00  0.00    +0.018 A 
ATOM      2  C   UNL     1       7.108   2.474 -14.420  0.00  0.00    +0.072 A 
ATOM     16  C   UNL     1       8.297   1.960 -13.928  0.00  0.00    +0.018 A 
ATOM     17  C   UNL     1       8.941   0.949 -14.618  0.00  0.00    +0.016 A 
ATOM     18  C   UNL     1       8.411   0.446 -15.797  0.00  0.00    +0.048 A 
ATOM     25  C   UNL     1       7.227   0.981 -16.299  0.00  0.00    +0.016 A 
BRANCH  18  19
ATOM     19  N   UNL     1       9.109  -0.605 -16.525  0.00  0.00    -0.303 N 
ATOM     20  C   UNL     1       9.680  -1.810 -15.876  0.00  0.00    +0.123 C 
ATOM     21  C   UNL     1      10.862  -2.475 -16.602  0.00  0.00    +0.164 C 
ATOM     22  O   UNL     1      11.213  -1.846 -17.791  0.00  0.00    -0.350 OA
ATOM     23  C   UNL     1      10.126  -1.627 -18.626  0.00  0.00    +0.164 C 
ATOM     24  C   UNL     1       9.141  -0.627 -18.000  0.00  0.00    +0.123 C 
ENDBRANCH  18  19
ENDBRANCH   3   2
BRANCH   8   9
ATOM      9  C   UNL     1       5.105   6.629 -17.293  0.00  0.00    +0.097 A 
ATOM     10  C   UNL     1       4.851   7.863 -17.906  0.00  0.00    +0.079 A 
ATOM     11  C   UNL     1       4.588   9.238 -17.311  0.00  0.00    +0.054 C 
ATOM     12  N   UNL     1       4.876   7.676 -19.210  0.00  0.00    -0.227 NA
ATOM     13  C   UNL     1       5.113   6.393 -19.444  0.00  0.00    +0.199 A 
ATOM     14  N   UNL     1       5.265   5.767 -18.302  0.00  0.00    -0.223 NA
ENDBRANCH   8   9
TORSDOF 3
