REMARK  Name = BQA
REMARK  9 active torsions:
REMARK  status: ('A' for Active; 'I' for Inactive)
REMARK    1  A    between atoms: N1_1  and  C16_19
REMARK    2  A    between atoms: C2_2  and  C1_31
REMARK    3  A    between atoms: C2_2  and  C3_34
REMARK    4  A    between atoms: C7_4  and  C8_24
REMARK    5  A    between atoms: C7_4  and  C_28
REMARK    6  A    between atoms: C6_5  and  C1_31
REMARK    7  A    between atoms: C23_10  and  C22_13
REMARK    8  A    between atoms: C17_18  and  C16_19
REMARK    9  A    between atoms: N_30  and  C1_31
REMARK                            x       y       z     vdW  Elec       q    Type
REMARK                         _______ _______ _______ _____ _____    ______ ____
ROOT
ATOM      1  N   UNL     1     -13.991   5.650   6.941  0.00  0.00    -0.269 NA
ATOM     13  C   UNL     1     -15.369   5.963   6.490  0.00  0.00    +0.073 C 
ATOM     14  C   UNL     1     -15.522   5.471   5.062  0.00  0.00    +0.030 C 
ATOM     15  C   UNL     1     -14.490   6.021   4.044  0.00  0.00    +0.092 C 
ATOM     16  C   UNL     1     -13.131   5.549   4.615  0.00  0.00    +0.030 C 
ATOM     35  C   UNL     1     -12.873   5.997   6.049  0.00  0.00    +0.073 C 
ENDROOT
BRANCH  15  28
ATOM     28  C   UNL     1     -14.712   5.312   2.736  0.00  0.00    -0.014 A 
ATOM     29  C   UNL     1     -15.794   4.397   2.392  0.00  0.00    -0.003 A 
ATOM     30  C   UNL     1     -15.968   3.819   1.143  0.00  0.00    +0.006 A 
ATOM     31  C   UNL     1     -14.992   4.136   0.233  0.00  0.00    +0.035 A 
ATOM     32  C   UNL     1     -13.970   4.989   0.535  0.00  0.00    +0.006 A 
ATOM     33 BR   UNL     1     -14.857   3.520  -1.514  0.00  0.00    -0.049 Br
ATOM     34  C   UNL     1     -13.830   5.587   1.688  0.00  0.00    -0.003 A 
ENDBRANCH  15  28
BRANCH  15  17
ATOM     17  C   UNL     1     -14.522   7.516   3.827  0.00  0.00    +0.245 C 
ATOM     18  N   UNL     1     -15.703   8.185   3.870  0.00  0.00    -0.195 NA
ATOM     27  O   UNL     1     -13.469   8.131   3.547  0.00  0.00    -0.273 OA
BRANCH  18  19
ATOM     19  CA  UNL     1     -15.832   9.532   3.410  0.00  0.00    +0.198 C 
BRANCH  19  20
ATOM     20  C   UNL     1     -16.381  10.430   4.430  0.00  0.00    +0.384 C 
ATOM     21  OXT UNL     1     -16.973   9.815   5.486  0.00  0.00    -0.244 OA
ATOM     22  O   UNL     1     -16.253  11.681   4.274  0.00  0.00    -0.244 OA
ENDBRANCH  19  20
BRANCH  19  23
ATOM     23  C   UNL     1     -16.793   9.670   2.268  0.00  0.00    +0.033 C 
BRANCH  23  24
ATOM     24  C   UNL     1     -16.433   8.826   1.023  0.00  0.00    +0.002 C 
ATOM     25  C   UNL     1     -16.957   7.425   1.019  0.00  0.00    +0.000 C 
ATOM     26  C   UNL     1     -17.644   8.498   0.217  0.00  0.00    +0.000 C 
ENDBRANCH  23  24
ENDBRANCH  19  23
ENDBRANCH  18  19
ENDBRANCH  15  17
BRANCH   1   2
ATOM      2  C   UNL     1     -13.680   5.574   8.385  0.00  0.00    +0.099 C 
BRANCH   2   3
ATOM      3  C   UNL     1     -14.730   4.914   9.279  0.00  0.00    -0.002 A 
ATOM      4  C   UNL     1     -15.634   5.663  10.254  0.00  0.00    +0.069 A 
ATOM      5  C   UNL     1     -16.398   4.916  11.146  0.00  0.00    +0.004 A 
ATOM      6  C   UNL     1     -16.214   3.552  11.247  0.00  0.00    -0.000 A 
ATOM      7  C   UNL     1     -15.243   2.900  10.514  0.00  0.00    -0.000 A 
ATOM     12  C   UNL     1     -14.435   3.593   9.623  0.00  0.00    -0.003 A 
BRANCH   4   8
ATOM      8  C   UNL     1     -15.891   7.155  10.229  0.00  0.00    +0.418 C 
ATOM      9  F   UNL     1     -16.856   7.455  11.110  0.00  0.00    -0.166 F 
ATOM     10  F   UNL     1     -14.772   7.744  10.687  0.00  0.00    -0.166 F 
ATOM     11  F   UNL     1     -16.176   7.580   8.993  0.00  0.00    -0.166 F 
ENDBRANCH   4   8
ENDBRANCH   2   3
ENDBRANCH   1   2
TORSDOF 9
