REMARK  Name = 4UWB
REMARK  4 active torsions:
REMARK  status: ('A' for Active; 'I' for Inactive)
REMARK    1  A    between atoms: C_2  and  C_3
REMARK    2  A    between atoms: N_12  and  C_13
REMARK    3  A    between atoms: C_18  and  N_19
REMARK    4  A    between atoms: N_24  and  C_25
REMARK                            x       y       z     vdW  Elec       q    Type
REMARK                         _______ _______ _______ _____ _____    ______ ____
ROOT
ATOM      1  O   UNL     1      86.372   2.333   8.849  0.00  0.00    -0.268 OA
ATOM      2  C   UNL     1      86.629   1.129   8.794  0.00  0.00    +0.269 C 
ATOM      3  N   UNL     1      86.213   0.289   7.826  0.00  0.00    -0.280 N 
ATOM      4  H   UNL     1      86.619  -0.700   7.865  0.00  0.00    +0.155 HD
ENDROOT
BRANCH   2  18
ATOM     18  C   UNL     1      87.484   0.518   9.867  0.00  0.00    +0.155 A 
ATOM     19  C   UNL     1      87.747   1.065  11.148  0.00  0.00    +0.032 A 
ATOM     20  C   UNL     1      87.367   2.219  11.843  0.00  0.00    +0.012 A 
ATOM     21  C   UNL     1      87.833   2.430  13.133  0.00  0.00    +0.001 A 
ATOM     22  C   UNL     1      88.689   1.518  13.734  0.00  0.00    +0.002 A 
ATOM     23  C   UNL     1      89.080   0.361  13.065  0.00  0.00    +0.028 A 
ATOM     24  C   UNL     1      88.612   0.152  11.774  0.00  0.00    +0.067 A 
ATOM     25  N   UNL     1      88.805  -0.861  10.891  0.00  0.00    -0.276 N 
ATOM     26  H   UNL     1      89.413  -1.720  11.087  0.00  0.00    +0.189 HD
ATOM     27  N   UNL     1      88.131  -0.653   9.723  0.00  0.00    -0.168 NA
ENDBRANCH   2  18
BRANCH   3   5
ATOM      5  C   UNL     1      85.312   0.540   6.766  0.00  0.00    +0.034 A 
ATOM      6  C   UNL     1      84.432   1.622   6.791  0.00  0.00    +0.025 A 
ATOM      7  C   UNL     1      83.555   1.839   5.741  0.00  0.00    +0.025 A 
ATOM      8  C   UNL     1      83.530   0.972   4.648  0.00  0.00    +0.030 A 
ATOM     16  C   UNL     1      84.418  -0.115   4.630  0.00  0.00    +0.025 A 
ATOM     17  C   UNL     1      85.297  -0.326   5.677  0.00  0.00    +0.025 A 
BRANCH   8   9
ATOM      9  N   UNL     1      82.635   1.175   3.597  0.00  0.00    -0.328 N 
ATOM     10  C   UNL     1      82.147  -0.011   2.889  0.00  0.00    +0.120 C 
ATOM     11  C   UNL     1      81.606   0.377   1.528  0.00  0.00    +0.103 C 
ATOM     12  N   UNL     1      80.533   1.358   1.657  0.00  0.00    -0.302 NA
ATOM     13  C   UNL     1      79.974   1.704   0.328  0.00  0.00    +0.105 C 
ATOM     14  C   UNL     1      81.039   2.550   2.339  0.00  0.00    +0.103 C 
ATOM     15  C   UNL     1      81.592   2.197   3.714  0.00  0.00    +0.120 C 
ENDBRANCH   8   9
ENDBRANCH   3   5
TORSDOF 3
