REMARK  Name = 3WE8
REMARK  1 active torsions:
REMARK  status: ('A' for Active; 'I' for Inactive)
REMARK    1  A    between atoms: C_17  and  RU_18
REMARK                            x       y       z     vdW  Elec       q    Type
REMARK                         _______ _______ _______ _____ _____    ______ ____
ROOT
ATOM      1  O   UNL     1     -70.885 117.227  -3.004  0.00  0.00    +0.000 OA
ATOM      2  C   UNL     1     -70.939 117.693  -1.838  0.00  0.00    +0.000 C 
ATOM      3  C   UNL     1     -71.281 119.115  -1.624  0.00  0.00    +0.000 A 
ATOM      4  C   UNL     1     -71.561 120.001  -2.674  0.00  0.00    +0.000 A 
ATOM      5  C   UNL     1     -71.850 121.333  -2.347  0.00  0.00    +0.000 A 
ATOM      6  C   UNL     1     -71.884 121.757  -1.022  0.00  0.00    +0.000 A 
ATOM      7  C   UNL     1     -72.203 123.066  -0.657  0.00  0.00    +0.000 C 
ATOM      8  C   UNL     1     -72.217 123.410   0.704  0.00  0.00    +0.000 C 
ATOM      9  C   UNL     1     -71.927 122.445   1.680  0.00  0.00    +0.000 C 
ATOM     10  N   UNL     1     -71.600 121.208   1.274  0.00  0.00    +0.000 N 
ATOM     11 RU   UNL     1     -71.220 119.632   2.690  0.00  0.00    +0.000 Ru
ATOM     12  C   UNL     1     -73.043 119.683   3.904  0.00  0.00    +0.000 C 
ATOM     13  C   UNL     1     -73.014 118.503   3.249  0.00  0.00    +0.000 C 
ATOM     14  C   UNL     1     -71.942 117.822   3.693  0.00  0.00    +0.000 C 
ATOM     15  C   UNL     1     -71.313 118.563   4.620  0.00  0.00    +0.000 C 
ATOM     16  C   UNL     1     -71.992 119.719   4.758  0.00  0.00    +0.000 C 
ATOM     19  C   UNL     1     -71.058 118.626   0.805  0.00  0.00    +0.000 C 
ATOM     20  C   UNL     1     -70.727 117.315   0.539  0.00  0.00    +0.000 C 
ATOM     21  C   UNL     1     -71.621 120.847   0.000  0.00  0.00    +0.000 A 
ATOM     22  C   UNL     1     -71.320 119.542  -0.310  0.00  0.00    +0.000 A 
ATOM     23  N   UNL     1     -70.686 116.895  -0.756  0.00  0.00    +0.000 N 
ATOM     24  H   UNL     1     -70.439 115.870  -0.940  0.00  0.00    +0.000 HD
ENDROOT
BRANCH  11  17
ATOM     17  C   UNL     1     -69.937 119.818   2.820  0.00  0.00    +0.000 C 
ATOM     18  O   UNL     1     -68.670 120.005   2.957  0.00  0.00    +0.000 OA
ENDBRANCH  11  17
TORSDOF 1
