REMARK  Name = 3zrl_ligand
REMARK  1 active torsions:
REMARK  status: ('A' for Active; 'I' for Inactive)
REMARK    1  A    between atoms: C9_7  and  C12_8
REMARK                            x       y       z     vdW  Elec       q    Type
REMARK                         _______ _______ _______ _____ _____    ______ ____
ROOT
ATOM      1  C   UNL     1     106.244  21.315 -10.196  0.00  0.00    +0.201 A 
ATOM      2  N   UNL     1     105.047  21.210  -9.517  0.00  0.00    -0.218 N 
ATOM      3  H   UNL     1     104.923  20.414  -8.924  0.00  0.00    +0.258 HD
ATOM      4  C   UNL     1     104.003  22.120  -9.591  0.00  0.00    +0.214 A 
ATOM      5  O   UNL     1     102.937  22.037  -9.002  0.00  0.00    -0.406 OA
ATOM      6  C   UNL     1     104.278  23.215 -10.462  0.00  0.00    +0.042 A 
ATOM      7  C   UNL     1     103.445  24.319 -10.762  0.00  0.00    -0.006 A 
ATOM      8  C   UNL     1     104.021  25.211 -11.641  0.00  0.00    +0.034 A 
ATOM      9  S   UNL     1     105.587  24.672 -12.106  0.00  0.00    -0.039 S 
ATOM     16  C   UNL     1     105.483  23.277 -11.114  0.00  0.00    +0.040 A 
ATOM     17  C   UNL     1     106.504  22.339 -11.010  0.00  0.00    +0.049 A 
ATOM     18 BR   UNL     1     108.075  22.592 -11.987  0.00  0.00    -0.077 Br
ENDROOT
BRANCH   8  10
ATOM     10  C   UNL     1     103.489  26.453 -12.135  0.00  0.00    -0.004 A 
ATOM     11  C   UNL     1     104.263  27.318 -12.885  0.00  0.00    +0.030 A 
ATOM     12  C   UNL     1     103.693  28.497 -13.316  0.00  0.00    +0.081 A 
ATOM     13  N   UNL     1     102.433  28.876 -13.055  0.00  0.00    -0.309 NA
ATOM     14  C   UNL     1     101.716  28.017 -12.319  0.00  0.00    +0.081 A 
ATOM     15  C   UNL     1     102.189  26.811 -11.840  0.00  0.00    +0.030 A 
ENDBRANCH   8  10
TORSDOF 1
