REMARK  Name = 4jbo_ligand
REMARK  12 active torsions:
REMARK  status: ('A' for Active; 'I' for Inactive)
REMARK    1  A    between atoms: C35_1  and  N36_2
REMARK    2  A    between atoms: N36_2  and  C39_3
REMARK    3  A    between atoms: N36_2  and  C37_4
REMARK    4  A    between atoms: C37_4  and  C38_5
REMARK    5  A    between atoms: C38_5  and  O34_6
REMARK    6  A    between atoms: O34_6  and  C9_7
REMARK    7  A    between atoms: C6_12  and  C2_13
REMARK    8  A    between atoms: N40_22  and  C16_23
REMARK    9  A    between atoms: C16_23  and  C17_24
REMARK   10  A    between atoms: C17_24  and  C18_25
REMARK   11  A    between atoms: C21_30  and  N24_31
REMARK   12  A    between atoms: N26_34  and  C27_35
REMARK                            x       y       z     vdW  Elec       q    Type
REMARK                         _______ _______ _______ _____ _____    ______ ____
ROOT
ATOM     11  C   UNL     1      -3.220 -31.941   6.339  0.00  0.00    +0.123 A 
ATOM     12  C   UNL     1      -4.158 -30.988   6.199  0.00  0.00    +0.006 A 
ATOM     13  C   UNL     1      -4.477 -30.527   7.418  0.00  0.00    +0.061 A 
ATOM     14  C   UNL     1      -5.357 -29.558   7.912  0.00  0.00    +0.123 A 
ATOM     15  N   UNL     1      -6.147 -28.832   7.121  0.00  0.00    -0.299 N 
ATOM     16  H   UNL     1      -6.164 -29.026   6.109  0.00  0.00    +0.187 HD
ATOM     37  N   UNL     1      -5.418 -29.356   9.240  0.00  0.00    -0.271 NA
ATOM     38  C   UNL     1      -4.673 -30.052  10.085  0.00  0.00    +0.152 A 
ATOM     39  N   UNL     1      -3.828 -30.978   9.660  0.00  0.00    -0.265 NA
ATOM     40  C   UNL     1      -3.715 -31.230   8.349  0.00  0.00    +0.196 A 
ATOM     41  O   UNL     1      -2.948 -32.106   7.665  0.00  0.00    -0.236 OA
ENDROOT
BRANCH  11  10
ATOM      7  C   UNL     1      -1.247 -34.465   3.617  0.00  0.00    +0.093 A 
ATOM      8  C   UNL     1      -2.091 -33.458   3.143  0.00  0.00    +0.024 A 
ATOM      9  C   UNL     1      -2.757 -32.602   4.025  0.00  0.00    +0.001 A 
ATOM     10  C   UNL     1      -2.569 -32.748   5.403  0.00  0.00    +0.006 A 
ATOM     42  C   UNL     1      -1.723 -33.760   5.870  0.00  0.00    +0.001 A 
ATOM     43  C   UNL     1      -1.063 -34.613   4.989  0.00  0.00    +0.024 A 
BRANCH   7   6
ATOM      6  O   UNL     1      -0.612 -35.272   2.717  0.00  0.00    -0.311 OA
BRANCH   6   5
ATOM      5  C   UNL     1       0.017 -36.467   3.233  0.00  0.00    +0.245 C 
BRANCH   5   4
ATOM      4  C   UNL     1       0.344 -37.386   2.054  0.00  0.00    +0.164 C 
BRANCH   4   2
ATOM      1  C   UNL     1      -0.358 -37.743  -0.228  0.00  0.00    +0.190 C 
ATOM      2  N   UNL     1      -0.814 -37.424   1.139  0.00  0.00    +0.233 N 
ATOM      3  H   UNL     1      -1.244 -36.512   1.125  0.00  0.00    +0.203 HD
ATOM     44  C   UNL     1      -1.814 -38.401   1.624  0.00  0.00    +0.190 C 
ENDBRANCH   4   2
ENDBRANCH   5   4
ENDBRANCH   6   5
ENDBRANCH   7   6
ENDBRANCH  11  10
BRANCH  15  17
ATOM     17  C   UNL     1      -6.999 -27.754   7.668  0.00  0.00    +0.147 C 
BRANCH  17  18
ATOM     18  C   UNL     1      -8.413 -28.239   8.019  0.00  0.00    +0.078 C 
BRANCH  18  19
ATOM     19  C   UNL     1      -9.253 -27.050   8.506  0.00  0.00    -0.056 A 
ATOM     20  C   UNL     1      -9.039 -26.522   9.776  0.00  0.00    -0.021 A 
ATOM     21  C   UNL     1      -9.786 -25.435  10.222  0.00  0.00    +0.001 A 
ATOM     22  C   UNL     1     -10.739 -24.843   9.395  0.00  0.00    +0.060 A 
ATOM     35  C   UNL     1     -10.961 -25.380   8.122  0.00  0.00    +0.001 A 
ATOM     36  C   UNL     1     -10.215 -26.472   7.681  0.00  0.00    -0.021 A 
BRANCH  22  23
ATOM     23  N   UNL     1     -11.457 -23.812   9.875  0.00  0.00    -0.218 N 
ATOM     24  H   UNL     1     -11.797 -23.891  10.812  0.00  0.00    +0.224 HD
ATOM     25  C   UNL     1     -11.759 -22.686   9.209  0.00  0.00    +0.315 C 
ATOM     26  N   UNL     1     -12.521 -21.819   9.896  0.00  0.00    -0.215 N 
ATOM     27  H   UNL     1     -12.775 -22.082  10.827  0.00  0.00    +0.226 HD
ATOM     34  O   UNL     1     -11.365 -22.467   8.064  0.00  0.00    -0.381 OA
BRANCH  26  28
ATOM     28  C   UNL     1     -12.976 -20.632   9.457  0.00  0.00    +0.067 A 
ATOM     29  C   UNL     1     -12.845 -20.193   8.139  0.00  0.00    +0.009 A 
ATOM     30  C   UNL     1     -13.357 -18.953   7.757  0.00  0.00    -0.018 A 
ATOM     31  C   UNL     1     -14.011 -18.145   8.683  0.00  0.00    -0.029 A 
ATOM     32  C   UNL     1     -14.156 -18.576   9.996  0.00  0.00    -0.018 A 
ATOM     33  C   UNL     1     -13.642 -19.814  10.371  0.00  0.00    +0.009 A 
ENDBRANCH  26  28
ENDBRANCH  22  23
ENDBRANCH  18  19
ENDBRANCH  17  18
ENDBRANCH  15  17
TORSDOF 10
