REMARK  Name = 5EI6
REMARK  8 active torsions:
REMARK  status: ('A' for Active; 'I' for Inactive)
REMARK    1  A    between atoms: C_5  and  C_11
REMARK    2  A    between atoms: C_7  and  N_20
REMARK    3  A    between atoms: C_9  and  N_20
REMARK    4  A    between atoms: C_12  and  O_15
REMARK    5  A    between atoms: C_14  and  O_15
REMARK    6  A    between atoms: C_17  and  O_18
REMARK    7  A    between atoms: O_18  and  C_19
REMARK    8  A    between atoms: N_25  and  C_26
REMARK                            x       y       z     vdW  Elec       q    Type
REMARK                         _______ _______ _______ _____ _____    ______ ____
ROOT
ATOM      1  C   UNL     1       2.874  18.535 -14.014  0.00  0.00    +0.001 A 
ATOM      2  C   UNL     1       2.734  17.158 -14.043  0.00  0.00    +0.009 A 
ATOM      3  C   UNL     1       1.956  16.507 -13.113  0.00  0.00    -0.007 A 
ATOM     10  C   UNL     1       1.289  17.255 -12.094  0.00  0.00    -0.005 A 
ATOM     11  C   UNL     1       0.473  16.660 -11.107  0.00  0.00    +0.052 A 
ATOM     12  C   UNL     1      -0.150  17.491 -10.169  0.00  0.00    +0.124 A 
ATOM     13  N   UNL     1      -0.012  18.826 -10.159  0.00  0.00    -0.240 NA
ATOM     14  C   UNL     1       0.751  19.376 -11.076  0.00  0.00    +0.121 A 
ATOM     27  C   UNL     1       1.441  18.665 -12.081  0.00  0.00    +0.001 A 
ATOM     28  C   UNL     1       2.247  19.281 -13.064  0.00  0.00    +0.010 A 
ENDROOT
BRANCH   3   4
ATOM      4  C   UNL     1       1.777  15.029 -13.201  0.00  0.00    +0.020 A 
ATOM      5  C   UNL     1       0.851  14.377 -13.973  0.00  0.00    +0.116 A 
ATOM      6  N   UNL     1       0.991  13.070 -13.726  0.00  0.00    -0.274 N 
ATOM      7  C   UNL     1       0.224  11.971 -14.297  0.00  0.00    +0.172 C 
ATOM      8  N   UNL     1       1.961  12.810 -12.837  0.00  0.00    -0.179 NA
ATOM      9  C   UNL     1       2.440  13.998 -12.519  0.00  0.00    +0.143 A 
ENDBRANCH   3   4
BRANCH  12  15
ATOM     15  N   UNL     1      -0.959  16.969  -9.182  0.00  0.00    -0.297 N 
ATOM     16  H   UNL     1      -1.490  17.681  -8.585  0.00  0.00    +0.154 HD
BRANCH  15  17
ATOM     17  C   UNL     1      -1.169  15.632  -8.868  0.00  0.00    +0.075 A 
ATOM     18  C   UNL     1      -1.105  15.250  -7.528  0.00  0.00    +0.145 A 
ATOM     21  C   UNL     1      -1.319  13.935  -7.161  0.00  0.00    +0.093 A 
ATOM     22  C   UNL     1      -1.597  12.992  -8.136  0.00  0.00    +0.124 A 
ATOM     25  C   UNL     1      -1.656  13.357  -9.471  0.00  0.00    +0.048 A 
ATOM     26  C   UNL     1      -1.444  14.673  -9.835  0.00  0.00    +0.030 A 
BRANCH  18  19
ATOM     19  O   UNL     1      -0.808  16.262  -6.659  0.00  0.00    -0.493 OA
ATOM     20  C   UNL     1      -1.104  16.064  -5.280  0.00  0.00    +0.277 C 
ENDBRANCH  18  19
BRANCH  22  23
ATOM     23  O   UNL     1      -1.814  11.725  -7.663  0.00  0.00    -0.495 OA
ATOM     24  C   UNL     1      -1.945  10.662  -8.603  0.00  0.00    +0.277 C 
ENDBRANCH  22  23
ENDBRANCH  15  17
ENDBRANCH  12  15
TORSDOF 5
