REMARK  Name = 2xp5_ligand
REMARK  3 active torsions:
REMARK  status: ('A' for Active; 'I' for Inactive)
REMARK    1  A    between atoms: C12_2  and  C10_4
REMARK    2  A    between atoms: C9_5  and  C15_15
REMARK    3  A    between atoms: C7_7  and  C6_9
REMARK                            x       y       z     vdW  Elec       q    Type
REMARK                         _______ _______ _______ _____ _____    ______ ____
ROOT
ATOM      3  CA  UNL     1     -36.850  27.173  25.339  0.00  0.00    +0.051 A 
ATOM      4  N   UNL     1     -35.690  26.657  25.708  0.00  0.00    -0.321 NA
ATOM      5  C   UNL     1     -35.225  25.850  24.724  0.00  0.00    +0.133 A 
ATOM     12  N   UNL     1     -36.119  25.898  23.680  0.00  0.00    -0.251 N 
ATOM     13  H   UNL     1     -36.030  25.404  22.781  0.00  0.00    +0.239 HD
ATOM     14  C   UNL     1     -37.134  26.709  24.046  0.00  0.00    +0.072 A 
ATOM     15  C   UNL     1     -38.378  27.081  23.158  0.00  0.00    +0.129 C 
ENDROOT
BRANCH   5   6
ATOM      6  C   UNL     1     -34.010  25.143  24.795  0.00  0.00    +0.022 A 
ATOM      7  C   UNL     1     -33.420  24.835  26.028  0.00  0.00    +0.012 A 
ATOM      8  C   UNL     1     -32.183  24.148  26.095  0.00  0.00    +0.000 A 
ATOM      9  C   UNL     1     -31.552  23.745  24.899  0.00  0.00    -0.001 A 
ATOM     10  C   UNL     1     -32.115  24.054  23.647  0.00  0.00    +0.000 A 
ATOM     11  C   UNL     1     -33.337  24.761  23.617  0.00  0.00    +0.012 A 
ENDBRANCH   5   6
BRANCH   3   2
ATOM      1  O   UNL     1     -37.485  28.441  27.390  0.00  0.00    -0.572 OA
ATOM      2  C   UNL     1     -37.738  28.151  26.199  0.00  0.00    +0.045 C 
ATOM     16  OXT UNL     1     -38.768  28.583  25.682  0.00  0.00    -0.572 OA
ENDBRANCH   3   2
TORSDOF 2
