REMARK  Name = 3q32_ligand
REMARK  6 active torsions:
REMARK  status: ('A' for Active; 'I' for Inactive)
REMARK    1  A    between atoms: C7_7  and  C23_23
REMARK    2  A    between atoms: C8_8  and  O33_33
REMARK    3  A    between atoms: C12_12  and  C21_21
REMARK    4  A    between atoms: C13_13  and  N31_31
REMARK    5  A    between atoms: C16_16  and  C23_23
REMARK    6  A    between atoms: C22_22  and  O33_33
REMARK                            x       y       z     vdW  Elec       q    Type
REMARK                         _______ _______ _______ _____ _____    ______ ____
ROOT
ATOM      1  C   UNL     1      -2.751  42.711   6.000  0.00  0.00    -0.047 A 
ATOM      2  C   UNL     1      -1.648  43.470   5.628  0.00  0.00    +0.126 A 
ATOM      3  N   UNL     1      -1.870  43.960   4.368  0.00  0.00    -0.184 N 
ATOM      4  N   UNL     1      -1.001  44.664   3.598  0.00  0.00    -0.171 NA
ATOM      5  C   UNL     1      -1.484  45.060   2.426  0.00  0.00    +0.178 A 
ATOM      6  N   UNL     1      -0.702  45.747   1.544  0.00  0.00    -0.279 N 
ATOM      7  C   UNL     1      -1.224  46.226   0.259  0.00  0.00    +0.161 C 
ATOM      8  C   UNL     1      -0.218  46.037  -0.870  0.00  0.00    +0.163 C 
ATOM      9  N   UNL     1       1.213  46.272  -0.527  0.00  0.00    -0.268 N 
ATOM     10  C   UNL     1       1.650  45.972   0.854  0.00  0.00    +0.163 C 
ATOM     11  C   UNL     1       2.195  46.704  -1.421  0.00  0.00    +0.187 C 
ATOM     12  O   UNL     1       3.377  46.871  -1.103  0.00  0.00    -0.395 OA
ATOM     24  C   UNL     1       0.615  46.274   1.927  0.00  0.00    +0.161 C 
ATOM     25  N   UNL     1      -2.761  44.731   1.977  0.00  0.00    -0.251 NA
ATOM     26  C   UNL     1      -3.546  43.919   2.625  0.00  0.00    +0.175 A 
ATOM     27  N   UNL     1      -4.811  43.644   2.180  0.00  0.00    -0.219 N 
ATOM     28  H   UNL     1      -5.370  43.107   2.858  0.00  0.00    +0.226 HD
ATOM     36  C   UNL     1      -3.123  43.551   3.945  0.00  0.00    +0.141 A 
ATOM     37  C   UNL     1      -3.707  42.803   4.951  0.00  0.00    -0.034 A 
ENDROOT
BRANCH  27  29
ATOM     29  C   UNL     1      -5.506  43.934   1.008  0.00  0.00    +0.176 A 
ATOM     30  N   UNL     1      -6.728  43.446   0.789  0.00  0.00    -0.210 N 
ATOM     31  H   UNL     1      -7.304  42.872   1.421  0.00  0.00    +0.247 HD
ATOM     32  N   UNL     1      -7.035  43.877  -0.449  0.00  0.00    -0.252 NA
ATOM     33  C   UNL     1      -6.111  44.736  -0.967  0.00  0.00    -0.015 A 
ATOM     34  C   UNL     1      -6.342  45.332  -2.306  0.00  0.00    +0.079 C 
ATOM     35  C   UNL     1      -5.066  44.773  -0.049  0.00  0.00    -0.008 A 
ENDBRANCH  27  29
BRANCH  11  13
ATOM     13  C   UNL     1       1.802  47.003  -2.842  0.00  0.00    +0.192 C 
BRANCH  13  14
ATOM     14  C   UNL     1       0.904  48.199  -2.976  0.00  0.00    +0.032 A 
ATOM     15  C   UNL     1       1.207  49.457  -2.424  0.00  0.00    +0.126 A 
ATOM     16  F   UNL     1       2.333  49.676  -1.740  0.00  0.00    -0.193 F 
ATOM     17  C   UNL     1       0.339  50.536  -2.620  0.00  0.00    +0.038 A 
ATOM     18  C   UNL     1      -0.840  50.378  -3.356  0.00  0.00    +0.081 A 
ATOM     21  C   UNL     1      -1.158  49.108  -3.878  0.00  0.00    +0.038 A 
ATOM     22  C   UNL     1      -0.269  48.029  -3.705  0.00  0.00    +0.126 A 
ATOM     23  F   UNL     1      -0.508  46.808  -4.208  0.00  0.00    -0.193 F 
BRANCH  18  19
ATOM     19  O   UNL     1      -1.703  51.437  -3.442  0.00  0.00    -0.327 OA
ATOM     20  C   UNL     1      -1.552  52.415  -4.459  0.00  0.00    +0.230 C 
ENDBRANCH  18  19
ENDBRANCH  13  14
ENDBRANCH  11  13
TORSDOF 4
