REMARK  Name = 2bts_ligand
REMARK  6 active torsions:
REMARK  status: ('A' for Active; 'I' for Inactive)
REMARK    1  A    between atoms: C3_4  and  C4_5
REMARK    2  A    between atoms: C4_5  and  C5_6
REMARK    3  A    between atoms: C4_5  and  C6_7
REMARK    4  A    between atoms: N11_11  and  S16_19
REMARK    5  A    between atoms: C14_13  and  S16_19
REMARK    6  A    between atoms: N90_14  and  C18_17
REMARK                            x       y       z     vdW  Elec       q    Type
REMARK                         _______ _______ _______ _____ _____    ______ ____
ROOT
ATOM      3  C   UNL     1       5.131   9.907  29.237  0.00  0.00    +0.096 A 
ATOM      4  C   UNL     1       5.484   9.094  30.314  0.00  0.00    +0.016 A 
ATOM      5  C   UNL     1       4.712   7.969  30.622  0.00  0.00    +0.017 A 
ATOM      6  C   UNL     1       3.542   7.639  29.903  0.00  0.00    +0.066 A 
ATOM      7  C   UNL     1       3.191   8.464  28.833  0.00  0.00    +0.017 A 
ATOM     18  C   UNL     1       3.978   9.589  28.517  0.00  0.00    +0.016 A 
ENDROOT
BRANCH   6   8
ATOM      8  N   UNL     1       2.845   6.529  30.330  0.00  0.00    -0.242 N 
ATOM      9  H   UNL     1       3.252   6.065  31.154  0.00  0.00    +0.219 HD
ATOM     10  C   UNL     1       1.615   5.885  29.815  0.00  0.00    +0.191 A 
ATOM     11  N   UNL     1       1.373   4.475  30.018  0.00  0.00    -0.332 NA
ATOM     12  C   UNL     1       0.321   4.103  29.410  0.00  0.00    -0.009 A 
ATOM     13  C   UNL     1      -0.305   5.028  28.661  0.00  0.00    +0.019 A 
ATOM     17  S   UNL     1       0.397   6.560  28.687  0.00  0.00    +0.021 S 
BRANCH  13  14
ATOM     14  C   UNL     1      -1.611   4.670  27.947  0.00  0.00    +0.038 C 
ATOM     15  C   UNL     1      -1.532   4.267  26.485  0.00  0.00    +0.023 C 
ATOM     16  C   UNL     1      -2.618   5.797  28.137  0.00  0.00    +0.023 C 
ENDBRANCH  13  14
ENDBRANCH   6   8
BRANCH   3   2
ATOM      1  O   UNL     1       6.510  11.908  30.162  0.00  0.00    -0.152 OA
ATOM      2  S   UNL     1       6.036  11.202  28.857  0.00  0.00    +0.061 S 
ATOM     22  O   UNL     1       7.307  10.634  28.142  0.00  0.00    -0.152 OA
BRANCH   2  19
ATOM     19  N   UNL     1       5.221  12.184  27.927  0.00  0.00    -0.262 NA
ATOM     20  H   UNL     1       5.541  12.374  26.999  0.00  0.00    +0.163 HD
ATOM     21  H   UNL     1       4.385  12.616  28.266  0.00  0.00    +0.163 HD
ENDBRANCH   2  19
ENDBRANCH   3   2
TORSDOF 4
