REMARK  Name = 87D
REMARK  6 active torsions:
REMARK  status: ('A' for Active; 'I' for Inactive)
REMARK    1  A    between atoms: C7_3  and  C2_19
REMARK    2  A    between atoms: C10_5  and  O15_26
REMARK    3  A    between atoms: C13_6  and  N16_22
REMARK    4  A    between atoms: C17_7  and  O15_26
REMARK    5  A    between atoms: C3_20  and  O23_27
REMARK    6  A    between atoms: N16_22  and  S25_28
REMARK                            x       y       z     vdW  Elec       q    Type
REMARK                         _______ _______ _______ _____ _____    ______ ____
ROOT
ATOM      8  C   UNL     1       6.852  -8.405  -7.210  0.00  0.00    +0.040 A 
ATOM      9  C   UNL     1       8.219  -8.231  -7.238  0.00  0.00    +0.145 A 
ATOM     17  C   UNL     1       8.847  -7.811  -8.384  0.00  0.00    +0.039 A 
ATOM     18  C   UNL     1       8.111  -7.555  -9.509  0.00  0.00    +0.021 A 
ATOM     19  C   UNL     1       6.747  -7.716  -9.485  0.00  0.00    +0.091 A 
ATOM     25  C   UNL     1       6.102  -8.152  -8.339  0.00  0.00    +0.021 A 
ENDROOT
BRANCH   8   7
ATOM      1  C   UNL     1       5.619 -10.653  -4.442  0.00  0.00    +0.098 C 
ATOM      2  C   UNL     1       4.620  -9.753  -3.832  0.00  0.00    +0.264 C 
ATOM      3  O   UNL     1       3.956 -10.152  -2.889  0.00  0.00    -0.267 OA
ATOM      4  N   UNL     1       4.530  -8.490  -4.373  0.00  0.00    -0.292 N 
ATOM      5  C   UNL     1       3.572  -7.566  -3.801  0.00  0.00    +0.134 C 
ATOM      6  C   UNL     1       5.255  -8.118  -5.466  0.00  0.00    +0.082 C 
ATOM      7  C   UNL     1       6.156  -8.917  -6.043  0.00  0.00    +0.054 C 
ATOM     26  C   UNL     1       6.345 -10.253  -5.492  0.00  0.00    +0.145 C 
BRANCH  26  27
ATOM     27  O   UNL     1       7.301 -10.991  -6.175  0.00  0.00    -0.471 OA
ATOM     28  C   UNL     1       7.578 -12.290  -5.641  0.00  0.00    +0.253 C 
ENDBRANCH  26  27
ENDBRANCH   8   7
BRANCH   9  10
ATOM     10  O   UNL     1       8.920  -8.474  -6.070  0.00  0.00    -0.454 OA
BRANCH  10  11
ATOM     11  C   UNL     1      10.244  -8.902  -6.086  0.00  0.00    +0.145 A 
ATOM     12  C   UNL     1      11.162  -8.149  -5.378  0.00  0.00    +0.037 A 
ATOM     13  C   UNL     1      12.474  -8.576  -5.318  0.00  0.00    +0.003 A 
ATOM     14  C   UNL     1      12.846  -9.754  -5.926  0.00  0.00    +0.000 A 
ATOM     15  C   UNL     1      11.914 -10.516  -6.614  0.00  0.00    +0.003 A 
ATOM     16  C   UNL     1      10.605 -10.088  -6.692  0.00  0.00    +0.037 A 
ENDBRANCH  10  11
ENDBRANCH   9  10
BRANCH  19  20
ATOM     20  N   UNL     1       6.125  -7.419 -10.732  0.00  0.00    -0.101 NA
BRANCH  20  21
ATOM     21  S   UNL     1       4.425  -7.321 -10.882  0.00  0.00    +0.075 S 
ATOM     22  C   UNL     1       3.956  -5.937  -9.882  0.00  0.00    +0.202 C 
ATOM     23  O   UNL     1       3.877  -8.584 -10.438  0.00  0.00    -0.153 OA
ATOM     24  O   UNL     1       4.194  -6.957 -12.266  0.00  0.00    -0.153 OA
ENDBRANCH  20  21
ENDBRANCH  19  20
TORSDOF 6
