REMARK  Name = 4FT3
REMARK  6 active torsions:
REMARK  status: ('A' for Active; 'I' for Inactive)
REMARK    1  A    between atoms: N_3  and  C_4
REMARK    2  A    between atoms: N_10  and  C_11
REMARK    3  A    between atoms: C_13  and  O_14
REMARK    4  A    between atoms: O_14  and  C_15
REMARK    5  A    between atoms: C_17  and  O_20
REMARK    6  A    between atoms: O_20  and  C_21
REMARK                            x       y       z     vdW  Elec       q    Type
REMARK                         _______ _______ _______ _____ _____    ______ ____
ROOT
ATOM      1  O   UNL     1      16.800  -1.609   8.879  0.00  0.00    -0.252 OA
ATOM      2  C   UNL     1      16.213  -2.591   9.188  0.00  0.00    +0.309 C 
ATOM      3  N   UNL     1      16.828  -3.811   9.349  0.00  0.00    -0.266 N 
ATOM      4  H   UNL     1      16.260  -4.648   9.393  0.00  0.00    +0.157 HD
ATOM     16  N   UNL     1      14.779  -2.605   9.279  0.00  0.00    -0.253 N 
ATOM     17  H   UNL     1      14.262  -2.115   8.557  0.00  0.00    +0.158 HD
ENDROOT
BRANCH   3   5
ATOM      5  C   UNL     1      18.210  -4.076   9.384  0.00  0.00    +0.078 A 
ATOM      6  C   UNL     1      18.536  -5.189  10.185  0.00  0.00    +0.145 A 
ATOM      7  C   UNL     1      19.827  -5.682  10.229  0.00  0.00    +0.094 A 
ATOM      8  C   UNL     1      20.832  -5.028   9.444  0.00  0.00    +0.142 A 
ATOM     11  C   UNL     1      20.479  -3.896   8.688  0.00  0.00    +0.085 A 
ATOM     12 CL   UNL     1      21.648  -3.096   7.769  0.00  0.00    -0.080 Cl
ATOM     15  C   UNL     1      19.182  -3.412   8.651  0.00  0.00    +0.050 A 
BRANCH   8   9
ATOM      9  O   UNL     1      22.117  -5.557   9.372  0.00  0.00    -0.493 OA
ATOM     10  C   UNL     1      22.502  -6.631  10.245  0.00  0.00    +0.277 C 
ENDBRANCH   8   9
BRANCH   6  13
ATOM     13  O   UNL     1      17.454  -5.726  10.944  0.00  0.00    -0.493 OA
ATOM     14  C   UNL     1      17.563  -6.987  11.637  0.00  0.00    +0.277 C 
ENDBRANCH   6  13
ENDBRANCH   3   5
BRANCH  16  18
ATOM     18  C   UNL     1      14.004  -3.121  10.371  0.00  0.00    +0.144 A 
ATOM     19  N   UNL     1      12.959  -2.355  10.743  0.00  0.00    -0.237 NA
ATOM     20  C   UNL     1      12.102  -2.784  11.673  0.00  0.00    +0.132 A 
ATOM     21  C   UNL     1      12.248  -3.994  12.331  0.00  0.00    +0.130 A 
ATOM     22  N   UNL     1      13.308  -4.786  12.017  0.00  0.00    -0.258 NA
ATOM     23  C   UNL     1      14.191  -4.384  11.057  0.00  0.00    +0.154 A 
ENDBRANCH  16  18
TORSDOF 4
