REMARK  Name = 3ds6_ligand
REMARK  6 active torsions:
REMARK  status: ('A' for Active; 'I' for Inactive)
REMARK    1  A    between atoms: C13_7  and  C18_19
REMARK    2  A    between atoms: C16_8  and  C17_18
REMARK    3  A    between atoms: C5_11  and  C11_16
REMARK    4  A    between atoms: C9_15  and  C23_23
REMARK    5  A    between atoms: C20_20  and  N30_30
REMARK    6  A    between atoms: C28_28  and  C29_29
REMARK                            x       y       z     vdW  Elec       q    Type
REMARK                         _______ _______ _______ _____ _____    ______ ____
ROOT
ATOM      1  C   UNL     1      32.858  28.282  61.597  0.00  0.00    +0.028 A 
ATOM      2  C   UNL     1      33.014  27.160  62.497  0.00  0.00    +0.043 A 
ATOM      3  C   UNL     1      31.936  26.420  63.111  0.00  0.00    -0.005 A 
ATOM     18  C   UNL     1      30.603  26.855  62.757  0.00  0.00    +0.028 A 
ATOM     19  C   UNL     1      30.445  27.990  61.854  0.00  0.00    +0.034 A 
ATOM     20  C   UNL     1      34.077  28.936  61.169  0.00  0.00    +0.143 A 
ATOM     21  N   UNL     1      33.952  30.105  60.385  0.00  0.00    -0.250 NA
ATOM     22  N   UNL     1      32.623  30.629  60.000  0.00  0.00    -0.255 NA
ATOM     23  C   UNL     1      31.444  29.958  60.407  0.00  0.00    +0.066 A 
ATOM     31  C   UNL     1      31.531  28.761  61.236  0.00  0.00    +0.029 A 
ENDROOT
BRANCH   3   4
ATOM      4  C   UNL     1      32.311  25.484  64.141  0.00  0.00    -0.003 A 
ATOM      5  C   UNL     1      32.861  25.806  65.458  0.00  0.00    -0.030 A 
ATOM      6  C   UNL     1      33.105  27.158  65.949  0.00  0.00    +0.096 C 
ATOM      7  C   UNL     1      33.330  24.702  66.300  0.00  0.00    +0.005 A 
ATOM      8  C   UNL     1      33.305  23.296  65.896  0.00  0.00    +0.019 A 
ATOM      9  C   UNL     1      32.760  23.025  64.577  0.00  0.00    +0.045 A 
ATOM     17  C   UNL     1      32.272  24.093  63.726  0.00  0.00    +0.029 A 
BRANCH   9  10
ATOM     10  C   UNL     1      32.539  21.671  63.948  0.00  0.00    +0.201 C 
ATOM     11  N   UNL     1      32.563  20.571  64.707  0.00  0.00    -0.284 N 
ATOM     12  H   UNL     1      32.721  20.732  65.681  0.00  0.00    +0.185 HD
ATOM     16  O   UNL     1      32.322  21.596  62.742  0.00  0.00    -0.388 OA
BRANCH  11  13
ATOM     13  C   UNL     1      32.399  19.215  64.342  0.00  0.00    +0.097 C 
ATOM     14  C   UNL     1      33.634  18.722  63.776  0.00  0.00    +0.030 C 
ATOM     15  C   UNL     1      33.234  18.317  65.109  0.00  0.00    +0.030 C 
ENDBRANCH  11  13
ENDBRANCH   9  10
ENDBRANCH   3   4
BRANCH  23  24
ATOM     24  C   UNL     1      30.192  30.498  59.893  0.00  0.00    +0.016 A 
ATOM     25  C   UNL     1      29.281  29.816  58.975  0.00  0.00    -0.026 A 
ATOM     26  C   UNL     1      29.500  28.473  58.449  0.00  0.00    +0.097 C 
ATOM     27  C   UNL     1      28.061  30.497  58.559  0.00  0.00    +0.005 A 
ATOM     28  C   UNL     1      27.681  31.822  59.008  0.00  0.00    +0.002 A 
ATOM     29  C   UNL     1      28.596  32.475  59.919  0.00  0.00    -0.004 A 
ATOM     30  C   UNL     1      29.829  31.834  60.352  0.00  0.00    +0.016 A 
ENDBRANCH  23  24
TORSDOF 4
