REMARK  Name = 4AOJ
REMARK  8 active torsions:
REMARK  status: ('A' for Active; 'I' for Inactive)
REMARK    1  A    between atoms: C_1  and  C_2
REMARK    2  A    between atoms: C_2  and  C_3
REMARK    3  A    between atoms: C_2  and  O_4
REMARK    4  A    between atoms: O_4  and  C_5
REMARK    5  A    between atoms: N_8  and  C_9
REMARK    6  A    between atoms: N_12  and  C_13
REMARK    7  A    between atoms: C_13  and  C_14
REMARK    8  A    between atoms: C_13  and  C_15
REMARK                            x       y       z     vdW  Elec       q    Type
REMARK                         _______ _______ _______ _____ _____    ______ ____
ROOT
ATOM      9  C   UNL     1      97.006  57.157  25.950  0.00  0.00    +0.291 A 
ATOM     10  C   UNL     1      98.355  57.155  26.261  0.00  0.00    +0.129 A 
ATOM     11 CL   UNL     1      99.046  57.259  27.866  0.00  0.00    -0.076 Cl
ATOM     12  C   UNL     1      99.235  57.052  25.219  0.00  0.00    +0.140 A 
ATOM     13  N   UNL     1      98.831  56.947  23.959  0.00  0.00    -0.221 NA
ATOM     14  C   UNL     1      97.512  56.944  23.741  0.00  0.00    +0.219 A 
ATOM     15  N   UNL     1      97.207  56.821  22.396  0.00  0.00    -0.305 N 
ATOM     16  H   UNL     1      97.950  56.676  21.639  0.00  0.00    +0.150 HD
ATOM     26  N   UNL     1      96.565  57.054  24.687  0.00  0.00    -0.171 NA
ENDROOT
BRANCH   9   8
ATOM      4  C   UNL     1      92.623  57.116  26.379  0.00  0.00    +0.268 C 
ATOM      5  N   UNL     1      92.784  57.254  27.729  0.00  0.00    +0.004 NA
ATOM      6  N   UNL     1      94.044  57.337  28.150  0.00  0.00    +0.089 NA
ATOM      7  C   UNL     1      94.750  57.221  27.015  0.00  0.00    +0.400 C 
ATOM      8  N   UNL     1      96.118  57.255  27.006  0.00  0.00    -0.011 NA
ATOM     27  C   UNL     1      93.905  57.078  25.872  0.00  0.00    +0.178 C 
BRANCH   4   3
ATOM      3  O   UNL     1      91.357  57.054  25.890  0.00  0.00    -0.471 OA
BRANCH   3   2
ATOM      1  C   UNL     1      90.009  56.374  24.062  0.00  0.00    +0.051 C 
ATOM      2  C   UNL     1      91.214  57.200  24.480  0.00  0.00    +0.169 C 
ATOM     28  C   UNL     1      91.110  58.670  24.130  0.00  0.00    +0.051 C 
ENDBRANCH   3   2
ENDBRANCH   4   3
ENDBRANCH   9   8
BRANCH  15  17
ATOM     17  C   UNL     1      95.792  56.906  22.108  0.00  0.00    +0.119 C 
ATOM     25  C   UNL     1      95.673  57.407  20.674  0.00  0.00    +0.034 C 
BRANCH  17  18
ATOM     18  C   UNL     1      95.099  55.587  22.160  0.00  0.00    +0.061 A 
ATOM     19  N   UNL     1      95.792  54.462  22.018  0.00  0.00    -0.255 NA
ATOM     20  C   UNL     1      95.111  53.310  22.064  0.00  0.00    +0.149 A 
ATOM     21  C   UNL     1      93.759  53.241  22.254  0.00  0.00    +0.141 A 
ATOM     22  F   UNL     1      93.080  52.049  22.278  0.00  0.00    -0.204 F 
ATOM     23  C   UNL     1      93.072  54.410  22.399  0.00  0.00    +0.041 A 
ATOM     24  C   UNL     1      93.745  55.595  22.354  0.00  0.00    +0.028 A 
ENDBRANCH  17  18
ENDBRANCH  15  17
TORSDOF 5
