REMARK  Name = 4rio_ligand
REMARK  4 active torsions:
REMARK  status: ('A' for Active; 'I' for Inactive)
REMARK    1  A    between atoms: C1_1  and  C10_10
REMARK    2  A    between atoms: C6_6  and  N13_13
REMARK    3  A    between atoms: N13_13  and  C14_14
REMARK    4  A    between atoms: C18_18  and  C19_19
REMARK                            x       y       z     vdW  Elec       q    Type
REMARK                         _______ _______ _______ _____ _____    ______ ____
ROOT
ATOM      1  C   UNL     1      -0.475 -13.263  -3.887  0.00  0.00    +0.083 A 
ATOM      7  C   UNL     1      -0.031 -14.590  -4.094  0.00  0.00    +0.107 A 
ATOM     17  C   UNL     1      -0.946 -15.644  -3.788  0.00  0.00    +0.127 A 
ATOM     18  C   UNL     1      -0.870 -17.027  -3.782  0.00  0.00    -0.039 A 
ATOM     19  C   UNL     1      -2.141 -17.534  -3.364  0.00  0.00    -0.048 A 
ATOM     20  C   UNL     1      -2.958 -16.471  -3.126  0.00  0.00    +0.127 A 
ATOM     21  N   UNL     1      -2.221 -15.321  -3.371  0.00  0.00    -0.174 N 
ATOM     22  N   UNL     1      -2.690 -14.025  -3.157  0.00  0.00    -0.185 NA
ATOM     23  C   UNL     1      -1.777 -13.058  -3.405  0.00  0.00    +0.122 A 
ENDROOT
BRANCH   1   2
ATOM      2  C   UNL     1       0.419 -12.093  -4.191  0.00  0.00    +0.184 C 
ATOM      3  O   UNL     1       1.531 -12.281  -4.690  0.00  0.00    -0.403 OA
ATOM      4  N   UNL     1      -0.024 -10.860  -3.880  0.00  0.00    -0.305 N 
ATOM      5  H   UNL     1      -0.924 -10.743  -3.459  0.00  0.00    +0.179 HD
ATOM      6  H   UNL     1       0.547 -10.061  -4.069  0.00  0.00    +0.179 HD
ENDBRANCH   1   2
BRANCH   7   8
ATOM      8  N   UNL     1       1.248 -14.837  -4.587  0.00  0.00    -0.299 N 
ATOM      9  H   UNL     1       1.960 -14.129  -4.356  0.00  0.00    +0.187 HD
BRANCH   8  10
ATOM     10  C   UNL     1       1.715 -15.964  -5.387  0.00  0.00    +0.134 C 
ATOM     11  C   UNL     1       2.397 -15.521  -6.730  0.00  0.00    +0.132 C 
ATOM     12  F   UNL     1       3.116 -14.337  -6.486  0.00  0.00    -0.240 F 
ATOM     13  C   UNL     1       1.380 -15.275  -7.851  0.00  0.00    +0.050 C 
ATOM     14  C   UNL     1       3.384 -16.631  -7.070  0.00  0.00    +0.042 C 
ATOM     15  C   UNL     1       3.640 -17.386  -5.768  0.00  0.00    +0.006 C 
ATOM     16  C   UNL     1       2.895 -16.634  -4.687  0.00  0.00    +0.032 C 
ENDBRANCH   8  10
ENDBRANCH   7   8
TORSDOF 3
