REMARK  Name = ODR
REMARK  4 active torsions:
REMARK  status: ('A' for Active; 'I' for Inactive)
REMARK    1  A    between atoms: CAB_2  and  OAC_3
REMARK    2  A    between atoms: OAC_3  and  CAD_4
REMARK    3  A    between atoms: CAF_6  and  CAQ_17
REMARK    4  A    between atoms: CAH_8  and  CAJ_10
REMARK                            x       y       z     vdW  Elec       q    Type
REMARK                         _______ _______ _______ _____ _____    ______ ____
ROOT
ATOM      4  C   UNL     1      27.886  15.539  -1.201  0.00  0.00    +0.138 A 
ATOM      5  C   UNL     1      29.184  15.705  -0.706  0.00  0.00    +0.037 A 
ATOM      6  C   UNL     1      30.211  16.093  -1.566  0.00  0.00    +0.007 A 
ATOM     14  C   UNL     1      29.933  16.341  -2.930  0.00  0.00    -0.002 A 
ATOM     15  C   UNL     1      28.626  16.191  -3.413  0.00  0.00    +0.011 A 
ATOM     19  C   UNL     1      27.636  15.784  -2.536  0.00  0.00    +0.035 A 
ENDROOT
BRANCH   6   7
ATOM      7  C   UNL     1      31.514  16.349  -1.089  0.00  0.00    +0.050 A 
ATOM      8  C   UNL     1      31.837  17.240  -0.046  0.00  0.00    +0.101 A 
ATOM      9  C   UNL     1      30.936  18.050   0.869  0.00  0.00    +0.056 C 
ATOM     10  N   UNL     1      33.156  17.337   0.125  0.00  0.00    -0.082 NA
ATOM     11  O   UNL     1      33.739  16.515  -0.844  0.00  0.00    -0.358 OA
ATOM     12  C   UNL     1      32.749  15.933  -1.589  0.00  0.00    +0.154 A 
ATOM     13  C   UNL     1      33.037  14.953  -2.736  0.00  0.00    +0.075 C 
ENDBRANCH   6   7
BRANCH  15  16
ATOM     16  C   UNL     1      28.143  16.427  -4.865  0.00  0.00    +0.174 C 
ATOM     17  C   UNL     1      27.823  17.896  -5.047  0.00  0.00    +0.041 C 
ATOM     18  O   UNL     1      29.019  16.010  -5.892  0.00  0.00    -0.218 OA
ENDBRANCH  15  16
BRANCH   4   3
ATOM      3  O   UNL     1      26.800  15.151  -0.488  0.00  0.00    -0.475 OA
BRANCH   3   2
ATOM      1  C   UNL     1      25.655  14.691   1.549  0.00  0.00    +0.051 C 
ATOM      2  C   UNL     1      27.004  15.063   0.945  0.00  0.00    +0.205 C 
ENDBRANCH   3   2
ENDBRANCH   4   3
TORSDOF 4
