REMARK  Name = 3NG
REMARK  2 active torsions:
REMARK  status: ('A' for Active; 'I' for Inactive)
REMARK    1  A    between atoms: C5_5  and  C23_23
REMARK    2  A    between atoms: N15_15  and  C16_16
REMARK                            x       y       z     vdW  Elec       q    Type
REMARK                         _______ _______ _______ _____ _____    ______ ____
ROOT
ATOM      1  C   UNL     1     -28.592  22.368 -19.230  0.00  0.00    +0.083 A 
ATOM      2  N   UNL     1     -29.431  22.867 -18.302  0.00  0.00    -0.229 NA
ATOM      3  C   UNL     1     -30.423  22.126 -17.747  0.00  0.00    +0.152 A 
ATOM      4  N   UNL     1     -31.236  22.684 -16.801  0.00  0.00    -0.194 NA
ATOM     11  C   UNL     1     -30.595  20.787 -18.148  0.00  0.00    +0.036 A 
ATOM     12  C   UNL     1     -31.620  20.002 -17.583  0.00  0.00    +0.024 A 
ATOM     13  C   UNL     1     -31.787  18.674 -17.986  0.00  0.00    +0.099 A 
ATOM     14  N   UNL     1     -30.955  18.152 -18.913  0.00  0.00    -0.242 NA
ATOM     15  C   UNL     1     -29.959  18.881 -19.476  0.00  0.00    +0.099 A 
ATOM     16  C   UNL     1     -29.732  20.231 -19.124  0.00  0.00    +0.023 A 
ATOM     17  C   UNL     1     -28.703  21.038 -19.681  0.00  0.00    +0.019 A 
ATOM     18  C   UNL     1     -27.773  20.623 -20.657  0.00  0.00    +0.002 A 
ATOM     19  C   UNL     1     -26.793  21.491 -21.152  0.00  0.00    +0.007 A 
ATOM     20  C   UNL     1     -26.702  22.807 -20.687  0.00  0.00    +0.081 A 
ATOM     24  C   UNL     1     -27.616  23.239 -19.720  0.00  0.00    +0.026 A 
ENDROOT
BRANCH   4   5
ATOM      5  C   UNL     1     -31.262  23.973 -16.354  0.00  0.00    +0.072 A 
ATOM      6  C   UNL     1     -31.419  24.211 -14.976  0.00  0.00    +0.017 A 
ATOM      7  C   UNL     1     -31.468  25.519 -14.464  0.00  0.00    +0.001 A 
ATOM      8  C   UNL     1     -31.374  26.616 -15.334  0.00  0.00    +0.000 A 
ATOM      9  C   UNL     1     -31.226  26.389 -16.711  0.00  0.00    +0.001 A 
ATOM     10  C   UNL     1     -31.176  25.081 -17.215  0.00  0.00    +0.017 A 
ENDBRANCH   4   5
BRANCH  20  21
ATOM     21  C   UNL     1     -25.642  23.743 -21.224  0.00  0.00    +0.388 C 
ATOM     22  O   UNL     1     -25.739  24.945 -21.006  0.00  0.00    -0.241 OA
ATOM     23  O   UNL     1     -24.622  23.252 -21.935  0.00  0.00    -0.241 OA
ENDBRANCH  20  21
TORSDOF 2
