REMARK  Name = 3OOM
REMARK  5 active torsions:
REMARK  status: ('A' for Active; 'I' for Inactive)
REMARK    1  A    between atoms: C_1  and  C_18
REMARK    2  A    between atoms: N_16  and  C_21
REMARK    3  A    between atoms: N_16  and  C_24
REMARK    4  A    between atoms: C_18  and  C_19
REMARK    5  A    between atoms: C_20  and  C_22
REMARK                            x       y       z     vdW  Elec       q    Type
REMARK                         _______ _______ _______ _____ _____    ______ ____
ROOT
ATOM      6  C   UNL     1       6.606  27.496  16.539  0.00  0.00    +0.265 C 
ATOM      7  N   UNL     1       6.259  27.426  15.179  0.00  0.00    -0.024 NA
ATOM      8  C   UNL     1       6.506  28.709  14.663  0.00  0.00    +0.315 C 
ATOM      9  N   UNL     1       6.969  29.476  15.654  0.00  0.00    -0.300 NA
ATOM     10  H   UNL     1       7.249  30.505  15.566  0.00  0.00    +0.171 HD
ATOM     11  C   UNL     1       6.278  28.954  13.316  0.00  0.00    +0.105 C 
ATOM     12  C   UNL     1       5.787  27.912  12.550  0.00  0.00    +0.058 C 
ATOM     13  C   UNL     1       5.575  26.677  13.160  0.00  0.00    +0.187 C 
ATOM     22  N   UNL     1       5.817  26.518  14.469  0.00  0.00    +0.026 NA
ATOM     23  C   UNL     1       7.026  28.744  16.780  0.00  0.00    +0.170 C 
ENDROOT
BRANCH   6   5
ATOM      3  C   UNL     1       6.894  24.205  18.299  0.00  0.00    +0.018 A 
ATOM      4  C   UNL     1       7.033  25.179  17.309  0.00  0.00    +0.026 A 
ATOM      5  C   UNL     1       6.487  26.452  17.481  0.00  0.00    +0.051 A 
ATOM     24  C   UNL     1       5.808  26.737  18.662  0.00  0.00    +0.015 A 
ATOM     25  C   UNL     1       5.659  25.769  19.653  0.00  0.00    +0.002 A 
ATOM     26  C   UNL     1       6.209  24.509  19.469  0.00  0.00    +0.011 A 
BRANCH   3   2
ATOM      1  C   UNL     1       8.268  22.390  16.918  0.00  0.00    +0.091 C 
ATOM      2  C   UNL     1       7.481  22.784  18.162  0.00  0.00    +0.160 C 
ATOM     27  O   UNL     1       7.315  21.968  19.077  0.00  0.00    -0.292 OA
ENDBRANCH   3   2
ENDBRANCH   6   5
BRANCH  13  14
ATOM     14  N   UNL     1       5.057  25.695  12.411  0.00  0.00    -0.321 NA
ATOM     15  H   UNL     1       4.264  25.988  11.755  0.00  0.00    +0.148 HD
BRANCH  14  16
ATOM     16  C   UNL     1       5.422  24.273  12.361  0.00  0.00    +0.076 C 
ATOM     17  C   UNL     1       6.388  23.854  13.469  0.00  0.00    +0.050 C 
ATOM     18  C   UNL     1       6.442  22.322  13.527  0.00  0.00    +0.161 C 
ATOM     19  O   UNL     1       5.907  21.733  12.330  0.00  0.00    -0.380 OA
ATOM     20  C   UNL     1       4.487  21.949  12.158  0.00  0.00    +0.161 C 
ATOM     21  C   UNL     1       4.140  23.420  12.375  0.00  0.00    +0.050 C 
ENDBRANCH  14  16
ENDBRANCH  13  14
TORSDOF 4
