REMARK  Name = 5HNG
REMARK  3 active torsions:
REMARK  status: ('A' for Active; 'I' for Inactive)
REMARK    1  A    between atoms: C_3  and  C_6
REMARK    2  A    between atoms: C_4  and  O_14
REMARK    3  A    between atoms: C_8  and  O_14
REMARK                            x       y       z     vdW  Elec       q    Type
REMARK                         _______ _______ _______ _____ _____    ______ ____
ROOT
ATOM      1  C   UNL     1      31.429  24.490   5.915  0.00  0.00    +0.093 A 
ATOM      2  C   UNL     1      30.605  23.455   6.354  0.00  0.00    +0.075 A 
ATOM      3  C   UNL     1      31.165  22.279   6.837  0.00  0.00    +0.122 A 
ATOM      6  C   UNL     1      32.566  22.137   6.895  0.00  0.00    +0.048 A 
ATOM      7  C   UNL     1      33.392  23.159   6.475  0.00  0.00    +0.031 A 
ATOM      8  N   UNL     1      31.177  25.743   5.403  0.00  0.00    -0.226 NA
ATOM      9  C   UNL     1      32.384  26.325   5.160  0.00  0.00    +0.157 A 
ATOM     10  N   UNL     1      33.358  25.514   5.499  0.00  0.00    -0.337 N 
ATOM     11  H   UNL     1      34.402  25.730   5.409  0.00  0.00    +0.167 HD
ATOM     18  C   UNL     1      32.834  24.357   5.983  0.00  0.00    +0.067 A 
ENDROOT
BRANCH   9  12
ATOM     12  C   UNL     1      32.532  27.677   4.600  0.00  0.00    +0.101 A 
ATOM     13  N   UNL     1      31.549  28.428   4.157  0.00  0.00    -0.274 N 
ATOM     14  H   UNL     1      30.511  28.168   4.140  0.00  0.00    +0.189 HD
ATOM     15  N   UNL     1      32.112  29.634   3.711  0.00  0.00    -0.182 NA
ATOM     16  C   UNL     1      33.445  29.593   3.907  0.00  0.00    +0.135 A 
ATOM     17  C   UNL     1      33.737  28.390   4.446  0.00  0.00    +0.052 A 
ENDBRANCH   9  12
BRANCH   3   4
ATOM      4  O   UNL     1      30.335  21.300   7.301  0.00  0.00    -0.495 OA
ATOM      5  C   UNL     1      29.785  20.328   6.395  0.00  0.00    +0.277 C 
ENDBRANCH   3   4
TORSDOF 2
