REMARK  Name = 6OCQ
REMARK  2 active torsions:
REMARK  status: ('A' for Active; 'I' for Inactive)
REMARK    1  A    between atoms: C11_3  and  C5_11
REMARK    2  A    between atoms: C15_7  and  C7_13
REMARK                            x       y       z     vdW  Elec       q    Type
REMARK                         _______ _______ _______ _____ _____    ______ ____
ROOT
ATOM      7  C   UNL     1      19.545  -2.595  51.279  0.00  0.00    +0.050 C 
ATOM      8  N   UNL     1      19.584  -3.608  52.282  0.00  0.00    -0.250 N 
ATOM      9  C   UNL     1      20.776  -3.736  52.945  0.00  0.00    +0.600 C 
ATOM     10  O   UNL     1      21.666  -2.907  52.811  0.00  0.00    -0.550 OA
ATOM     15  C   UNL     1      18.761  -4.737  51.963  0.00  0.00    +0.000 C 
ATOM     16  C   UNL     1      17.827  -4.232  50.894  0.00  0.00    -0.100 C 
ATOM     17  C   UNL     1      18.374  -2.916  50.396  0.00  0.00    -0.100 C 
ENDROOT
BRANCH   7   6
ATOM      1  C   UNL     1      20.138   1.032  51.851  0.00  0.00    -0.130 A 
ATOM      2  C   UNL     1      19.200   1.339  52.807  0.00  0.00    -0.130 A 
ATOM      3  C   UNL     1      18.364   0.357  53.284  0.00  0.00    +0.300 A 
ATOM      4  F   UNL     1      17.460   0.703  54.228  0.00  0.00    -0.300 F 
ATOM      5  C   UNL     1      18.452  -0.936  52.806  0.00  0.00    -0.130 A 
ATOM      6  C   UNL     1      19.393  -1.238  51.847  0.00  0.00    +0.000 A 
ATOM     18  C   UNL     1      20.231  -0.257  51.377  0.00  0.00    -0.130 A 
ENDBRANCH   7   6
BRANCH   9  11
ATOM     11  C   UNL     1      20.856  -4.952  53.840  0.00  0.00    +0.000 C 
ATOM     12  C   UNL     1      22.283  -5.298  54.231  0.00  0.00    -0.150 C 
ATOM     13  C   UNL     1      20.007  -4.651  55.042  0.00  0.00    -0.150 C 
ATOM     14  C   UNL     1      20.275  -6.135  53.119  0.00  0.00    -0.150 C 
ENDBRANCH   9  11
TORSDOF 2
