REMARK  Name = 5P9M
REMARK  7 active torsions:
REMARK  status: ('A' for Active; 'I' for Inactive)
REMARK    1  A    between atoms: C_3  and  N_25
REMARK    2  A    between atoms: C_7  and  C_29
REMARK    3  A    between atoms: C_9  and  C_10
REMARK    4  A    between atoms: C_11  and  N_26
REMARK    5  A    between atoms: O_14  and  C_32
REMARK    6  A    between atoms: O_14  and  C_34
REMARK    7  A    between atoms: C_24  and  N_30
REMARK                            x       y       z     vdW  Elec       q    Type
REMARK                         _______ _______ _______ _____ _____    ______ ____
ROOT
ATOM      1  C   UNL     1     -18.784   4.886   0.533  0.00  0.00    +0.225 A 
ATOM      2  N   UNL     1     -19.990   5.396   0.303  0.00  0.00    -0.216 NA
ATOM      3  C   UNL     1     -20.249   5.859  -0.944  0.00  0.00    +0.167 A 
ATOM      4  N   UNL     1     -21.304   6.465  -1.489  0.00  0.00    -0.272 N 
ATOM     15  C   UNL     1     -20.991   6.709  -2.770  0.00  0.00    +0.336 A 
ATOM     16  O   UNL     1     -21.808   7.319  -3.570  0.00  0.00    -0.246 OA
ATOM     17  N   UNL     1     -19.745   6.321  -3.114  0.00  0.00    -0.256 N 
ATOM     31  C   UNL     1     -19.273   5.711  -1.993  0.00  0.00    +0.133 A 
ATOM     32  C   UNL     1     -17.973   5.185  -1.672  0.00  0.00    +0.146 A 
ATOM     36  N   UNL     1     -17.837   4.730  -0.385  0.00  0.00    -0.219 NA
ENDROOT
BRANCH   4   5
ATOM      5  C   UNL     1     -22.493   6.750  -0.670  0.00  0.00    +0.113 C 
ATOM      6  C   UNL     1     -22.568   8.280  -0.422  0.00  0.00    +0.133 C 
ATOM      7  N   UNL     1     -23.718   8.627  -1.222  0.00  0.00    -0.296 N 
ATOM      8  C   UNL     1     -23.781   9.670  -2.091  0.00  0.00    +0.239 C 
ATOM     12  O   UNL     1     -24.694   9.808  -2.890  0.00  0.00    -0.271 OA
ATOM     13  C   UNL     1     -24.789   7.606  -1.109  0.00  0.00    +0.110 C 
ATOM     14  C   UNL     1     -23.862   6.420  -1.248  0.00  0.00    +0.046 C 
BRANCH   8   9
ATOM      9  C   UNL     1     -22.681  10.660  -2.203  0.00  0.00    +0.063 C 
ATOM     10  C   UNL     1     -22.271  11.475  -1.188  0.00  0.00    -0.025 C 
ATOM     11  C   UNL     1     -21.152  12.445  -1.508  0.00  0.00    +0.035 C 
ENDBRANCH   8   9
ENDBRANCH   4   5
BRANCH  17  18
ATOM     18  C   UNL     1     -19.215   6.338  -4.342  0.00  0.00    +0.052 A 
ATOM     19  C   UNL     1     -18.973   7.463  -5.162  0.00  0.00    +0.030 A 
ATOM     20  C   UNL     1     -18.465   7.357  -6.422  0.00  0.00    +0.048 A 
ATOM     21  C   UNL     1     -18.240   6.123  -6.997  0.00  0.00    +0.129 A 
ATOM     22  C   UNL     1     -18.494   4.977  -6.265  0.00  0.00    +0.048 A 
ATOM     30  C   UNL     1     -19.024   5.111  -4.990  0.00  0.00    +0.030 A 
BRANCH  21  23
ATOM     23  O   UNL     1     -17.790   6.059  -8.248  0.00  0.00    -0.456 OA
BRANCH  23  24
ATOM     24  C   UNL     1     -16.693   6.781  -8.714  0.00  0.00    +0.128 A 
ATOM     25  C   UNL     1     -16.722   7.196 -10.018  0.00  0.00    +0.046 A 
ATOM     26  C   UNL     1     -15.676   7.935 -10.587  0.00  0.00    +0.004 A 
ATOM     27  C   UNL     1     -14.582   8.190  -9.813  0.00  0.00    +0.000 A 
ATOM     28  C   UNL     1     -14.540   7.754  -8.495  0.00  0.00    +0.004 A 
ATOM     29  C   UNL     1     -15.600   7.099  -7.923  0.00  0.00    +0.046 A 
ENDBRANCH  23  24
ENDBRANCH  21  23
ENDBRANCH  17  18
BRANCH  32  33
ATOM     33  N   UNL     1     -16.867   5.049  -2.534  0.00  0.00    -0.341 N 
ATOM     34  H   UNL     1     -16.932   5.391  -3.546  0.00  0.00    +0.144 HD
ATOM     35  H   UNL     1     -15.962   4.604  -2.177  0.00  0.00    +0.144 HD
ENDBRANCH  32  33
TORSDOF 6
