REMARK  Name = 3rpy_ligand
REMARK  5 active torsions:
REMARK  status: ('A' for Active; 'I' for Inactive)
REMARK    1  A    between atoms: C1_1  and  C12_10
REMARK    2  A    between atoms: N2_5  and  C13_11
REMARK    3  A    between atoms: S2_7  and  N4_9
REMARK    4  A    between atoms: S2_7  and  C18_16
REMARK    5  A    between atoms: N3_8  and  C15_13
REMARK                            x       y       z     vdW  Elec       q    Type
REMARK                         _______ _______ _______ _____ _____    ______ ____
ROOT
ATOM      6  C   UNL     1      93.625  80.314 -50.316  0.00  0.00    +0.106 A 
ATOM      7  C   UNL     1      93.103  80.997 -51.397  0.00  0.00    +0.084 A 
ATOM     11  N   UNL     1      92.021  81.754 -51.104  0.00  0.00    -0.273 NA
ATOM     12  C   UNL     1      91.699  81.669 -49.814  0.00  0.00    +0.203 A 
ATOM     13  N   UNL     1      90.629  82.381 -49.329  0.00  0.00    -0.233 N 
ATOM     14  H   UNL     1      90.373  83.217 -49.874  0.00  0.00    +0.224 HD
ATOM     27  S   UNL     1      92.724  80.641 -48.896  0.00  0.00    +0.010 S 
ENDROOT
BRANCH  13  15
ATOM     15  C   UNL     1      89.851  82.139 -48.222  0.00  0.00    +0.070 A 
ATOM     16  C   UNL     1      88.778  83.097 -47.937  0.00  0.00    +0.019 A 
ATOM     17  C   UNL     1      87.932  82.910 -46.798  0.00  0.00    +0.016 A 
ATOM     18  C   UNL     1      88.121  81.760 -45.903  0.00  0.00    +0.097 A 
ATOM     19  C   UNL     1      89.182  80.789 -46.162  0.00  0.00    +0.016 A 
ATOM     26  C   UNL     1      90.027  80.968 -47.287  0.00  0.00    +0.019 A 
BRANCH  18  20
ATOM     20  S   UNL     1      87.159  81.562 -44.640  0.00  0.00    +0.061 S 
ATOM     24  O   UNL     1      86.565  83.010 -44.180  0.00  0.00    -0.152 OA
ATOM     25  O   UNL     1      85.970  80.600 -45.107  0.00  0.00    -0.152 OA
BRANCH  20  21
ATOM     21  N   UNL     1      87.922  80.869 -43.473  0.00  0.00    -0.262 NA
ATOM     22  H   UNL     1      87.994  81.321 -42.584  0.00  0.00    +0.163 HD
ATOM     23  H   UNL     1      88.340  79.972 -43.612  0.00  0.00    +0.163 HD
ENDBRANCH  20  21
ENDBRANCH  18  20
ENDBRANCH  13  15
BRANCH   6   1
ATOM      1  C   UNL     1      94.810  79.409 -50.350  0.00  0.00    +0.173 C 
ATOM      2  N   UNL     1      95.151  78.824 -49.201  0.00  0.00    -0.309 N 
ATOM      3  H   UNL     1      94.620  79.002 -48.373  0.00  0.00    +0.178 HD
ATOM      4  H   UNL     1      95.938  78.208 -49.168  0.00  0.00    +0.178 HD
ATOM      5  O   UNL     1      95.434  79.211 -51.400  0.00  0.00    -0.415 OA
ENDBRANCH   6   1
BRANCH   7   8
ATOM      8  N   UNL     1      93.594  80.937 -52.647  0.00  0.00    -0.333 N 
ATOM      9  H   UNL     1      93.145  81.474 -53.403  0.00  0.00    +0.174 HD
ATOM     10  H   UNL     1      94.419  80.354 -52.849  0.00  0.00    +0.174 HD
ENDBRANCH   7   8
TORSDOF 5
