REMARK  Name = 4G6O
REMARK  8 active torsions:
REMARK  status: ('A' for Active; 'I' for Inactive)
REMARK    1  A    between atoms: C_2  and  C_14
REMARK    2  A    between atoms: N_3  and  C_4
REMARK    3  A    between atoms: C_4  and  C_5
REMARK    4  A    between atoms: C_18  and  C_19
REMARK    5  A    between atoms: C_23  and  C_24
REMARK    6  A    between atoms: C_28  and  C_29
REMARK    7  A    between atoms: C_29  and  N_30
REMARK    8  A    between atoms: C_31  and  C_32
REMARK                            x       y       z     vdW  Elec       q    Type
REMARK                         _______ _______ _______ _____ _____    ______ ____
ROOT
ATOM      3  C   UNL     1      16.703   4.346  16.970  0.00  0.00    +0.102 A 
ATOM      4  N   UNL     1      17.352   3.571  17.903  0.00  0.00    -0.356 N 
ATOM      5  H   UNL     1      16.934   3.127  18.710  0.00  0.00    +0.166 HD
ATOM      6  C   UNL     1      18.674   3.537  17.609  0.00  0.00    +0.093 A 
ATOM      7  C   UNL     1      18.886   4.289  16.470  0.00  0.00    +0.018 A 
ATOM     28  C   UNL     1      17.619   4.797  16.052  0.00  0.00    +0.042 A 
ENDROOT
BRANCH   7   8
ATOM      8  C   UNL     1      20.150   4.523  15.883  0.00  0.00    +0.075 A 
ATOM      9  C   UNL     1      20.690   5.604  15.144  0.00  0.00    +0.027 A 
ATOM     24  C   UNL     1      22.031   5.236  14.945  0.00  0.00    +0.143 A 
ATOM     25  N   UNL     1      22.310   4.051  15.476  0.00  0.00    -0.181 NA
ATOM     26  N   UNL     1      21.140   3.615  16.043  0.00  0.00    -0.276 N 
ATOM     27  H   UNL     1      21.106   2.708  16.498  0.00  0.00    +0.189 HD
BRANCH   9  10
ATOM     10  C   UNL     1      20.060   6.837  14.602  0.00  0.00    -0.014 A 
ATOM     11  C   UNL     1      20.367   7.288  13.326  0.00  0.00    +0.009 A 
ATOM     12  C   UNL     1      19.786   8.439  12.831  0.00  0.00    +0.006 A 
ATOM     13  C   UNL     1      18.865   9.169  13.586  0.00  0.00    -0.022 A 
ATOM     14  C   UNL     1      18.533   8.713  14.870  0.00  0.00    +0.060 A 
ATOM     23  C   UNL     1      19.151   7.565  15.370  0.00  0.00    +0.021 A 
BRANCH  14  15
ATOM     15  C   UNL     1      17.528   9.384  15.783  0.00  0.00    +0.418 C 
ATOM     16  F   UNL     1      16.467   9.838  15.141  0.00  0.00    -0.166 F 
ATOM     17  F   UNL     1      17.016   8.559  16.696  0.00  0.00    -0.166 F 
ATOM     18  F   UNL     1      18.045  10.416  16.435  0.00  0.00    -0.166 F 
ENDBRANCH  14  15
BRANCH  13  19
ATOM     19  C   UNL     1      18.377  10.380  12.916  0.00  0.00    +0.113 C 
BRANCH  19  20
ATOM     20  N   UNL     1      19.433  11.407  13.111  0.00  0.00    -0.326 NA
ATOM     21  H   UNL     1      19.138  12.304  12.737  0.00  0.00    +0.118 HD
ATOM     22  H   UNL     1      20.361  11.246  12.735  0.00  0.00    +0.118 HD
ENDBRANCH  19  20
ENDBRANCH  13  19
ENDBRANCH   9  10
ENDBRANCH   7   8
BRANCH   3   2
ATOM      1  O   UNL     1      14.592   4.033  17.983  0.00  0.00    -0.269 OA
ATOM      2  C   UNL     1      15.265   4.640  17.146  0.00  0.00    +0.261 C 
ATOM     29  N   UNL     1      14.742   5.558  16.329  0.00  0.00    -0.306 N 
ATOM     30  H   UNL     1      15.292   6.152  15.718  0.00  0.00    +0.149 HD
BRANCH  29  31
ATOM     31  C   UNL     1      13.311   5.811  16.254  0.00  0.00    +0.140 C 
BRANCH  31  32
ATOM     32  C   UNL     1      12.793   6.692  17.360  0.00  0.00    -0.030 A 
ATOM     33  C   UNL     1      13.584   7.700  17.904  0.00  0.00    +0.012 A 
ATOM     34  C   UNL     1      13.118   8.483  18.947  0.00  0.00    -0.002 A 
ATOM     35  C   UNL     1      13.832   9.550  19.730  0.00  0.00    +0.080 C 
ATOM     36  C   UNL     1      12.719  10.015  20.662  0.00  0.00    +0.234 C 
ATOM     37  O   UNL     1      11.553   9.182  20.420  0.00  0.00    -0.491 OA
ATOM     38  C   UNL     1      11.840   8.277  19.426  0.00  0.00    +0.124 A 
ATOM     39  C   UNL     1      11.017   7.295  18.903  0.00  0.00    +0.046 A 
ATOM     40  C   UNL     1      11.510   6.503  17.877  0.00  0.00    +0.009 A 
ENDBRANCH  31  32
ENDBRANCH  29  31
ENDBRANCH   3   2
TORSDOF 8
