REMARK  Name = B7W
REMARK  2 active torsions:
REMARK  status: ('A' for Active; 'I' for Inactive)
REMARK    1  A    between atoms: CAD_7  and  CAH_8
REMARK    2  A    between atoms: CAN_16  and  CAQ_17
REMARK                            x       y       z     vdW  Elec       q    Type
REMARK                         _______ _______ _______ _____ _____    ______ ____
ROOT
ATOM      3  C   UNL     1       5.486  30.053   9.633  0.00  0.00    +0.031 C 
ATOM      4  C   UNL     1       5.625  29.124  10.672  0.00  0.00    +0.008 C 
ATOM      5  C   UNL     1       6.823  28.585  10.971  0.00  0.00    +0.091 C 
ATOM      6  C   UNL     1       7.224  27.701  11.891  0.00  0.00    +0.056 C 
ATOM     13  C   UNL     1       8.530  27.493  11.773  0.00  0.00    +0.236 C 
ATOM     14  N   UNL     1       8.961  28.252  10.773  0.00  0.00    -0.031 NA
ATOM     15  C   UNL     1       7.923  28.922  10.279  0.00  0.00    +0.371 C 
ATOM     16  N   UNL     1       7.860  29.805   9.271  0.00  0.00    -0.055 NA
ATOM     17  C   UNL     1       6.634  30.387   8.919  0.00  0.00    +0.290 C 
ENDROOT
BRANCH   3   2
ATOM      1  C   UNL     1       4.116  31.977   8.987  0.00  0.00    +0.018 A 
ATOM      2  C   UNL     1       4.246  30.614   9.288  0.00  0.00    +0.002 A 
ATOM     18  C   UNL     1       3.109  29.798   9.206  0.00  0.00    -0.000 A 
ATOM     19  C   UNL     1       1.867  30.328   8.853  0.00  0.00    +0.001 A 
ATOM     20  C   UNL     1       1.749  31.686   8.562  0.00  0.00    +0.018 A 
ATOM     21  C   UNL     1       2.874  32.508   8.627  0.00  0.00    +0.089 A 
ATOM     22  N   UNL     1       2.760  33.802   8.347  0.00  0.00    -0.128 NA
ENDBRANCH   3   2
BRANCH   6   7
ATOM      7  C   UNL     1       6.467  27.092  12.809  0.00  0.00    +0.023 A 
ATOM      8  C   UNL     1       6.834  27.129  14.156  0.00  0.00    +0.099 A 
ATOM      9  N   UNL     1       6.038  26.480  15.119  0.00  0.00    -0.242 NA
ATOM     10  C   UNL     1       4.874  25.793  14.728  0.00  0.00    +0.099 A 
ATOM     11  C   UNL     1       4.518  25.759  13.384  0.00  0.00    +0.021 A 
ATOM     12  C   UNL     1       5.314  26.400  12.436  0.00  0.00    +0.003 A 
ENDBRANCH   6   7
TORSDOF 2
