REMARK  Name = 3o2m_ligand
REMARK  10 active torsions:
REMARK  status: ('A' for Active; 'I' for Inactive)
REMARK    1  A    between atoms: C5_2  and  C6_3
REMARK    2  A    between atoms: C5_2  and  N_14
REMARK    3  A    between atoms: C17_9  and  C18_20
REMARK    4  A    between atoms: C_11  and  C2_12
REMARK    5  A    between atoms: C_11  and  C31_31
REMARK    6  A    between atoms: C2_12  and  C3_13
REMARK    7  A    between atoms: C3_13  and  N_14
REMARK    8  A    between atoms: C9_15  and  C12_17
REMARK    9  A    between atoms: C23_25  and  C30_30
REMARK   10  A    between atoms: C27_28  and  C29_29
REMARK                            x       y       z     vdW  Elec       q    Type
REMARK                         _______ _______ _______ _____ _____    ______ ____
ROOT
ATOM     13  C   UNL     1      37.373  81.494  45.175  0.00  0.00    -0.019 A 
ATOM     14  C   UNL     1      38.515  81.673  44.355  0.00  0.00    -0.001 A 
ATOM     15  C   UNL     1      38.605  80.991  43.109  0.00  0.00    +0.001 A 
ATOM     16  C   UNL     1      37.575  80.134  42.671  0.00  0.00    -0.024 A 
ATOM     29  C   UNL     1      36.455  79.966  43.491  0.00  0.00    +0.001 A 
ATOM     30  C   UNL     1      36.350  80.636  44.723  0.00  0.00    -0.001 A 
ENDROOT
BRANCH  16  17
ATOM     17  C   UNL     1      37.666  79.370  41.357  0.00  0.00    -0.012 A 
ATOM     18  C   UNL     1      36.642  79.409  40.219  0.00  0.00    +0.016 A 
ATOM     25  C   UNL     1      36.857  78.631  39.077  0.00  0.00    +0.010 A 
ATOM     26  C   UNL     1      38.002  77.813  38.967  0.00  0.00    -0.001 A 
ATOM     27  C   UNL     1      38.941  77.782  40.018  0.00  0.00    -0.001 A 
ATOM     28  C   UNL     1      38.756  78.552  41.186  0.00  0.00    +0.006 A 
BRANCH  18  19
ATOM     19  C   UNL     1      35.415  80.222  40.252  0.00  0.00    +0.148 A 
ATOM     20  N   UNL     1      35.280  81.531  40.597  0.00  0.00    -0.144 NA
ATOM     21  N   UNL     1      33.970  81.861  40.504  0.00  0.00    -0.104 N 
ATOM     22  H   UNL     1      33.560  82.774  40.701  0.00  0.00    +0.294 HD
ATOM     23  N   UNL     1      33.297  80.733  40.094  0.00  0.00    -0.052 NA
ATOM     24  N   UNL     1      34.201  79.738  39.944  0.00  0.00    -0.176 NA
ENDBRANCH  18  19
ENDBRANCH  16  17
BRANCH  13  12
ATOM     12  C   UNL     1      37.145  82.146  46.529  0.00  0.00    +0.206 C 
BRANCH  12   7
ATOM      1  N   UNL     1      37.953  84.736  46.190  0.00  0.00    -0.265 NA
ATOM      2  C   UNL     1      38.658  84.001  47.096  0.00  0.00    +0.177 A 
ATOM      3  N   UNL     1      39.706  84.499  47.811  0.00  0.00    -0.265 NA
ATOM      4  C   UNL     1      40.068  85.790  47.636  0.00  0.00    +0.019 A 
ATOM      5  C   UNL     1      41.218  86.301  48.451  0.00  0.00    +0.117 C 
ATOM      6  C   UNL     1      39.383  86.619  46.716  0.00  0.00    +0.030 A 
ATOM      7  N   UNL     1      38.277  82.693  47.274  0.00  0.00    -0.267 N 
ATOM     31  C   UNL     1      38.305  86.028  46.002  0.00  0.00    +0.019 A 
ATOM     32  C   UNL     1      37.511  86.818  45.002  0.00  0.00    +0.117 C 
BRANCH   7   8
ATOM      8  C   UNL     1      38.961  81.785  48.226  0.00  0.00    +0.141 C 
BRANCH   8   9
ATOM      9  C   UNL     1      38.573  82.062  49.685  0.00  0.00    +0.025 C 
BRANCH   9  10
ATOM     10  C   UNL     1      37.990  80.788  50.260  0.00  0.00    -0.001 C 
ATOM     11  C   UNL     1      37.664  80.827  51.755  0.00  0.00    +0.004 C 
ENDBRANCH   9  10
ENDBRANCH   8   9
ENDBRANCH   7   8
ENDBRANCH  12   7
ENDBRANCH  13  12
TORSDOF 7
