REMARK  Name = 2xp8_ligand
REMARK  3 active torsions:
REMARK  status: ('A' for Active; 'I' for Inactive)
REMARK    1  A    between atoms: C12_7  and  C9_8
REMARK    2  A    between atoms: C7_11  and  C20_12
REMARK    3  A    between atoms: C11_15  and  C18_16
REMARK                            x       y       z     vdW  Elec       q    Type
REMARK                         _______ _______ _______ _____ _____    ______ ____
ROOT
ATOM      3  C   UNL     1     -34.902  25.988  24.382  0.00  0.00    +0.144 A 
ATOM      4  N   UNL     1     -35.855  26.100  23.425  0.00  0.00    -0.242 N 
ATOM      5  H   UNL     1     -35.901  25.588  22.544  0.00  0.00    +0.242 HD
ATOM      6  CA  UNL     1     -36.716  27.009  23.863  0.00  0.00    +0.134 A 
ATOM      7  C   UNL     1     -36.263  27.462  25.097  0.00  0.00    +0.111 A 
ATOM     19  N   UNL     1     -35.135  26.823  25.373  0.00  0.00    -0.297 NA
ENDROOT
BRANCH   7   8
ATOM      8  C   UNL     1     -36.831  28.509  26.089  0.00  0.00    +0.202 C 
ATOM      9  N   UNL     1     -36.026  29.551  26.414  0.00  0.00    -0.271 N 
ATOM     10  C   UNL     1     -36.396  30.515  27.470  0.00  0.00    +0.165 C 
ATOM     11  C   UNL     1     -35.369  30.290  28.616  0.00  0.00    +0.184 C 
ATOM     12  O   UNL     1     -34.368  29.222  28.278  0.00  0.00    -0.376 OA
ATOM     13  C   UNL     1     -33.623  29.483  27.016  0.00  0.00    +0.184 C 
ATOM     14  C   UNL     1     -34.637  29.687  25.862  0.00  0.00    +0.165 C 
ATOM     15  O   UNL     1     -37.941  28.375  26.622  0.00  0.00    -0.394 OA
ENDBRANCH   7   8
BRANCH   3   2
ATOM      1  C   UNL     1     -33.144  24.996  23.116  0.00  0.00    +0.017 A 
ATOM      2  C   UNL     1     -33.742  25.236  24.362  0.00  0.00    +0.029 A 
ATOM     20  C   UNL     1     -33.121  24.843  25.533  0.00  0.00    +0.017 A 
ATOM     21  C   UNL     1     -31.919  24.153  25.423  0.00  0.00    +0.003 A 
ATOM     22  C   UNL     1     -31.341  23.865  24.177  0.00  0.00    +0.003 A 
ATOM     23  C   UNL     1     -31.950  24.285  23.009  0.00  0.00    +0.003 A 
ENDBRANCH   3   2
BRANCH   6  16
ATOM     16  C   UNL     1     -37.946  27.471  23.090  0.00  0.00    +0.094 C 
ATOM     17  OXT UNL     1     -38.835  28.145  23.623  0.00  0.00    -0.558 OA
ATOM     18  O   UNL     1     -37.982  27.257  21.875  0.00  0.00    -0.558 OA
ENDBRANCH   6  16
TORSDOF 3
