REMARK  Name = 4WNO
REMARK  4 active torsions:
REMARK  status: ('A' for Active; 'I' for Inactive)
REMARK    1  A    between atoms: C_4  and  C_25
REMARK    2  A    between atoms: N_7  and  C_8
REMARK    3  A    between atoms: C_13  and  N_14
REMARK    4  A    between atoms: N_21  and  C_22
REMARK                            x       y       z     vdW  Elec       q    Type
REMARK                         _______ _______ _______ _____ _____    ______ ____
ROOT
ATOM      1  C   UNL     1      -2.702 -40.698 -18.839  0.00  0.00    +0.016 A 
ATOM      2  C   UNL     1      -1.524 -40.544 -19.596  0.00  0.00    +0.001 A 
ATOM      3  C   UNL     1      -0.669 -39.453 -19.346  0.00  0.00    +0.002 A 
ATOM      4  C   UNL     1      -0.981 -38.533 -18.340  0.00  0.00    +0.028 A 
ATOM      5  C   UNL     1      -2.196 -38.691 -17.580  0.00  0.00    +0.080 A 
ATOM      6  N   UNL     1      -2.527 -37.796 -16.594  0.00  0.00    -0.214 NA
ATOM      7  C   UNL     1      -3.632 -37.941 -15.865  0.00  0.00    +0.223 A 
ATOM      8  N   UNL     1      -4.492 -38.941 -16.044  0.00  0.00    -0.176 NA
ATOM      9  C   UNL     1      -4.225 -39.844 -16.998  0.00  0.00    +0.225 A 
ATOM     10  N   UNL     1      -5.097 -40.919 -17.250  0.00  0.00    -0.188 N 
ATOM     11  H   UNL     1      -4.919 -41.452 -17.977  0.00  0.00    +0.300 HD
ATOM     22  N   UNL     1      -3.855 -36.951 -14.870  0.00  0.00    -0.283 N 
ATOM     23  H   UNL     1      -3.359 -36.178 -14.897  0.00  0.00    +0.155 HD
ATOM     33  C   UNL     1      -3.038 -39.757 -17.826  0.00  0.00    +0.065 A 
ENDROOT
BRANCH  10  12
ATOM     12  C   UNL     1      -6.240 -41.241 -16.455  0.00  0.00    +0.277 C 
ATOM     13  N   UNL     1      -7.064 -42.212 -16.896  0.00  0.00    -0.160 N 
ATOM     14  H   UNL     1      -6.958 -42.784 -17.794  0.00  0.00    +0.318 HD
ATOM     15  N   UNL     1      -8.054 -42.321 -15.975  0.00  0.00    -0.157 NA
ATOM     16  H   UNL     1      -8.746 -42.920 -16.052  0.00  0.00    +0.170 HD
ATOM     17  C   UNL     1      -7.929 -41.465 -14.937  0.00  0.00    +0.109 C 
ATOM     21  C   UNL     1      -6.751 -40.761 -15.220  0.00  0.00    +0.095 C 
BRANCH  17  18
ATOM     18  C   UNL     1      -9.061 -41.584 -13.843  0.00  0.00    +0.019 C 
ATOM     19  C   UNL     1      -8.354 -40.721 -12.786  0.00  0.00    +0.006 C 
ATOM     20  C   UNL     1      -9.317 -40.089 -13.755  0.00  0.00    +0.006 C 
ENDBRANCH  17  18
ENDBRANCH  10  12
BRANCH  22  24
ATOM     24  C   UNL     1      -4.819 -37.111 -13.830  0.00  0.00    +0.034 A 
ATOM     25  C   UNL     1      -6.147 -36.822 -14.098  0.00  0.00    +0.025 A 
ATOM     26  C   UNL     1      -7.089 -36.949 -13.074  0.00  0.00    +0.024 A 
ATOM     27  C   UNL     1      -6.679 -37.338 -11.811  0.00  0.00    +0.025 A 
ATOM     28  C   UNL     1      -5.338 -37.604 -11.537  0.00  0.00    +0.024 A 
ATOM     32  C   UNL     1      -4.393 -37.481 -12.558  0.00  0.00    +0.025 A 
BRANCH  27  29
ATOM     29  N   UNL     1      -7.653 -37.452 -10.768  0.00  0.00    -0.358 N 
ATOM     30  H   UNL     1      -7.485 -37.091  -9.942  0.00  0.00    +0.142 HD
ATOM     31  H   UNL     1      -8.446 -37.888 -10.925  0.00  0.00    +0.142 HD
ENDBRANCH  27  29
ENDBRANCH  22  24
TORSDOF 4
