REMARK  Name = 4ZTQ
REMARK  9 active torsions:
REMARK  status: ('A' for Active; 'I' for Inactive)
REMARK    1  A    between atoms: N_3  and  C_4
REMARK    2  A    between atoms: C_4  and  C_5
REMARK    3  A    between atoms: C_5  and  O_6
REMARK    4  A    between atoms: O_6  and  C_7
REMARK    5  A    between atoms: C_10  and  C_11
REMARK    6  A    between atoms: C_11  and  C_12
REMARK    7  A    between atoms: N_18  and  C_19
REMARK    8  A    between atoms: C_22  and  C_23
REMARK    9  A    between atoms: C_23  and  C_24
REMARK                            x       y       z     vdW  Elec       q    Type
REMARK                         _______ _______ _______ _____ _____    ______ ____
ROOT
ATOM      1  O   UNL     1       4.313 -28.257  -2.856  0.00  0.00    -0.274 OA
ATOM      2  C   UNL     1       4.714 -27.976  -3.972  0.00  0.00    +0.240 C 
ATOM      3  C   UNL     1       4.122 -28.493  -5.309  0.00  0.00    +0.128 C 
ATOM     11  S   UNL     1       4.986 -27.849  -6.505  0.00  0.00    -0.071 S 
ATOM     12  C   UNL     1       6.126 -26.916  -5.807  0.00  0.00    +0.164 C 
ATOM     13  N   UNL     1       7.067 -26.193  -6.396  0.00  0.00    -0.226 NA
ATOM     22  N   UNL     1       5.965 -27.000  -4.291  0.00  0.00    -0.247 N 
ENDROOT
BRANCH  13  14
ATOM     14  C   UNL     1       7.221 -26.105  -7.830  0.00  0.00    +0.067 A 
ATOM     15  C   UNL     1       8.264 -26.809  -8.453  0.00  0.00    +0.028 A 
ATOM     16  C   UNL     1       8.442 -26.721  -9.845  0.00  0.00    +0.006 A 
ATOM     17  C   UNL     1       7.595 -25.926 -10.597  0.00  0.00    -0.048 A 
ATOM     20  C   UNL     1       6.550 -25.202  -9.968  0.00  0.00    +0.006 A 
ATOM     21  C   UNL     1       6.366 -25.292  -8.571  0.00  0.00    +0.028 A 
BRANCH  17  18
ATOM     18  C   UNL     1       7.813 -25.850 -12.144  0.00  0.00    +0.032 C 
ATOM     19  C   UNL     1       7.892 -24.396 -12.660  0.00  0.00    +0.009 C 
ENDBRANCH  17  18
ENDBRANCH  13  14
BRANCH   3   4
ATOM      4  C   UNL     1       3.048 -29.331  -5.306  0.00  0.00    +0.064 C 
BRANCH   4   5
ATOM      5  C   UNL     1       2.437 -30.141  -6.442  0.00  0.00    -0.043 A 
ATOM      6  C   UNL     1       2.557 -29.798  -7.795  0.00  0.00    +0.023 A 
ATOM      7  C   UNL     1       1.966 -30.602  -8.769  0.00  0.00    +0.111 A 
ATOM      8  N   UNL     1       1.270 -31.680  -8.422  0.00  0.00    -0.263 NA
ATOM      9  C   UNL     1       1.111 -32.043  -7.164  0.00  0.00    +0.111 A 
ATOM     10  C   UNL     1       1.678 -31.298  -6.138  0.00  0.00    +0.023 A 
ENDBRANCH   4   5
ENDBRANCH   3   4
BRANCH  22  23
ATOM     23  C   UNL     1       6.745 -26.344  -3.311  0.00  0.00    +0.143 C 
BRANCH  23  24
ATOM     24  C   UNL     1       5.912 -25.143  -2.774  0.00  0.00    +0.178 C 
BRANCH  24  25
ATOM     25  O   UNL     1       6.090 -24.015  -3.663  0.00  0.00    -0.381 OA
ATOM     26  C   UNL     1       7.260 -23.208  -3.352  0.00  0.00    +0.193 C 
ENDBRANCH  24  25
ENDBRANCH  23  24
ENDBRANCH  22  23
TORSDOF 7
