REMARK  Name = 2x8i_ligand
REMARK  3 active torsions:
REMARK  status: ('A' for Active; 'I' for Inactive)
REMARK    1  A    between atoms: C13_8  and  C16_9
REMARK    2  A    between atoms: C20_12  and  O22_22
REMARK    3  A    between atoms: C2_14  and  C1_17
REMARK                            x       y       z     vdW  Elec       q    Type
REMARK                         _______ _______ _______ _____ _____    ______ ____
ROOT
ATOM      8  C   UNL     1       4.495  -4.713  39.691  0.00  0.00    +0.045 A 
ATOM      9  C   UNL     1       3.371  -3.922  39.543  0.00  0.00    +0.129 A 
ATOM     10  C   UNL     1       3.047  -2.955  40.477  0.00  0.00    +0.067 A 
ATOM     11  C   UNL     1       1.868  -2.104  40.324  0.00  0.00    +0.017 A 
ATOM     12  C   UNL     1       0.985  -2.318  39.144  0.00  0.00    +0.150 C 
ATOM     13  C   UNL     1       1.594  -1.157  41.230  0.00  0.00    +0.096 A 
ATOM     14  C   UNL     1       2.521  -1.013  42.364  0.00  0.00    +0.178 A 
ATOM     15  N   UNL     1       3.531  -1.788  42.502  0.00  0.00    -0.213 N 
ATOM     16  C   UNL     1       4.233  -1.309  43.786  0.00  0.00    +0.303 A 
ATOM     17  O   UNL     1       5.247  -1.832  44.228  0.00  0.00    -0.355 OA
ATOM     18  N   UNL     1       3.445  -0.275  44.191  0.00  0.00    -0.161 N 
ATOM     19  H   UNL     1       3.600   0.285  45.005  0.00  0.00    +0.221 HD
ATOM     20  N   UNL     1       2.406  -0.120  43.310  0.00  0.00    -0.181 N 
ATOM     21  H   UNL     1       1.658   0.585  43.382  0.00  0.00    +0.228 HD
ATOM     22  C   UNL     1       3.861  -2.787  41.573  0.00  0.00    +0.094 A 
ATOM     23  C   UNL     1       4.981  -3.566  41.739  0.00  0.00    +0.092 A 
ATOM     24  C   UNL     1       5.290  -4.521  40.799  0.00  0.00    +0.069 A 
ENDROOT
BRANCH   8   7
ATOM      1  C   UNL     1       5.750  -7.868  38.125  0.00  0.00    +0.019 A 
ATOM      2  C   UNL     1       5.570  -7.610  36.785  0.00  0.00    +0.062 A 
ATOM      3  C   UNL     1       5.039  -6.397  36.414  0.00  0.00    +0.108 A 
ATOM      6  C   UNL     1       4.689  -5.451  37.354  0.00  0.00    +0.059 A 
ATOM      7  C   UNL     1       4.863  -5.708  38.700  0.00  0.00    +0.018 A 
ATOM     25  C   UNL     1       5.403  -6.926  39.069  0.00  0.00    +0.031 A 
BRANCH   3   4
ATOM      4  O   UNL     1       4.853  -6.126  35.075  0.00  0.00    -0.327 OA
ATOM      5  H   UNL     1       5.140  -6.870  34.560  0.00  0.00    +0.250 HD
ENDBRANCH   3   4
ENDBRANCH   8   7
TORSDOF 2
