REMARK  Name = 4EKL
REMARK  10 active torsions:
REMARK  status: ('A' for Active; 'I' for Inactive)
REMARK    1  A    between atoms: C_6  and  N_10
REMARK    2  A    between atoms: C_7  and  O_12
REMARK    3  A    between atoms: C_9  and  C_11
REMARK    4  A    between atoms: C_18  and  C_19
REMARK    5  A    between atoms: C_19  and  C_21
REMARK    6  A    between atoms: C_19  and  C_22
REMARK    7  A    between atoms: C_22  and  N_23
REMARK    8  A    between atoms: N_23  and  C_30
REMARK    9  A    between atoms: C_30  and  C_31
REMARK   10  A    between atoms: C_30  and  C_32
REMARK                            x       y       z     vdW  Elec       q    Type
REMARK                         _______ _______ _______ _____ _____    ______ ____
ROOT
ATOM      3  N   UNL     1      27.142   6.168   9.441  0.00  0.00    -0.312 N 
ATOM      4  C   UNL     1      27.291   5.092  10.476  0.00  0.00    +0.125 C 
ATOM      5  C   UNL     1      27.496   5.799  11.807  0.00  0.00    +0.127 C 
ATOM      6  N   UNL     1      28.746   6.555  11.718  0.00  0.00    -0.298 N 
ATOM      7  C   UNL     1      29.890   6.238  12.393  0.00  0.00    +0.224 C 
ATOM      8  O   UNL     1      30.942   6.867  12.248  0.00  0.00    -0.275 OA
ATOM     23  C   UNL     1      28.642   7.669  10.719  0.00  0.00    +0.127 C 
ATOM     24  C   UNL     1      28.295   7.094   9.359  0.00  0.00    +0.125 C 
ENDROOT
BRANCH   3   2
ATOM      1  N   UNL     1      26.147   7.589   8.015  0.00  0.00    -0.221 NA
ATOM      2  C   UNL     1      26.040   6.414   8.662  0.00  0.00    +0.128 A 
ATOM     25  C   UNL     1      24.866   5.629   8.441  0.00  0.00    +0.019 A 
ATOM     26  C   UNL     1      24.476   4.258   9.014  0.00  0.00    +0.024 C 
ATOM     27  C   UNL     1      25.310   3.123   8.306  0.00  0.00    +0.013 C 
ATOM     28  C   UNL     1      22.961   4.154   8.590  0.00  0.00    +0.045 C 
ATOM     29  C   UNL     1      22.730   5.136   7.410  0.00  0.00    +0.164 C 
ATOM     32  C   UNL     1      23.901   6.092   7.563  0.00  0.00    +0.078 A 
ATOM     33  N   UNL     1      24.021   7.297   6.959  0.00  0.00    -0.237 NA
ATOM     34  C   UNL     1      25.160   7.979   7.171  0.00  0.00    +0.223 A 
BRANCH  29  30
ATOM     30  O   UNL     1      21.493   5.814   7.439  0.00  0.00    -0.386 OA
ATOM     31  H   UNL     1      21.390   6.317   8.355  0.00  0.00    +0.210 HD
ENDBRANCH  29  30
ENDBRANCH   3   2
BRANCH   7   9
ATOM      9  C   UNL     1      29.950   4.986  13.293  0.00  0.00    +0.119 C 
BRANCH   9  16
ATOM     16  C   UNL     1      30.159   3.747  12.460  0.00  0.00    -0.034 A 
ATOM     17  C   UNL     1      31.172   3.759  11.462  0.00  0.00    +0.006 A 
ATOM     18  C   UNL     1      31.393   2.608  10.703  0.00  0.00    +0.020 A 
ATOM     19  C   UNL     1      30.602   1.475  10.955  0.00  0.00    +0.041 A 
ATOM     20 CL   UNL     1      30.900   0.075  10.003  0.00  0.00    -0.084 Cl
ATOM     21  C   UNL     1      29.595   1.461  11.950  0.00  0.00    +0.020 A 
ATOM     22  C   UNL     1      29.369   2.618  12.726  0.00  0.00    +0.006 A 
ENDBRANCH   9  16
BRANCH   9  10
ATOM     10  C   UNL     1      31.095   5.064  14.339  0.00  0.00    +0.098 C 
BRANCH  10  11
ATOM     11  N   UNL     1      30.855   6.221  15.238  0.00  0.00    -0.313 NA
ATOM     12  H   UNL     1      30.116   5.923  15.952  0.00  0.00    +0.122 HD
BRANCH  11  13
ATOM     13  C   UNL     1      32.011   6.756  15.995  0.00  0.00    +0.048 C 
ATOM     14  C   UNL     1      32.904   5.617  16.574  0.00  0.00    +0.024 C 
ATOM     15  C   UNL     1      31.468   7.729  17.090  0.00  0.00    +0.024 C 
ENDBRANCH  11  13
ENDBRANCH  10  11
ENDBRANCH   9  10
ENDBRANCH   7   9
TORSDOF 7
