REMARK  Name = 3r2b_ligand
REMARK  2 active torsions:
REMARK  status: ('A' for Active; 'I' for Inactive)
REMARK    1  A    between atoms: C14_14  and  C16_16
REMARK    2  A    between atoms: C20_20  and  C22_22
REMARK                            x       y       z     vdW  Elec       q    Type
REMARK                         _______ _______ _______ _____ _____    ______ ____
ROOT
ATOM      1  C   UNL     1      -8.936 -52.470  10.667  0.00  0.00    -0.018 C 
ATOM      2  C   UNL     1      -7.638 -52.932  11.288  0.00  0.00    +0.041 A 
ATOM      3  N   UNL     1      -7.036 -54.114  11.175  0.00  0.00    -0.251 N 
ATOM      4  H   UNL     1      -7.387 -54.901  10.629  0.00  0.00    +0.246 HD
ATOM      5  C   UNL     1      -5.870 -54.116  11.904  0.00  0.00    +0.142 A 
ATOM     21  C   UNL     1      -5.730 -52.898  12.497  0.00  0.00    +0.084 A 
ATOM     22  C   UNL     1      -6.846 -52.140  12.117  0.00  0.00    +0.084 A 
ATOM     23  C   UNL     1      -7.227 -50.760  12.442  0.00  0.00    +0.219 C 
ATOM     24  O   UNL     1      -6.551 -50.082  13.192  0.00  0.00    -0.375 OA
ATOM     25  N   UNL     1      -8.365 -50.277  11.893  0.00  0.00    -0.298 N 
ATOM     26  H   UNL     1      -8.583 -49.296  12.067  0.00  0.00    +0.183 HD
ATOM     27  C   UNL     1      -8.761 -52.581   9.140  0.00  0.00    -0.019 C 
ATOM     28  C   UNL     1     -10.085 -52.431   8.373  0.00  0.00    +0.114 C 
ATOM     29  N   UNL     1     -11.080 -53.339   8.935  0.00  0.00    +0.225 N 
ATOM     30  H   UNL     1     -11.962 -53.069   8.500  0.00  0.00    +0.201 HD
ATOM     31  H   UNL     1     -10.716 -54.275   8.759  0.00  0.00    +0.201 HD
ATOM     32  C   UNL     1     -11.334 -53.293  10.372  0.00  0.00    +0.114 C 
ATOM     33  C   UNL     1     -10.018 -53.457  11.142  0.00  0.00    -0.019 C 
ATOM     34  C   UNL     1      -9.309 -51.031  11.075  0.00  0.00    +0.064 C 
ENDROOT
BRANCH   5   6
ATOM      6  C   UNL     1      -4.953 -55.266  12.001  0.00  0.00    +0.120 A 
ATOM      7  N   UNL     1      -4.929 -56.169  11.017  0.00  0.00    -0.246 NA
ATOM      8  C   UNL     1      -4.122 -57.223  11.064  0.00  0.00    +0.123 A 
ATOM     18  N   UNL     1      -3.304 -57.413  12.100  0.00  0.00    -0.257 NA
ATOM     19  C   UNL     1      -3.278 -56.552  13.114  0.00  0.00    +0.126 A 
ATOM     20  C   UNL     1      -4.106 -55.441  13.102  0.00  0.00    +0.090 A 
BRANCH   8   9
ATOM      9  C   UNL     1      -4.155 -58.184   9.932  0.00  0.00    +0.004 A 
ATOM     10  C   UNL     1      -5.363 -58.428   9.268  0.00  0.00    +0.030 A 
ATOM     11  C   UNL     1      -5.411 -59.319   8.211  0.00  0.00    +0.129 A 
ATOM     12  O   UNL     1      -6.444 -59.724   7.412  0.00  0.00    -0.289 OA
ATOM     13  C   UNL     1      -5.812 -60.276   6.237  0.00  0.00    +0.384 C 
ATOM     14  O   UNL     1      -4.564 -60.786   6.746  0.00  0.00    -0.287 OA
ATOM     15  C   UNL     1      -4.249 -59.977   7.800  0.00  0.00    +0.129 A 
ATOM     16  C   UNL     1      -3.047 -59.736   8.453  0.00  0.00    +0.018 A 
ATOM     17  C   UNL     1      -2.994 -58.846   9.511  0.00  0.00    -0.010 A 
ENDBRANCH   8   9
ENDBRANCH   5   6
TORSDOF 2
