REMARK  Name = 4EWQ
REMARK  3 active torsions:
REMARK  status: ('A' for Active; 'I' for Inactive)
REMARK    1  A    between atoms: N_12  and  C_13
REMARK    2  A    between atoms: C_17  and  C_18
REMARK    3  A    between atoms: C_24  and  C_25
REMARK                            x       y       z     vdW  Elec       q    Type
REMARK                         _______ _______ _______ _____ _____    ______ ____
ROOT
ATOM     10  C   UNL     1      -1.478   3.301  21.286  0.00  0.00    +0.144 A 
ATOM     11  N   UNL     1      -2.034   3.855  20.199  0.00  0.00    -0.134 NA
ATOM     12  N   UNL     1      -2.943   3.156  19.410  0.00  0.00    -0.147 NA
ATOM     13  C   UNL     1      -3.292   1.898  19.709  0.00  0.00    +0.101 A 
ATOM     14  C   UNL     1      -2.753   1.279  20.842  0.00  0.00    +0.013 A 
ATOM     27  C   UNL     1      -1.826   1.994  21.607  0.00  0.00    +0.056 A 
ENDROOT
BRANCH  10   9
ATOM      1  C   UNL     1       2.815   7.758  25.776  0.00  0.00    +0.116 A 
ATOM      2  C   UNL     1       3.696   8.495  24.986  0.00  0.00    +0.039 A 
ATOM      3  C   UNL     1       3.754   8.236  23.618  0.00  0.00    +0.116 A 
ATOM      4  N   UNL     1       2.964   7.280  23.096  0.00  0.00    -0.223 NA
ATOM      5  C   UNL     1       2.097   6.564  23.879  0.00  0.00    +0.218 A 
ATOM      6  N   UNL     1       1.272   5.570  23.274  0.00  0.00    -0.297 N 
ATOM      7  C   UNL     1       0.790   6.145  22.013  0.00  0.00    +0.127 C 
ATOM      8  C   UNL     1      -0.385   5.385  21.420  0.00  0.00    +0.125 C 
ATOM      9  N   UNL     1      -0.528   4.052  22.034  0.00  0.00    -0.311 N 
ATOM     28  C   UNL     1      -0.821   4.173  23.474  0.00  0.00    +0.125 C 
ATOM     29  C   UNL     1       0.142   5.165  24.148  0.00  0.00    +0.127 C 
ATOM     30  N   UNL     1       2.038   6.816  25.214  0.00  0.00    -0.223 NA
ENDBRANCH  10   9
BRANCH  14  15
ATOM     15  C   UNL     1      -2.983  -0.129  21.291  0.00  0.00    -0.013 A 
ATOM     16  C   UNL     1      -3.196  -0.439  22.628  0.00  0.00    +0.028 A 
ATOM     17  C   UNL     1      -3.344  -1.761  23.023  0.00  0.00    +0.111 A 
ATOM     18  N   UNL     1      -3.257  -2.747  22.134  0.00  0.00    -0.263 NA
ATOM     19  C   UNL     1      -3.021  -2.477  20.837  0.00  0.00    +0.111 A 
ATOM     20  C   UNL     1      -2.872  -1.174  20.388  0.00  0.00    +0.028 A 
ENDBRANCH  14  15
BRANCH  13  21
ATOM     21  C   UNL     1      -4.258   1.342  18.767  0.00  0.00    +0.003 A 
ATOM     22  C   UNL     1      -5.462   0.795  19.189  0.00  0.00    +0.010 A 
ATOM     23  C   UNL     1      -6.346   0.306  18.260  0.00  0.00    +0.001 A 
ATOM     24  C   UNL     1      -6.043   0.390  16.905  0.00  0.00    +0.000 A 
ATOM     25  C   UNL     1      -4.842   0.957  16.489  0.00  0.00    +0.001 A 
ATOM     26  C   UNL     1      -3.953   1.441  17.416  0.00  0.00    +0.010 A 
ENDBRANCH  13  21
TORSDOF 3
