REMARK  Name = 6HKN
REMARK  5 active torsions:
REMARK  status: ('A' for Active; 'I' for Inactive)
REMARK    1  A    between atoms: C6_3  and  O7_13
REMARK    2  A    between atoms: C8_4  and  O7_13
REMARK    3  A    between atoms: C21_8  and  C18_21
REMARK    4  A    between atoms: C2_11  and  C3_12
REMARK    5  A    between atoms: C27_27  and  O28_28
REMARK                            x       y       z     vdW  Elec       q    Type
REMARK                         _______ _______ _______ _____ _____    ______ ____
ROOT
ATOM      3  C   UNL     1       0.813 -37.076 -10.111  0.00  0.00    +0.600 C 
ATOM      4  N   UNL     1       0.872 -38.400  -9.846  0.00  0.00    -0.250 N 
ATOM      5  C   UNL     1       2.153 -39.081  -9.569  0.00  0.00    +0.000 C 
ATOM      6  C   UNL     1       2.333 -40.237 -10.550  0.00  0.00    -0.100 C 
ATOM      7  C   UNL     1       1.087 -41.113 -10.630  0.00  0.00    -0.050 C 
ATOM      8  C   UNL     1      -0.131 -40.277 -10.941  0.00  0.00    -0.100 C 
ATOM     21  C   UNL     1      -0.319 -39.271  -9.818  0.00  0.00    +0.000 C 
ATOM     22  O   UNL     1       1.807 -36.373 -10.128  0.00  0.00    -0.550 OA
ENDROOT
BRANCH   7   9
ATOM      9  C   UNL     1       1.358 -42.105 -11.731  0.00  0.00    +0.380 A 
ATOM     10  C   UNL     1       1.713 -43.455 -11.486  0.00  0.00    +0.000 A 
ATOM     11  C   UNL     1       1.820 -44.025 -10.195  0.00  0.00    -0.130 A 
ATOM     12  C   UNL     1       2.162 -45.331 -10.035  0.00  0.00    -0.130 A 
ATOM     13  C   UNL     1       2.424 -46.148 -11.144  0.00  0.00    +0.185 A 
ATOM     16  C   UNL     1       2.321 -45.637 -12.428  0.00  0.00    -0.130 A 
ATOM     17  C   UNL     1       1.973 -44.292 -12.624  0.00  0.00    +0.000 A 
ATOM     18  N   UNL     1       1.875 -43.772 -13.856  0.00  0.00    -0.380 NA
ATOM     19  C   UNL     1       1.555 -42.504 -14.012  0.00  0.00    +0.630 A 
ATOM     20  N   UNL     1       1.302 -41.695 -12.994  0.00  0.00    -0.760 NA
BRANCH  13  14
ATOM     14  O   UNL     1       2.759 -47.451 -10.953  0.00  0.00    -0.365 OA
ATOM     15  C   UNL     1       3.975 -47.724 -10.250  0.00  0.00    +0.030 C 
ENDBRANCH  13  14
ENDBRANCH   7   9
BRANCH   3   2
ATOM      1  C   UNL     1      -0.809 -36.081 -11.675  0.00  0.00    -0.130 A 
ATOM      2  C   UNL     1      -0.468 -36.422 -10.361  0.00  0.00    +0.000 A 
ATOM     23  C   UNL     1      -1.351 -36.136  -9.295  0.00  0.00    +0.050 A 
ATOM     24  N   UNL     1      -1.043 -36.480  -7.974  0.00  0.00    -0.550 NA
ATOM     25  C   UNL     1      -2.563 -35.510  -9.585  0.00  0.00    -0.130 A 
ATOM     26  C   UNL     1      -2.892 -35.169 -10.900  0.00  0.00    +0.185 A 
ATOM     32  C   UNL     1      -2.004 -35.466 -11.937  0.00  0.00    -0.130 A 
BRANCH  26  27
ATOM     27  O   UNL     1      -4.078 -34.572 -11.192  0.00  0.00    -0.185 OA
BRANCH  27  28
ATOM     28  C   UNL     1      -4.244 -33.191 -10.893  0.00  0.00    +0.900 C 
ATOM     29  F   UNL     1      -3.286 -32.455 -11.572  0.00  0.00    -0.300 F 
ATOM     30  F   UNL     1      -5.506 -32.803 -11.325  0.00  0.00    -0.300 F 
ATOM     31  F   UNL     1      -4.129 -32.955  -9.518  0.00  0.00    -0.300 F 
ENDBRANCH  27  28
ENDBRANCH  26  27
ENDBRANCH   3   2
TORSDOF 5
