REMARK  Name = 4cg8_ligand
REMARK  14 active torsions:
REMARK  status: ('A' for Active; 'I' for Inactive)
REMARK    1  A    between atoms: CAA_2  and  NBM_39
REMARK    2  A    between atoms: CAB_3  and  NBM_39
REMARK    3  A    between atoms: CAC_4  and  NBN_40
REMARK    4  A    between atoms: CAY_25  and  CAZ_26
REMARK    5  A    between atoms: CAY_25  and  CBA_27
REMARK    6  A    between atoms: CAZ_26  and  CBB_28
REMARK    7  A    between atoms: CBA_27  and  CBF_32
REMARK    8  A    between atoms: CBB_28  and  CBG_33
REMARK    9  A    between atoms: CBC_29  and  CBH_34
REMARK   10  A    between atoms: CBC_29  and  NBO_41
REMARK   11  A    between atoms: CBD_30  and  CBI_35
REMARK   12  A    between atoms: CBD_30  and  NBP_42
REMARK   13  A    between atoms: CBK_37  and  NBN_40
REMARK   14  A    between atoms: CBL_38  and  NBN_40
REMARK                            x       y       z     vdW  Elec       q    Type
REMARK                         _______ _______ _______ _____ _____    ______ ____
ROOT
ATOM     12  C   UNL     1      21.018 -10.526   4.510  0.00  0.00    -0.025 A 
ATOM     13  C   UNL     1      21.782  -9.621   3.752  0.00  0.00    -0.011 A 
ATOM     14  C   UNL     1      21.318  -8.316   3.515  0.00  0.00    -0.013 A 
ATOM     15  C   UNL     1      20.073  -7.889   4.008  0.00  0.00    -0.050 A 
ATOM     36  C   UNL     1      19.313  -8.802   4.758  0.00  0.00    -0.013 A 
ATOM     37  C   UNL     1      19.775 -10.110   4.997  0.00  0.00    -0.011 A 
ENDROOT
BRANCH  12  11
ATOM     11  C   UNL     1      21.498 -11.838   4.709  0.00  0.00    +0.210 C 
BRANCH  11  10
ATOM      7  C   UNL     1      21.800 -13.346   8.772  0.00  0.00    +0.126 C 
ATOM      8  C   UNL     1      22.519 -12.209   8.360  0.00  0.00    -0.023 C 
ATOM      9  C   UNL     1      22.430 -11.721   7.054  0.00  0.00    +0.089 C 
ATOM     10  N   UNL     1      21.588 -12.349   6.119  0.00  0.00    -0.282 N 
ATOM     38  C   UNL     1      20.859 -13.505   6.517  0.00  0.00    +0.089 C 
ATOM     39  C   UNL     1      20.960 -13.990   7.831  0.00  0.00    -0.023 C 
BRANCH   7   6
ATOM      6  N   UNL     1      21.922 -13.794  10.051  0.00  0.00    -0.301 N 
ATOM     40  C   UNL     1      21.263 -15.048  10.471  0.00  0.00    +0.162 C 
BRANCH   6   5
ATOM      1 CL   UNL     1      25.064 -10.680  13.972  0.00  0.00    -0.083 Cl
ATOM      2  C   UNL     1      24.123 -11.618  12.816  0.00  0.00    +0.026 A 
ATOM      3  C   UNL     1      22.739 -11.410  12.697  0.00  0.00    -0.001 A 
ATOM      4  C   UNL     1      21.997 -12.154  11.772  0.00  0.00    +0.008 A 
ATOM      5  C   UNL     1      22.646 -13.086  10.960  0.00  0.00    +0.043 A 
ATOM     41  C   UNL     1      24.032 -13.291  11.086  0.00  0.00    +0.008 A 
ATOM     42  C   UNL     1      24.778 -12.555  12.013  0.00  0.00    -0.001 A 
ENDBRANCH   6   5
ENDBRANCH   7   6
ENDBRANCH  11  10
ENDBRANCH  12  11
BRANCH  15  16
ATOM     16  C   UNL     1      19.579  -6.568   3.781  0.00  0.00    +0.060 C 
BRANCH  16  17
ATOM     17  C   UNL     1      19.771  -6.106   2.306  0.00  0.00    +0.015 C 
BRANCH  17  18
ATOM     18  C   UNL     1      18.802  -4.959   1.859  0.00  0.00    +0.015 C 
BRANCH  18  19
ATOM     19  C   UNL     1      18.041  -5.304   0.527  0.00  0.00    +0.060 C 
BRANCH  19  20
ATOM     20  C   UNL     1      17.143  -6.270   0.918  0.00  0.00    -0.050 A 
ATOM     21  C   UNL     1      17.595  -7.592   1.034  0.00  0.00    -0.013 A 
ATOM     22  C   UNL     1      16.743  -8.591   1.483  0.00  0.00    -0.010 A 
ATOM     23  C   UNL     1      15.424  -8.243   1.788  0.00  0.00    -0.013 A 
ATOM     34  C   UNL     1      14.977  -6.911   1.706  0.00  0.00    -0.010 A 
ATOM     35  C   UNL     1      15.840  -5.910   1.263  0.00  0.00    -0.013 A 
BRANCH  23  24
ATOM     24  C   UNL     1      14.599  -9.223   2.321  0.00  0.00    +0.287 C 
BRANCH  24  25
ATOM     25  N   UNL     1      15.027  -9.087   3.769  0.00  0.00    -0.174 N 
ATOM     26  C   UNL     1      15.115 -10.138   4.702  0.00  0.00    +0.287 A 
ATOM     27  C   UNL     1      15.556  -9.846   6.006  0.00  0.00    +0.150 A 
ATOM     28  C   UNL     1      15.926  -8.545   6.404  0.00  0.00    +0.100 A 
ATOM     29  N   UNL     1      16.352  -8.236   7.641  0.00  0.00    -0.356 N 
ATOM     30  C   UNL     1      16.401  -9.282   8.683  0.00  0.00    +0.150 C 
ATOM     31  C   UNL     1      16.742  -6.832   7.915  0.00  0.00    +0.150 C 
ATOM     32  C   UNL     1      15.857  -7.510   5.483  0.00  0.00    +0.150 A 
ATOM     33  C   UNL     1      15.415  -7.791   4.203  0.00  0.00    +0.287 A 
ENDBRANCH  24  25
ENDBRANCH  23  24
ENDBRANCH  19  20
ENDBRANCH  18  19
ENDBRANCH  17  18
ENDBRANCH  16  17
ENDBRANCH  15  16
TORSDOF 11
