REMARK  Name = 3CQE
REMARK  6 active torsions:
REMARK  status: ('A' for Active; 'I' for Inactive)
REMARK    1  A    between atoms: C_2  and  C_7
REMARK    2  A    between atoms: O_10  and  C_20
REMARK    3  A    between atoms: C_17  and  C_21
REMARK    4  A    between atoms: N_18  and  C_19
REMARK    5  A    between atoms: C_19  and  C_20
REMARK    6  A    between atoms: N_24  and  C_25
REMARK                            x       y       z     vdW  Elec       q    Type
REMARK                         _______ _______ _______ _____ _____    ______ ____
ROOT
ATOM      1  C   UNL     1       2.597  52.702  26.648  0.00  0.00    +0.036 A 
ATOM      2  C   UNL     1       3.444  52.877  25.541  0.00  0.00    +0.052 A 
ATOM      3  C   UNL     1       4.764  53.292  25.801  0.00  0.00    +0.028 A 
ATOM      4  C   UNL     1       5.397  53.364  24.555  0.00  0.00    +0.056 A 
ATOM      5 BR   UNL     1       7.294  53.792  24.155  0.00  0.00    -0.047 Br
ATOM      6  C   UNL     1       4.426  52.973  23.518  0.00  0.00    +0.119 A 
ATOM     15  C   UNL     1       5.216  53.553  27.123  0.00  0.00    +0.063 A 
ATOM     16  C   UNL     1       6.454  53.959  27.690  0.00  0.00    +0.260 A 
ATOM     17  N   UNL     1       6.422  54.046  29.060  0.00  0.00    -0.289 N 
ATOM     18  H   UNL     1       7.205  54.320  29.736  0.00  0.00    +0.172 HD
ATOM     19  C   UNL     1       5.150  53.697  29.333  0.00  0.00    +0.260 A 
ATOM     20  O   UNL     1       4.695  53.663  30.543  0.00  0.00    -0.267 OA
ATOM     21  O   UNL     1       7.548  54.261  27.080  0.00  0.00    -0.267 OA
ATOM     22  C   UNL     1       4.356  53.393  28.195  0.00  0.00    +0.060 A 
ATOM     23  N   UNL     1       3.263  52.703  24.189  0.00  0.00    -0.338 N 
ATOM     24  C   UNL     1       1.980  52.261  23.581  0.00  0.00    +0.149 C 
ATOM     25  C   UNL     1       3.035  52.990  27.954  0.00  0.00    -0.002 A 
ENDROOT
BRANCH  25  26
ATOM     26  C   UNL     1       2.095  52.812  29.102  0.00  0.00    +0.001 A 
ATOM     27  C   UNL     1       1.473  51.536  29.246  0.00  0.00    +0.010 A 
ATOM     28  C   UNL     1       0.567  51.288  30.285  0.00  0.00    +0.001 A 
ATOM     29  C   UNL     1       0.304  52.322  31.205  0.00  0.00    +0.002 A 
ATOM     30  C   UNL     1       0.904  53.593  31.050  0.00  0.00    +0.020 A 
ATOM     31  C   UNL     1       1.809  53.836  30.000  0.00  0.00    +0.049 A 
ATOM     32 CL   UNL     1       2.533  55.465  29.864  0.00  0.00    -0.083 Cl
ENDBRANCH  25  26
BRANCH   6   7
ATOM      7  C   UNL     1       4.691  52.866  22.038  0.00  0.00    +0.262 C 
ATOM      8  N   UNL     1       5.465  53.658  21.232  0.00  0.00    -0.308 N 
ATOM      9  H   UNL     1       5.986  54.466  21.702  0.00  0.00    +0.149 HD
ATOM     14  O   UNL     1       4.121  51.909  21.583  0.00  0.00    -0.269 OA
BRANCH   8  10
ATOM     10  C   UNL     1       5.649  53.499  19.764  0.00  0.00    +0.132 C 
BRANCH  10  11
ATOM     11  C   UNL     1       6.859  52.599  19.435  0.00  0.00    +0.174 C 
BRANCH  11  12
ATOM     12  O   UNL     1       6.613  51.189  19.706  0.00  0.00    -0.394 OA
ATOM     13  H   UNL     1       6.390  51.062  20.724  0.00  0.00    +0.209 HD
ENDBRANCH  11  12
ENDBRANCH  10  11
ENDBRANCH   8  10
ENDBRANCH   6   7
TORSDOF 5
