REMARK  Name = 4E6A
REMARK  15 active torsions:
REMARK  status: ('A' for Active; 'I' for Inactive)
REMARK    1  A    between atoms: C_1  and  O_23
REMARK    2  A    between atoms: O_3  and  C_18
REMARK    3  A    between atoms: P_5  and  O_7
REMARK    4  A    between atoms: P_5  and  O_16
REMARK    5  A    between atoms: O_7  and  C_8
REMARK    6  A    between atoms: C_8  and  C_9
REMARK    7  A    between atoms: C_9  and  O_10
REMARK    8  A    between atoms: C_9  and  C_12
REMARK    9  A    between atoms: O_10  and  C_11
REMARK   10  A    between atoms: C_12  and  O_13
REMARK   11  A    between atoms: O_13  and  C_14
REMARK   12  A    between atoms: C_14  and  C_15
REMARK   13  A    between atoms: O_16  and  C_17
REMARK   14  A    between atoms: C_19  and  O_20
REMARK   15  A    between atoms: C_21  and  O_22
REMARK                            x       y       z     vdW  Elec       q    Type
REMARK                         _______ _______ _______ _____ _____    ______ ____
ROOT
ATOM      1  C   UNL     1       3.342   7.374   2.054  0.00  0.00    +0.149 C 
ATOM      4  C   UNL     1       3.918   6.224   2.836  0.00  0.00    +0.185 C 
ATOM      5  C   UNL     1       2.954   5.818   3.957  0.00  0.00    +0.177 C 
ATOM      6  C   UNL     1       1.541   5.448   3.441  0.00  0.00    +0.174 C 
ATOM      7  C   UNL     1       0.979   6.477   2.449  0.00  0.00    +0.148 C 
ATOM     27  C   UNL     1       2.014   6.943   1.409  0.00  0.00    +0.068 C 
ENDROOT
BRANCH   1   2
ATOM      2  O   UNL     1       4.309   7.779   1.092  0.00  0.00    -0.389 OA
ATOM      3  H   UNL     1       4.511   6.981   0.440  0.00  0.00    +0.210 HD
ENDBRANCH   1   2
BRANCH   7   8
ATOM      8  O   UNL     1       0.490   7.610   3.187  0.00  0.00    -0.389 OA
ATOM      9  H   UNL     1       1.290   8.080   3.679  0.00  0.00    +0.210 HD
ENDBRANCH   7   8
BRANCH   6  10
ATOM     10  O   UNL     1       1.553   4.146   2.835  0.00  0.00    -0.387 OA
ATOM     11  H   UNL     1       2.223   4.142   2.027  0.00  0.00    +0.210 HD
ENDBRANCH   6  10
BRANCH   5  12
ATOM     12  O   UNL     1       3.503   4.709   4.678  0.00  0.00    -0.387 OA
ATOM     13  H   UNL     1       3.641   3.899   4.024  0.00  0.00    +0.210 HD
ENDBRANCH   5  12
BRANCH   4  14
ATOM     14  O   UNL     1       3.981   5.129   1.922  0.00  0.00    -0.319 OA
BRANCH  14  15
ATOM     15  P   UNL     1       5.285   4.618   1.114  0.00  0.00    +0.213 P 
ATOM     25  O   UNL     1       6.495   5.404   1.583  0.00  0.00    -0.517 OA
ATOM     26  O   UNL     1       5.312   3.094   1.157  0.00  0.00    -0.437 OA
BRANCH  15  16
ATOM     16  O   UNL     1       4.955   5.065  -0.416  0.00  0.00    -0.325 OA
BRANCH  16  17
ATOM     17  C   UNL     1       5.938   5.617  -1.300  0.00  0.00    +0.201 C 
BRANCH  17  18
ATOM     18  C   UNL     1       6.712   4.571  -2.134  0.00  0.00    +0.169 C 
BRANCH  18  23
ATOM     23  O   UNL     1       6.263   3.208  -2.079  0.00  0.00    -0.375 OA
ATOM     24  C   UNL     1       7.315   2.257  -2.593  0.00  0.00    +0.194 C 
ENDBRANCH  18  23
BRANCH  18  19
ATOM     19  C   UNL     1       6.729   5.036  -3.593  0.00  0.00    +0.193 C 
BRANCH  19  20
ATOM     20  O   UNL     1       8.096   5.226  -3.919  0.00  0.00    -0.377 OA
BRANCH  20  21
ATOM     21  C   UNL     1       8.684   6.317  -3.221  0.00  0.00    +0.156 C 
ATOM     22  C   UNL     1       9.912   5.796  -2.515  0.00  0.00    +0.034 C 
ENDBRANCH  20  21
ENDBRANCH  19  20
ENDBRANCH  18  19
ENDBRANCH  17  18
ENDBRANCH  16  17
ENDBRANCH  15  16
ENDBRANCH  14  15
ENDBRANCH   4  14
TORSDOF 13
