REMARK  Name = 4hct_ligand
REMARK  10 active torsions:
REMARK  status: ('A' for Active; 'I' for Inactive)
REMARK    1  A    between atoms: C1_1  and  C15_24
REMARK    2  A    between atoms: N1_2  and  C25_34
REMARK    3  A    between atoms: C2_5  and  C19_28
REMARK    4  A    between atoms: C3_7  and  N5_16
REMARK    5  A    between atoms: C9_15  and  N7_21
REMARK    6  A    between atoms: C10_18  and  C13_22
REMARK    7  A    between atoms: C21_30  and  C24_33
REMARK    8  A    between atoms: C24_33  and  C27_36
REMARK    9  A    between atoms: C24_33  and  C28_37
REMARK   10  A    between atoms: C24_33  and  C29_38
REMARK                            x       y       z     vdW  Elec       q    Type
REMARK                         _______ _______ _______ _____ _____    ______ ____
ROOT
ATOM      7  C   UNL     1       2.789   6.263  21.195  0.00  0.00    +0.075 A 
ATOM      8  C   UNL     1       2.530   5.327  22.230  0.00  0.00    +0.088 A 
ATOM      9  C   UNL     1       3.746   5.110  22.907  0.00  0.00    +0.164 A 
ATOM     10  N   UNL     1       4.634   5.918  22.270  0.00  0.00    -0.177 N 
ATOM     21  N   UNL     1       3.983   4.262  23.922  0.00  0.00    -0.267 NA
ATOM     22  C   UNL     1       2.892   3.569  24.265  0.00  0.00    +0.160 A 
ATOM     23  N   UNL     1       1.656   3.667  23.758  0.00  0.00    -0.266 NA
ATOM     24  C   UNL     1       1.441   4.533  22.743  0.00  0.00    +0.128 A 
ATOM     28  N   UNL     1       4.102   6.644  21.240  0.00  0.00    -0.192 NA
ENDROOT
BRANCH  10  11
ATOM     11  C   UNL     1       6.076   5.973  22.597  0.00  0.00    +0.170 C 
ATOM     12  C   UNL     1       6.748   5.106  21.557  0.00  0.00    +0.175 C 
ATOM     13  N   UNL     1       8.180   5.121  21.849  0.00  0.00    -0.271 N 
ATOM     14  C   UNL     1       8.709   6.466  21.587  0.00  0.00    +0.138 C 
ATOM     15  C   UNL     1       8.134   7.447  22.612  0.00  0.00    +0.028 C 
ATOM     16  C   UNL     1       8.856   4.028  22.260  0.00  0.00    +0.198 C 
ATOM     19  O   UNL     1       8.257   3.042  22.708  0.00  0.00    -0.388 OA
ATOM     20  C   UNL     1       6.602   7.412  22.592  0.00  0.00    +0.042 C 
BRANCH  16  17
ATOM     17  C   UNL     1      10.341   4.057  22.237  0.00  0.00    +0.077 C 
ATOM     18  C   UNL     1      11.007   3.602  21.197  0.00  0.00    +0.059 C 
ENDBRANCH  16  17
ENDBRANCH  10  11
BRANCH   7   6
ATOM      2  C   UNL     1       1.379   8.599  18.608  0.00  0.00    +0.056 A 
ATOM      3  C   UNL     1       0.526   7.753  17.901  0.00  0.00    +0.024 A 
ATOM      4  C   UNL     1       0.326   6.446  18.328  0.00  0.00    +0.006 A 
ATOM      5  C   UNL     1       1.036   5.948  19.414  0.00  0.00    +0.015 A 
ATOM      6  C   UNL     1       1.887   6.790  20.134  0.00  0.00    -0.002 A 
ATOM     29  C   UNL     1       1.996   8.125  19.763  0.00  0.00    +0.034 A 
BRANCH   2   1
ATOM      1  C   UNL     1       1.564  10.049  18.305  0.00  0.00    +0.233 C 
ATOM     30  O   UNL     1       1.889  10.826  19.199  0.00  0.00    -0.373 OA
ATOM     31  N   UNL     1       1.204  10.471  17.069  0.00  0.00    -0.227 N 
ATOM     32  H   UNL     1       0.904   9.753  16.410  0.00  0.00    +0.226 HD
BRANCH  31  33
ATOM     33  C   UNL     1       1.202  11.816  16.596  0.00  0.00    +0.095 A 
ATOM     34  C   UNL     1       0.418  12.735  17.285  0.00  0.00    +0.065 A 
ATOM     35  C   UNL     1       0.341  14.048  16.842  0.00  0.00    +0.023 A 
ATOM     36  C   UNL     1       1.048  14.450  15.716  0.00  0.00    +0.021 A 
ATOM     37  C   UNL     1       1.839  13.546  15.009  0.00  0.00    -0.062 A 
ATOM     42  C   UNL     1       1.908  12.224  15.463  0.00  0.00    +0.051 A 
BRANCH  37  38
ATOM     38  C   UNL     1       2.587  14.011  13.747  0.00  0.00    -0.049 C 
ATOM     39  C   UNL     1       1.638  14.764  12.789  0.00  0.00    -0.043 C 
ATOM     40  C   UNL     1       3.196  12.844  12.965  0.00  0.00    -0.043 C 
ATOM     41  C   UNL     1       3.726  14.975  14.110  0.00  0.00    -0.043 C 
ENDBRANCH  37  38
ENDBRANCH  31  33
ENDBRANCH   2   1
ENDBRANCH   7   6
BRANCH  24  25
ATOM     25  N   UNL     1       0.197   4.651  22.250  0.00  0.00    -0.313 N 
ATOM     26  H   UNL     1      -0.558   4.079  22.628  0.00  0.00    +0.184 HD
ATOM     27  H   UNL     1       0.007   5.313  21.497  0.00  0.00    +0.184 HD
ENDBRANCH  24  25
TORSDOF 7
