REMARK  Name = 3wi6_ligand
REMARK  1 active torsions:
REMARK  status: ('A' for Active; 'I' for Inactive)
REMARK    1  A    between atoms: N19_1  and  C6_2
REMARK                            x       y       z     vdW  Elec       q    Type
REMARK                         _______ _______ _______ _____ _____    ______ ____
ROOT
ATOM      1  N   UNL     1     -36.151 -16.872 -15.371  0.00  0.00    -0.292 N 
ATOM      2  H   UNL     1     -36.781 -16.271 -15.922  0.00  0.00    +0.187 HD
ATOM      3  C   UNL     1     -36.552 -17.318 -14.172  0.00  0.00    +0.105 A 
ATOM      4  N   UNL     1     -35.975 -18.360 -13.528  0.00  0.00    -0.283 NA
ATOM      5  C   UNL     1     -36.474 -18.756 -12.319  0.00  0.00    +0.129 A 
ATOM      6  N   UNL     1     -37.493 -18.230 -11.666  0.00  0.00    -0.130 N 
ATOM      7  C   UNL     1     -38.141 -17.207 -12.237  0.00  0.00    +0.235 A 
ATOM      8  N   UNL     1     -39.168 -16.463 -11.814  0.00  0.00    -0.245 N 
ATOM      9  H   UNL     1     -39.676 -16.630 -10.934  0.00  0.00    +0.238 HD
ATOM     10  C   UNL     1     -39.483 -15.389 -12.744  0.00  0.00    +0.099 A 
ATOM     11  C   UNL     1     -38.563 -15.551 -13.960  0.00  0.00    -0.036 A 
ATOM     12  N   UNL     1     -37.769 -18.829 -10.409  0.00  0.00    -0.225 NA
ATOM     13  C   UNL     1     -36.844 -19.812 -10.309  0.00  0.00    +0.033 A 
ATOM     14  C   UNL     1     -36.043 -19.786 -11.440  0.00  0.00    -0.035 A 
ATOM     15  C   UNL     1     -37.712 -16.702 -13.520  0.00  0.00    +0.066 A 
ENDROOT
BRANCH   1  16
ATOM     16  C   UNL     1     -34.854 -17.216 -15.908  0.00  0.00    +0.143 C 
ATOM     17  C   UNL     1     -33.885 -16.071 -15.639  0.00  0.00    +0.158 C 
ATOM     18  N   UNL     1     -32.569 -16.498 -16.029  0.00  0.00    +0.229 N 
ATOM     19  H   UNL     1     -32.293 -17.248 -15.414  0.00  0.00    +0.201 HD
ATOM     20  H   UNL     1     -31.943 -15.717 -15.908  0.00  0.00    +0.201 HD
ATOM     21  C   UNL     1     -32.432 -16.966 -17.381  0.00  0.00    +0.129 C 
ATOM     22  C   UNL     1     -33.510 -17.950 -17.817  0.00  0.00    +0.053 C 
ATOM     23  C   UNL     1     -34.875 -17.470 -17.397  0.00  0.00    +0.039 C 
ENDBRANCH   1  16
TORSDOF 1
