REMARK  Name = 5F1Z
REMARK  12 active torsions:
REMARK  status: ('A' for Active; 'I' for Inactive)
REMARK    1  A    between atoms: C_1  and  C_2
REMARK    2  A    between atoms: C_1  and  C_10
REMARK    3  A    between atoms: C_1  and  N_12
REMARK    4  A    between atoms: C_4  and  C_13
REMARK    5  A    between atoms: C_5  and  C_19
REMARK    6  A    between atoms: C_7  and  N_24
REMARK    7  A    between atoms: C_9  and  C_10
REMARK    8  A    between atoms: C_10  and  C_11
REMARK    9  A    between atoms: C_15  and  C_19
REMARK   10  A    between atoms: N_16  and  C_17
REMARK   11  A    between atoms: C_19  and  C_20
REMARK   12  A    between atoms: C_19  and  O_21
REMARK                            x       y       z     vdW  Elec       q    Type
REMARK                         _______ _______ _______ _____ _____    ______ ____
ROOT
ATOM      2  N   UNL     1     -21.801  20.610 482.061  0.00  0.00    -0.311 N 
ATOM      3  C   UNL     1     -22.713  19.672 481.693  0.00  0.00    +0.264 C 
ATOM      4  O   UNL     1     -22.493  18.481 481.819  0.00  0.00    -0.267 OA
ATOM      5  C   UNL     1     -23.961  20.047 481.154  0.00  0.00    +0.106 C 
ATOM      6  C   UNL     1     -25.127  19.322 480.679  0.00  0.00    +0.151 C 
ATOM     10  N   UNL     1     -26.010  20.200 480.281  0.00  0.00    -0.158 NA
ATOM     11  N   UNL     1     -25.500  21.490 480.463  0.00  0.00    -0.274 NA
ATOM     12  H   UNL     1     -26.011  22.399 480.222  0.00  0.00    +0.189 HD
ATOM     13  C   UNL     1     -24.260  21.404 480.991  0.00  0.00    +0.083 C 
ATOM     14  C   UNL     1     -23.252  22.384 481.370  0.00  0.00    +0.044 C 
ATOM     26  C   UNL     1     -22.066  21.945 481.894  0.00  0.00    +0.101 C 
ENDROOT
BRANCH  14  15
ATOM     15  C   UNL     1     -23.552  23.822 481.153  0.00  0.00    +0.097 A 
ATOM     16  N   UNL     1     -24.736  24.312 480.836  0.00  0.00    -0.171 NA
ATOM     17  N   UNL     1     -24.618  25.697 480.712  0.00  0.00    -0.268 N 
ATOM     18  C   UNL     1     -25.723  26.597 480.376  0.00  0.00    +0.173 C 
ATOM     19  C   UNL     1     -23.314  26.023 480.952  0.00  0.00    +0.070 A 
ATOM     25  C   UNL     1     -22.638  24.885 481.225  0.00  0.00    +0.056 A 
BRANCH  19  20
ATOM     20  C   UNL     1     -22.668  27.395 480.950  0.00  0.00    +0.102 C 
ATOM     23  C   UNL     1     -23.287  28.234 482.073  0.00  0.00    +0.048 C 
ATOM     24  C   UNL     1     -22.834  28.113 479.607  0.00  0.00    +0.048 C 
BRANCH  20  21
ATOM     21  O   UNL     1     -21.266  27.210 481.188  0.00  0.00    -0.383 OA
ATOM     22  H   UNL     1     -20.853  26.631 480.416  0.00  0.00    +0.211 HD
ENDBRANCH  20  21
ENDBRANCH  19  20
ENDBRANCH  14  15
BRANCH   6   7
ATOM      7  N   UNL     1     -25.281  17.946 480.653  0.00  0.00    -0.341 NA
ATOM      8  H   UNL     1     -26.187  17.516 480.280  0.00  0.00    +0.144 HD
ATOM      9  H   UNL     1     -24.494  17.313 481.006  0.00  0.00    +0.144 HD
ENDBRANCH   6   7
BRANCH   2   1
ATOM      1  C   UNL     1     -20.495  20.199 482.632  0.00  0.00    +0.090 C 
ATOM     30  C   UNL     1     -19.355  20.978 481.950  0.00  0.00    +0.031 C 
BRANCH   1  27
ATOM     27  C   UNL     1     -20.468  20.414 484.169  0.00  0.00    +0.006 C 
ATOM     28  C   UNL     1     -19.102  20.083 484.784  0.00  0.00    +0.009 C 
ATOM     29  C   UNL     1     -21.513  19.554 484.895  0.00  0.00    +0.009 C 
ENDBRANCH   1  27
ENDBRANCH   2   1
TORSDOF 6
