REMARK  Name = 3dkf_ligand
REMARK  4 active torsions:
REMARK  status: ('A' for Active; 'I' for Inactive)
REMARK    1  A    between atoms: C1_3  and  N1_4
REMARK    2  A    between atoms: C5_5  and  C3_7
REMARK    3  A    between atoms: C9_13  and  S1_16
REMARK    4  A    between atoms: S1_16  and  C10_17
REMARK                            x       y       z     vdW  Elec       q    Type
REMARK                         _______ _______ _______ _____ _____    ______ ____
ROOT
ATOM      1  C   UNL     1      16.177  16.693 139.108  0.00  0.00    +0.080 A 
ATOM      2  C   UNL     1      17.080  16.232 138.131  0.00  0.00    +0.177 A 
ATOM      3  N   UNL     1      17.968  16.855 137.394  0.00  0.00    -0.278 NA
ATOM      4  N   UNL     1      18.582  15.909 136.609  0.00  0.00    -0.257 NA
ATOM      5  C   UNL     1      18.042  14.746 136.887  0.00  0.00    +0.246 A 
ATOM     17  N   UNL     1      17.077  14.877 137.837  0.00  0.00    -0.095 N 
ATOM     18  N   UNL     1      16.274  13.905 138.374  0.00  0.00    -0.149 NA
ATOM     19  C   UNL     1      15.457  14.387 139.278  0.00  0.00    +0.076 A 
ATOM     26  C   UNL     1      15.349  15.817 139.687  0.00  0.00    +0.048 A 
ENDROOT
BRANCH  19  20
ATOM     20  C   UNL     1      14.511  13.490 139.899  0.00  0.00    +0.025 A 
ATOM     21  C   UNL     1      13.397  13.797 140.667  0.00  0.00    +0.176 A 
ATOM     22  N   UNL     1      12.791  12.620 140.969  0.00  0.00    -0.204 N 
ATOM     23  N   UNL     1      13.410  11.555 140.436  0.00  0.00    -0.212 NA
ATOM     24  C   UNL     1      11.595  12.434 141.761  0.00  0.00    +0.245 C 
ATOM     25  C   UNL     1      14.445  12.077 139.775  0.00  0.00    +0.078 A 
ENDBRANCH  19  20
BRANCH   5   6
ATOM      6  S   UNL     1      18.423  13.225 136.154  0.00  0.00    +0.019 S 
BRANCH   6   7
ATOM      7  C   UNL     1      19.174  12.301 137.473  0.00  0.00    +0.043 A 
ATOM      8  C   UNL     1      20.424  12.706 137.948  0.00  0.00    +0.025 A 
ATOM      9  C   UNL     1      21.054  11.992 138.976  0.00  0.00    +0.023 A 
ATOM     10  C   UNL     1      20.471  10.854 139.524  0.00  0.00    +0.043 A 
ATOM     11  N   UNL     1      21.125  10.197 140.515  0.00  0.00    -0.298 NA
ATOM     12  C   UNL     1      20.541   9.099 141.041  0.00  0.00    +0.093 A 
ATOM     13  C   UNL     1      19.308   8.621 140.627  0.00  0.00    +0.035 A 
ATOM     14  C   UNL     1      18.628   9.297 139.609  0.00  0.00    +0.037 A 
ATOM     15  C   UNL     1      19.200  10.440 139.034  0.00  0.00    +0.001 A 
ATOM     16  C   UNL     1      18.556  11.160 138.001  0.00  0.00    +0.024 A 
ENDBRANCH   6   7
ENDBRANCH   5   6
TORSDOF 3
