REMARK  Name = 5MRB
REMARK  12 active torsions:
REMARK  status: ('A' for Active; 'I' for Inactive)
REMARK    1  A    between atoms: O_1  and  C_3
REMARK    2  A    between atoms: O_1  and  C_4
REMARK    3  A    between atoms: C_6  and  N_7
REMARK    4  A    between atoms: N_10  and  C_11
REMARK    5  A    between atoms: C_16  and  N_17
REMARK    6  A    between atoms: N_26  and  C_27
REMARK    7  A    between atoms: C_29  and  C_30
REMARK    8  A    between atoms: N_31  and  C_32
REMARK    9  A    between atoms: C_33  and  C_34
REMARK   10  A    between atoms: C_34  and  C_35
REMARK   11  A    between atoms: C_39  and  C_40
REMARK   12  A    between atoms: C_40  and  C_41
REMARK                            x       y       z     vdW  Elec       q    Type
REMARK                         _______ _______ _______ _____ _____    ______ ____
ROOT
ATOM      4  N   UNL     1      -1.686  -9.145 -17.903  0.00  0.00    -0.209 NA
ATOM      5  C   UNL     1      -1.004 -10.082 -18.616  0.00  0.00    +0.229 A 
ATOM      6  N   UNL     1      -0.406 -11.063 -17.891  0.00  0.00    -0.210 NA
ATOM      7  C   UNL     1       0.285 -12.009 -18.550  0.00  0.00    +0.097 A 
ATOM      8  C   UNL     1       0.918 -13.082 -17.810  0.00  0.00    +0.091 A 
ATOM      9  N   UNL     1       1.021 -13.259 -16.471  0.00  0.00    -0.264 N 
ATOM     10  N   UNL     1       1.681 -14.427 -16.216  0.00  0.00    -0.166 NA
ATOM     11  C   UNL     1       1.969 -14.966 -17.390  0.00  0.00    +0.151 A 
ATOM     26  C   UNL     1       0.567 -12.404 -15.387  0.00  0.00    +0.173 C 
ATOM     27  C   UNL     1       1.512 -14.167 -18.412  0.00  0.00    +0.012 A 
ATOM     28  C   UNL     1       1.547 -14.325 -19.903  0.00  0.00    +0.044 C 
ATOM     29  C   UNL     1       1.157 -13.060 -20.664  0.00  0.00    +0.043 C 
ATOM     30  C   UNL     1       0.366 -11.995 -19.937  0.00  0.00    -0.004 A 
ATOM     31  C   UNL     1      -0.303 -10.906 -20.627  0.00  0.00    +0.091 A 
ATOM     32  N   UNL     1      -0.984  -9.988 -19.967  0.00  0.00    -0.330 N 
ATOM     33  H   UNL     1      -1.499  -9.202 -20.478  0.00  0.00    +0.168 HD
ENDROOT
BRANCH   4   3
ATOM      2  C   UNL     1      -1.619  -7.687 -15.966  0.00  0.00    +0.147 A 
ATOM      3  C   UNL     1      -1.775  -8.977 -16.498  0.00  0.00    +0.109 A 
ATOM     34  C   UNL     1      -2.012 -10.060 -15.652  0.00  0.00    +0.033 A 
ATOM     35  C   UNL     1      -2.085  -9.866 -14.293  0.00  0.00    +0.025 A 
ATOM     36  C   UNL     1      -1.939  -8.588 -13.745  0.00  0.00    +0.033 A 
ATOM     44  C   UNL     1      -1.706  -7.509 -14.591  0.00  0.00    +0.070 A 
BRANCH  36  37
ATOM     37  N   UNL     1      -1.993  -8.382 -12.352  0.00  0.00    -0.327 N 
ATOM     38  C   UNL     1      -3.000  -9.006 -11.490  0.00  0.00    +0.120 C 
ATOM     39  C   UNL     1      -2.427  -9.409 -10.153  0.00  0.00    +0.103 C 
ATOM     40  N   UNL     1      -1.752  -8.276  -9.517  0.00  0.00    -0.302 NA
ATOM     41  C   UNL     1      -1.330  -8.609  -8.153  0.00  0.00    +0.105 C 
ATOM     42  C   UNL     1      -0.611  -7.885 -10.347  0.00  0.00    +0.103 C 
ATOM     43  C   UNL     1      -1.060  -7.439 -11.720  0.00  0.00    +0.120 C 
ENDBRANCH  36  37
BRANCH   2   1
ATOM      1  O   UNL     1      -1.381  -6.679 -16.854  0.00  0.00    -0.493 OA
ATOM     45  C   UNL     1      -1.262  -5.346 -16.363  0.00  0.00    +0.277 C 
ENDBRANCH   2   1
ENDBRANCH   4   3
BRANCH  11  12
ATOM     12  C   UNL     1       2.686 -16.245 -17.464  0.00  0.00    +0.269 C 
ATOM     13  N   UNL     1       2.813 -16.924 -16.297  0.00  0.00    -0.280 N 
ATOM     14  H   UNL     1       2.339 -16.515 -15.429  0.00  0.00    +0.155 HD
ATOM     25  O   UNL     1       3.143 -16.637 -18.537  0.00  0.00    -0.268 OA
BRANCH  13  15
ATOM     15  C   UNL     1       3.536 -18.148 -16.146  0.00  0.00    +0.040 A 
ATOM     16  C   UNL     1       4.917 -18.093 -15.927  0.00  0.00    -0.026 A 
ATOM     19  C   UNL     1       5.609 -19.302 -15.816  0.00  0.00    +0.005 A 
ATOM     20  C   UNL     1       4.964 -20.511 -15.948  0.00  0.00    +0.001 A 
ATOM     21  C   UNL     1       3.608 -20.539 -16.190  0.00  0.00    +0.005 A 
ATOM     22  C   UNL     1       2.862 -19.364 -16.304  0.00  0.00    -0.026 A 
BRANCH  16  17
ATOM     17  C   UNL     1       5.661 -16.788 -15.779  0.00  0.00    +0.033 C 
ATOM     18  C   UNL     1       5.585 -16.184 -14.403  0.00  0.00    +0.009 C 
ENDBRANCH  16  17
BRANCH  22  23
ATOM     23  C   UNL     1       1.379 -19.440 -16.583  0.00  0.00    +0.033 C 
ATOM     24  C   UNL     1       0.494 -19.290 -15.374  0.00  0.00    +0.009 C 
ENDBRANCH  22  23
ENDBRANCH  13  15
ENDBRANCH  11  12
TORSDOF 7
