REMARK  Name = 4anw_ligand
REMARK  6 active torsions:
REMARK  status: ('A' for Active; 'I' for Inactive)
REMARK    1  A    between atoms: C12_1  and  N3_2
REMARK    2  A    between atoms: C6_3  and  C4_5
REMARK    3  A    between atoms: C1_11  and  C5_12
REMARK    4  A    between atoms: C10_18  and  S1_19
REMARK    5  A    between atoms: S1_19  and  N5_22
REMARK    6  A    between atoms: N5_22  and  C14_23
REMARK                            x       y       z     vdW  Elec       q    Type
REMARK                         _______ _______ _______ _____ _____    ______ ____
ROOT
ATOM     10  C   UNL     1      44.436  12.638  30.869  0.00  0.00    +0.002 A 
ATOM     11  C   UNL     1      43.637  11.923  29.985  0.00  0.00    +0.011 A 
ATOM     12  C   UNL     1      42.288  11.784  30.272  0.00  0.00    +0.018 A 
ATOM     13  C   UNL     1      41.729  12.342  31.424  0.00  0.00    +0.068 A 
ATOM     14  C   UNL     1      42.515  13.073  32.332  0.00  0.00    +0.129 A 
ATOM     28 CL   UNL     1      40.055  12.114  31.698  0.00  0.00    -0.068 Cl
ATOM     29  C   UNL     1      43.875  13.205  32.026  0.00  0.00    +0.040 A 
ENDROOT
BRANCH  10   9
ATOM      5  C   UNL     1      47.643  14.235  30.834  0.00  0.00    +0.169 A 
ATOM      6  C   UNL     1      48.450  13.270  30.202  0.00  0.00    +0.161 A 
ATOM      7  N   UNL     1      47.899  12.094  29.805  0.00  0.00    -0.253 NA
ATOM      8  C   UNL     1      46.612  11.842  29.997  0.00  0.00    +0.130 A 
ATOM      9  C   UNL     1      45.801  12.809  30.617  0.00  0.00    +0.074 A 
ATOM     30  N   UNL     1      49.752  13.499  30.003  0.00  0.00    -0.311 N 
ATOM     31  H   UNL     1      50.172  14.387  30.313  0.00  0.00    +0.182 HD
ATOM     32  H   UNL     1      50.335  12.788  29.540  0.00  0.00    +0.182 HD
ATOM     33  N   UNL     1      46.342  13.973  31.011  0.00  0.00    -0.260 NA
BRANCH   5   4
ATOM      1  C   UNL     1      47.578  17.652  32.563  0.00  0.00    +0.164 C 
ATOM      2  N   UNL     1      47.249  16.318  32.022  0.00  0.00    -0.288 N 
ATOM      3  H   UNL     1      46.338  15.935  32.175  0.00  0.00    +0.184 HD
ATOM      4  C   UNL     1      48.162  15.606  31.323  0.00  0.00    +0.224 C 
ATOM     34  O   UNL     1      49.312  15.966  31.055  0.00  0.00    -0.383 OA
ENDBRANCH   5   4
ENDBRANCH  10   9
BRANCH  14  15
ATOM     15  S   UNL     1      41.848  13.840  33.857  0.00  0.00    +0.089 S 
ATOM     26  O   UNL     1      41.105  12.837  34.669  0.00  0.00    -0.145 OA
ATOM     27  O   UNL     1      40.899  14.974  33.516  0.00  0.00    -0.145 OA
BRANCH  15  16
ATOM     16  N   UNL     1      43.130  14.394  34.674  0.00  0.00    -0.187 N 
ATOM     17  H   UNL     1      43.656  13.754  35.233  0.00  0.00    +0.215 HD
BRANCH  16  18
ATOM     18  C   UNL     1      43.516  15.684  34.630  0.00  0.00    +0.095 A 
ATOM     19  C   UNL     1      43.418  16.569  33.546  0.00  0.00    +0.179 A 
ATOM     20  F   UNL     1      42.876  16.212  32.370  0.00  0.00    -0.197 F 
ATOM     21  C   UNL     1      43.856  17.886  33.648  0.00  0.00    +0.150 A 
ATOM     22  F   UNL     1      43.716  18.690  32.567  0.00  0.00    -0.189 F 
ATOM     23  C   UNL     1      44.426  18.389  34.826  0.00  0.00    -0.002 A 
ATOM     24  C   UNL     1      44.575  17.588  35.952  0.00  0.00    -0.030 A 
ATOM     25  C   UNL     1      44.087  16.210  35.831  0.00  0.00    -0.007 A 
ENDBRANCH  16  18
ENDBRANCH  15  16
ENDBRANCH  14  15
TORSDOF 5
