REMARK  Name = 4Z55
REMARK  14 active torsions:
REMARK  status: ('A' for Active; 'I' for Inactive)
REMARK    1  A    between atoms: C_1  and  C_2
REMARK    2  A    between atoms: C_2  and  C_3
REMARK    3  A    between atoms: C_2  and  O_19
REMARK    4  A    between atoms: C_4  and  N_26
REMARK    5  A    between atoms: C_7  and  C_8
REMARK    6  A    between atoms: C_10  and  N_27
REMARK    7  A    between atoms: C_11  and  N_27
REMARK    8  A    between atoms: C_13  and  N_29
REMARK    9  A    between atoms: C_18  and  S_30
REMARK   10  A    between atoms: O_19  and  C_20
REMARK   11  A    between atoms: C_22  and  C_23
REMARK   12  A    between atoms: S_30  and  C_33
REMARK   13  A    between atoms: C_33  and  C_34
REMARK   14  A    between atoms: C_33  and  C_35
REMARK                            x       y       z     vdW  Elec       q    Type
REMARK                         _______ _______ _______ _____ _____    ______ ____
ROOT
ATOM     20  C   UNL     1     -22.767  11.132  -9.129  0.00  0.00    +0.201 C 
ATOM     21  N   UNL     1     -23.239  11.943 -10.063  0.00  0.00    -0.310 NA
ATOM     22  H   UNL     1     -24.185  11.750 -10.524  0.00  0.00    +0.170 HD
ATOM     23  C   UNL     1     -22.515  13.004 -10.420  0.00  0.00    +0.166 C 
ATOM     24  N   UNL     1     -22.737  13.946 -11.320  0.00  0.00    -0.156 NA
ATOM     25  N   UNL     1     -21.716  14.784 -11.340  0.00  0.00    -0.282 NA
ATOM     26  H   UNL     1     -21.654  15.631 -11.991  0.00  0.00    +0.188 HD
ATOM     27  C   UNL     1     -20.846  14.481 -10.527  0.00  0.00    +0.118 C 
ATOM     28  C   UNL     1     -21.306  13.245  -9.815  0.00  0.00    +0.081 C 
ATOM     29  C   UNL     1     -20.822  12.426  -8.820  0.00  0.00    +0.169 C 
ATOM     30  N   UNL     1     -19.632  12.675  -8.249  0.00  0.00    -0.226 NA
ATOM     43  N   UNL     1     -21.634  11.405  -8.536  0.00  0.00    -0.196 NA
ENDROOT
BRANCH  30  31
ATOM     31  C   UNL     1     -19.019  12.023  -7.243  0.00  0.00    +0.091 A 
ATOM     32  C   UNL     1     -17.650  12.156  -7.001  0.00  0.00    +0.114 A 
ATOM     39  C   UNL     1     -17.042  11.518  -5.938  0.00  0.00    +0.029 A 
ATOM     40  C   UNL     1     -17.797  10.741  -5.107  0.00  0.00    +0.002 A 
ATOM     41  C   UNL     1     -19.117  10.575  -5.328  0.00  0.00    +0.002 A 
ATOM     42  C   UNL     1     -19.724  11.204  -6.393  0.00  0.00    +0.029 A 
BRANCH  32  33
ATOM     33  S   UNL     1     -16.622  13.179  -7.998  0.00  0.00    +0.001 S 
ATOM     37  O   UNL     1     -15.596  13.639  -7.229  0.00  0.00    -0.169 OA
ATOM     38  O   UNL     1     -17.381  14.142  -8.534  0.00  0.00    -0.169 OA
BRANCH  33  34
ATOM     34  C   UNL     1     -15.884  12.243  -9.334  0.00  0.00    +0.130 C 
ATOM     35  C   UNL     1     -16.985  11.670 -10.247  0.00  0.00    +0.032 C 
ATOM     36  C   UNL     1     -15.062  11.215  -8.572  0.00  0.00    +0.032 C 
ENDBRANCH  33  34
ENDBRANCH  32  33
ENDBRANCH  30  31
BRANCH  20  18
ATOM     18  N   UNL     1     -23.446  10.012  -8.758  0.00  0.00    -0.282 N 
ATOM     19  H   UNL     1     -24.446   9.915  -9.126  0.00  0.00    +0.155 HD
BRANCH  18  17
ATOM      4  C   UNL     1     -23.895   8.238  -7.264  0.00  0.00    +0.142 A 
ATOM      5  C   UNL     1     -23.445   7.195  -6.459  0.00  0.00    +0.051 A 
ATOM      6  C   UNL     1     -22.096   6.923  -6.336  0.00  0.00    -0.038 A 
ATOM     14  C   UNL     1     -21.180   7.667  -7.037  0.00  0.00    -0.045 A 
ATOM     15  C   UNL     1     -21.662   8.706  -7.833  0.00  0.00    +0.030 A 
ATOM     16  C   UNL     1     -19.693   7.418  -6.957  0.00  0.00    +0.044 C 
ATOM     17  C   UNL     1     -22.987   9.003  -7.969  0.00  0.00    +0.076 A 
BRANCH   6   7
ATOM      7  C   UNL     1     -21.628   5.755  -5.429  0.00  0.00    +0.022 C 
ATOM      8  C   UNL     1     -22.593   5.611  -4.247  0.00  0.00    +0.023 C 
ATOM      9  C   UNL     1     -22.068   4.447  -3.364  0.00  0.00    +0.085 C 
ATOM     10  N   UNL     1     -22.089   3.222  -4.127  0.00  0.00    -0.305 NA
ATOM     11  C   UNL     1     -21.170   3.235  -5.280  0.00  0.00    +0.085 C 
ATOM     12  C   UNL     1     -23.452   2.673  -4.334  0.00  0.00    +0.105 C 
ATOM     13  C   UNL     1     -21.551   4.426  -6.192  0.00  0.00    +0.023 C 
ENDBRANCH   6   7
BRANCH   4   3
ATOM      3  O   UNL     1     -25.190   8.587  -7.418  0.00  0.00    -0.487 OA
BRANCH   3   2
ATOM      1  C   UNL     1     -27.553   8.711  -6.868  0.00  0.00    +0.051 C 
ATOM      2  C   UNL     1     -26.274   7.845  -6.866  0.00  0.00    +0.167 C 
ATOM     44  C   UNL     1     -26.384   6.575  -7.730  0.00  0.00    +0.051 C 
ENDBRANCH   3   2
ENDBRANCH   4   3
ENDBRANCH  18  17
ENDBRANCH  20  18
TORSDOF 8
