REMARK  Name = 3up7_ligand
REMARK  5 active torsions:
REMARK  status: ('A' for Active; 'I' for Inactive)
REMARK    1  A    between atoms: N01_1  and  C09_9
REMARK    2  A    between atoms: N04_4  and  C13_13
REMARK    3  A    between atoms: N04_4  and  C16_16
REMARK    4  A    between atoms: C06_6  and  C11_11
REMARK    5  A    between atoms: C21_21  and  C22_22
REMARK                            x       y       z     vdW  Elec       q    Type
REMARK                         _______ _______ _______ _____ _____    ______ ____
ROOT
ATOM      1  N   UNL     1      -3.082 -32.841   6.780  0.00  0.00    -0.243 N 
ATOM      2  H   UNL     1      -3.116 -33.655   7.394  0.00  0.00    +0.219 HD
ATOM      3  C   UNL     1      -3.487 -31.726   7.298  0.00  0.00    +0.196 A 
ATOM      4  N   UNL     1      -3.221 -31.566   8.617  0.00  0.00    -0.268 NA
ATOM      5  C   UNL     1      -3.646 -30.402   9.188  0.00  0.00    +0.086 A 
ATOM      6  C   UNL     1      -4.320 -29.394   8.508  0.00  0.00    +0.057 A 
ATOM      7  C   UNL     1      -4.555 -29.639   7.154  0.00  0.00    +0.135 A 
ATOM     19  N   UNL     1      -4.146 -30.806   6.525  0.00  0.00    -0.234 NA
ENDROOT
BRANCH   1  20
ATOM     20  C   UNL     1      -2.635 -33.057   5.570  0.00  0.00    +0.068 A 
ATOM     21  C   UNL     1      -3.406 -32.746   4.392  0.00  0.00    +0.020 A 
ATOM     22  C   UNL     1      -2.893 -33.024   3.089  0.00  0.00    +0.005 A 
ATOM     23  C   UNL     1      -1.606 -33.619   2.949  0.00  0.00    -0.002 A 
ATOM     27  C   UNL     1      -0.840 -33.926   4.115  0.00  0.00    +0.005 A 
ATOM     28  C   UNL     1      -1.353 -33.646   5.413  0.00  0.00    +0.020 A 
BRANCH  23  24
ATOM     24  C   UNL     1      -1.108 -33.902   1.716  0.00  0.00    +0.055 C 
ATOM     25  O   UNL     1       0.120 -33.502   1.359  0.00  0.00    -0.564 OA
ATOM     26  O   UNL     1      -1.771 -34.531   0.941  0.00  0.00    -0.564 OA
ENDBRANCH  23  24
ENDBRANCH   1  20
BRANCH   7   8
ATOM      8  N   UNL     1      -5.191 -28.698   6.489  0.00  0.00    -0.253 N 
ATOM      9  H   UNL     1      -5.558 -27.922   7.040  0.00  0.00    +0.218 HD
BRANCH   8  10
ATOM     10  C   UNL     1      -5.406 -28.647   5.188  0.00  0.00    +0.079 A 
ATOM     11  C   UNL     1      -6.716 -28.237   4.682  0.00  0.00    +0.034 A 
ATOM     15  C   UNL     1      -6.932 -28.183   3.260  0.00  0.00    +0.005 A 
ATOM     16  C   UNL     1      -5.890 -28.524   2.352  0.00  0.00    -0.017 A 
ATOM     17  C   UNL     1      -4.615 -28.921   2.840  0.00  0.00    -0.008 A 
ATOM     18  C   UNL     1      -4.371 -28.982   4.237  0.00  0.00    +0.020 A 
BRANCH  11  12
ATOM     12  C   UNL     1      -7.759 -27.894   5.534  0.00  0.00    +0.058 C 
ATOM     13  O   UNL     1      -8.853 -28.691   5.625  0.00  0.00    -0.564 OA
ATOM     14  O   UNL     1      -7.701 -26.865   6.193  0.00  0.00    -0.564 OA
ENDBRANCH  11  12
ENDBRANCH   8  10
ENDBRANCH   7   8
TORSDOF 5
