REMARK  Name = 64S
REMARK  4 active torsions:
REMARK  status: ('A' for Active; 'I' for Inactive)
REMARK    1  A    between atoms: C10_1  and  O11_14
REMARK    2  A    between atoms: C13_2  and  O14_16
REMARK    3  A    between atoms: C02_6  and  N03_7
REMARK    4  A    between atoms: N03_7  and  C04_8
REMARK                            x       y       z     vdW  Elec       q    Type
REMARK                         _______ _______ _______ _____ _____    ______ ____
ROOT
ATOM      1  C   UNL     1      11.676   6.196  -0.517  0.00  0.00    +0.174 A 
ATOM      2  C   UNL     1      11.429   7.097   0.501  0.00  0.00    +0.059 A 
ATOM      3  C   UNL     1      10.072   7.604   0.685  0.00  0.00    +0.089 A 
ATOM      4  N   UNL     1       9.771   8.492   1.699  0.00  0.00    -0.224 NA
ATOM      5  C   UNL     1       8.477   8.981   1.875  0.00  0.00    +0.200 A 
ATOM      6  N   UNL     1       7.510   8.596   1.069  0.00  0.00    -0.207 NA
ATOM      7  C   UNL     1       7.752   7.726   0.064  0.00  0.00    +0.151 A 
ATOM     11  C   UNL     1       9.095   7.210  -0.132  0.00  0.00    +0.054 A 
ATOM     12  C   UNL     1       9.352   6.297  -1.191  0.00  0.00    +0.044 A 
ATOM     15  C   UNL     1      10.634   5.799  -1.374  0.00  0.00    +0.173 A 
ENDROOT
BRANCH   1  13
ATOM     13  O   UNL     1      13.052   5.724  -0.696  0.00  0.00    -0.468 OA
ATOM     14  C   UNL     1      13.353   4.353  -0.567  0.00  0.00    +0.253 C 
ENDBRANCH   1  13
BRANCH  15  16
ATOM     16  O   UNL     1      10.841   4.845  -2.502  0.00  0.00    -0.468 OA
ATOM     17  C   UNL     1      10.459   3.562  -2.240  0.00  0.00    +0.253 C 
ENDBRANCH  15  16
BRANCH   7   8
ATOM      8  N   UNL     1       6.728   7.312  -0.799  0.00  0.00    -0.220 NA
BRANCH   8   9
ATOM      9  C   UNL     1       5.478   7.962  -0.730  0.00  0.00    +0.114 C 
ATOM     10  C   UNL     1       4.555   7.383  -1.819  0.00  0.00    +0.025 C 
ENDBRANCH   8   9
ENDBRANCH   7   8
TORSDOF 4
