REMARK  Name = 1BYG
REMARK  5 active torsions:
REMARK  status: ('A' for Active; 'I' for Inactive)
REMARK    1  A    between atoms: C_4  and  N_34
REMARK    2  A    between atoms: C_5  and  O_32
REMARK    3  A    between atoms: C_6  and  C_7
REMARK    4  A    between atoms: O_32  and  C_33
REMARK    5  A    between atoms: N_34  and  C_35
REMARK                            x       y       z     vdW  Elec       q    Type
REMARK                         _______ _______ _______ _____ _____    ______ ____
ROOT
ATOM      1  O   UNL     1      28.973  42.614  12.453  0.00  0.00    -0.328 OA
ATOM      2  C   UNL     1      27.653  42.533  11.832  0.00  0.00    +0.174 C 
ATOM      3  N   UNL     1      27.389  43.828  11.123  0.00  0.00    -0.307 N 
ATOM      4  C   UNL     1      26.594  44.046   9.994  0.00  0.00    +0.053 A 
ATOM      5  C   UNL     1      25.846  43.157   9.192  0.00  0.00    +0.026 A 
ATOM      6  C   UNL     1      25.118  43.686   8.127  0.00  0.00    +0.002 A 
ATOM      7  C   UNL     1      25.144  45.064   7.809  0.00  0.00    +0.001 A 
ATOM      8  C   UNL     1      25.885  45.948   8.585  0.00  0.00    +0.010 A 
ATOM      9  C   UNL     1      26.609  45.427   9.689  0.00  0.00    +0.008 A 
ATOM     10  C   UNL     1      27.433  46.058  10.654  0.00  0.00    +0.019 A 
ATOM     11  C   UNL     1      27.760  47.392  10.921  0.00  0.00    +0.013 A 
ATOM     12  C   UNL     1      27.503  48.634  10.108  0.00  0.00    +0.110 C 
ATOM     13  N   UNL     1      28.024  49.665  10.946  0.00  0.00    -0.184 NA
ATOM     14  C   UNL     1      28.573  49.212  12.093  0.00  0.00    +0.269 C 
ATOM     15  O   UNL     1      29.145  49.897  12.983  0.00  0.00    -0.268 OA
ATOM     16  C   UNL     1      28.447  47.747  12.057  0.00  0.00    +0.058 A 
ATOM     17  C   UNL     1      28.930  46.755  12.924  0.00  0.00    +0.022 A 
ATOM     18  C   UNL     1      29.630  46.774  14.142  0.00  0.00    +0.009 A 
ATOM     19  C   UNL     1      30.160  47.834  14.926  0.00  0.00    +0.010 A 
ATOM     20  C   UNL     1      30.819  47.389  16.069  0.00  0.00    +0.001 A 
ATOM     21  C   UNL     1      30.922  46.033  16.441  0.00  0.00    +0.002 A 
ATOM     22  C   UNL     1      30.410  44.970  15.710  0.00  0.00    +0.026 A 
ATOM     23  C   UNL     1      29.768  45.423  14.540  0.00  0.00    +0.052 A 
ATOM     24  N   UNL     1      29.153  44.605  13.593  0.00  0.00    -0.312 N 
ATOM     25  C   UNL     1      28.657  45.410  12.618  0.00  0.00    +0.077 A 
ATOM     26  C   UNL     1      27.888  45.049  11.502  0.00  0.00    +0.077 A 
ATOM     27  C   UNL     1      27.842  41.331  10.891  0.00  0.00    +0.069 C 
ATOM     28  C   UNL     1      26.548  42.164  12.867  0.00  0.00    +0.187 C 
ATOM     31  C   UNL     1      27.132  41.470  14.110  0.00  0.00    +0.091 C 
ATOM     35  C   UNL     1      28.007  42.567  14.714  0.00  0.00    +0.076 C 
ATOM     36  C   UNL     1      29.029  43.150  13.745  0.00  0.00    +0.224 C 
ENDROOT
BRANCH  31  32
ATOM     32  N   UNL     1      26.018  40.937  14.919  0.00  0.00    -0.314 NA
ATOM     33  H   UNL     1      25.595  40.102  14.401  0.00  0.00    +0.122 HD
ATOM     34  C   UNL     1      26.420  40.490  16.277  0.00  0.00    +0.101 C 
ENDBRANCH  31  32
BRANCH  28  29
ATOM     29  O   UNL     1      26.101  43.414  13.387  0.00  0.00    -0.374 OA
ATOM     30  C   UNL     1      24.684  43.624  13.308  0.00  0.00    +0.194 C 
ENDBRANCH  28  29
TORSDOF 2
