REMARK  Name = 3R1Y
REMARK  4 active torsions:
REMARK  status: ('A' for Active; 'I' for Inactive)
REMARK    1  A    between atoms: N_1  and  C_6
REMARK    2  A    between atoms: N_1  and  C_11
REMARK    3  A    between atoms: C_5  and  C_10
REMARK    4  A    between atoms: C_11  and  C_12
REMARK                            x       y       z     vdW  Elec       q    Type
REMARK                         _______ _______ _______ _____ _____    ______ ____
ROOT
ATOM     10  C   UNL     1     119.941 -26.541 -48.460  0.00  0.00    +0.040 A 
ATOM     11  C   UNL     1     120.142 -27.151 -47.163  0.00  0.00    +0.024 A 
ATOM     12  C   UNL     1     121.421 -27.622 -46.768  0.00  0.00    +0.002 A 
ATOM     13  C   UNL     1     122.524 -27.498 -47.652  0.00  0.00    +0.001 A 
ATOM     14  C   UNL     1     122.351 -26.904 -48.934  0.00  0.00    +0.015 A 
ATOM     15  C   UNL     1     121.070 -26.420 -49.358  0.00  0.00    +0.057 A 
ENDROOT
BRANCH  15  16
ATOM     16  C   UNL     1     120.952 -25.855 -50.626  0.00  0.00    +0.243 C 
ATOM     17  O   UNL     1     120.155 -24.970 -50.856  0.00  0.00    -0.270 OA
ATOM     18  N   UNL     1     121.744 -26.315 -51.656  0.00  0.00    -0.325 N 
ATOM     19  H   UNL     1     121.657 -25.884 -52.632  0.00  0.00    +0.145 HD
ATOM     20  H   UNL     1     122.446 -27.103 -51.480  0.00  0.00    +0.145 HD
ENDBRANCH  15  16
BRANCH  10   1
ATOM      1  N   UNL     1     118.770 -26.104 -48.833  0.00  0.00    -0.339 N 
ATOM      2  H   UNL     1     118.717 -25.525 -49.731  0.00  0.00    +0.146 HD
BRANCH   1   3
ATOM      3  C   UNL     1     117.497 -26.357 -48.091  0.00  0.00    +0.138 C 
BRANCH   3   4
ATOM      4  C   UNL     1     117.277 -25.332 -47.004  0.00  0.00    -0.012 A 
ATOM      5  C   UNL     1     116.948 -25.744 -45.689  0.00  0.00    +0.008 A 
ATOM      6  C   UNL     1     116.744 -24.782 -44.666  0.00  0.00    +0.020 A 
ATOM      7  C   UNL     1     116.881 -23.420 -45.007  0.00  0.00    +0.111 A 
ATOM      8  N   UNL     1     117.201 -22.988 -46.274  0.00  0.00    -0.263 NA
ATOM      9  C   UNL     1     117.392 -23.945 -47.249  0.00  0.00    +0.115 A 
ENDBRANCH   3   4
ENDBRANCH   1   3
ENDBRANCH  10   1
TORSDOF 4
