REMARK  Name = 2o65_ligand
REMARK  6 active torsions:
REMARK  status: ('A' for Active; 'I' for Inactive)
REMARK    1  A    between atoms: C1_4  and  O21_5
REMARK    2  A    between atoms: C3_7  and  O20_8
REMARK    3  A    between atoms: C9_12  and  C11_14
REMARK    4  A    between atoms: C13_16  and  O19_17
REMARK    5  A    between atoms: C14_18  and  O18_19
REMARK    6  A    between atoms: C15_20  and  O17_22
REMARK                            x       y       z     vdW  Elec       q    Type
REMARK                         _______ _______ _______ _____ _____    ______ ____
ROOT
ATOM      1  O   UNL     1      75.005  36.157  -2.571  0.00  0.00    -0.427 OA
ATOM      2  C   UNL     1      75.312  35.723  -1.482  0.00  0.00    +0.097 A 
ATOM      3  C   UNL     1      75.228  36.618  -0.329  0.00  0.00    +0.040 A 
ATOM      4  C   UNL     1      75.607  36.169   0.881  0.00  0.00    +0.130 A 
ATOM     17  O   UNL     1      76.052  34.812   1.130  0.00  0.00    -0.244 OA
ATOM     18  C   UNL     1      76.151  33.901   0.094  0.00  0.00    +0.129 A 
ATOM     19  C   UNL     1      76.582  32.581   0.325  0.00  0.00    +0.037 A 
ATOM     20  C   UNL     1      76.708  31.664  -0.721  0.00  0.00    +0.077 A 
ATOM     23  C   UNL     1      76.386  32.001  -2.043  0.00  0.00    +0.032 A 
ATOM     24  C   UNL     1      75.925  33.287  -2.365  0.00  0.00    +0.094 A 
ATOM     27  C   UNL     1      75.784  34.313  -1.284  0.00  0.00    +0.077 A 
ENDROOT
BRANCH   4   5
ATOM      5  C   UNL     1      75.462  37.019   2.078  0.00  0.00    +0.003 A 
ATOM      6  C   UNL     1      75.374  36.374   3.327  0.00  0.00    +0.013 A 
ATOM      7  C   UNL     1      75.168  37.102   4.514  0.00  0.00    +0.115 A 
ATOM     10  C   UNL     1      75.026  38.597   4.406  0.00  0.00    +0.151 A 
ATOM     13  C   UNL     1      75.092  39.213   3.038  0.00  0.00    +0.115 A 
ATOM     16  C   UNL     1      75.292  38.397   1.926  0.00  0.00    +0.013 A 
BRANCH   7   8
ATOM      8  O   UNL     1      75.091  36.474   5.704  0.00  0.00    -0.339 OA
ATOM      9  H   UNL     1      74.951  37.115   6.391  0.00  0.00    +0.244 HD
ENDBRANCH   7   8
BRANCH  10  11
ATOM     11  O   UNL     1      74.833  39.372   5.476  0.00  0.00    -0.337 OA
ATOM     12  H   UNL     1      74.816  38.832   6.258  0.00  0.00    +0.243 HD
ENDBRANCH  10  11
BRANCH  13  14
ATOM     14  O   UNL     1      74.969  40.525   2.832  0.00  0.00    -0.339 OA
ATOM     15  H   UNL     1      74.838  40.964   3.664  0.00  0.00    +0.244 HD
ENDBRANCH  13  14
ENDBRANCH   4   5
BRANCH  20  21
ATOM     21  O   UNL     1      77.132  30.442  -0.421  0.00  0.00    -0.335 OA
ATOM     22  H   UNL     1      77.303  30.387   0.512  0.00  0.00    +0.249 HD
ENDBRANCH  20  21
BRANCH  24  25
ATOM     25  O   UNL     1      75.635  33.570  -3.634  0.00  0.00    -0.333 OA
ATOM     26  H   UNL     1      75.785  32.801  -4.171  0.00  0.00    +0.250 HD
ENDBRANCH  24  25
TORSDOF 6
