REMARK  Name = 3krj_ligand
REMARK  5 active torsions:
REMARK  status: ('A' for Active; 'I' for Inactive)
REMARK    1  A    between atoms: C02_2  and  C03_3
REMARK    2  A    between atoms: C06_6  and  C08_8
REMARK    3  A    between atoms: N10_10  and  C11_11
REMARK    4  A    between atoms: C14_14  and  C23_23
REMARK    5  A    between atoms: C16_16  and  C17_17
REMARK                            x       y       z     vdW  Elec       q    Type
REMARK                         _______ _______ _______ _____ _____    ______ ____
ROOT
ATOM      9  C   UNL     1       7.374  30.096   9.944  0.00  0.00    +0.067 A 
ATOM     10  C   UNL     1       6.661  31.195   9.381  0.00  0.00    -0.014 A 
ATOM     17  C   UNL     1       6.193  32.233  10.243  0.00  0.00    -0.021 A 
ATOM     18  C   UNL     1       6.409  32.157  11.649  0.00  0.00    -0.057 A 
ATOM     27  C   UNL     1       7.103  31.048  12.163  0.00  0.00    -0.025 A 
ATOM     28  C   UNL     1       7.578  30.039  11.334  0.00  0.00    -0.000 A 
ENDROOT
BRANCH  18  19
ATOM     19  C   UNL     1       5.964  33.170  12.724  0.00  0.00    +0.039 C 
ATOM     20  C   UNL     1       6.454  34.640  12.590  0.00  0.00    +0.066 C 
ATOM     21  C   UNL     1       5.546  35.739  13.188  0.00  0.00    +0.131 C 
ATOM     22  N   UNL     1       4.673  35.155  14.195  0.00  0.00    +0.227 N 
ATOM     23  H   UNL     1       4.182  35.877  14.699  0.00  0.00    +0.201 HD
ATOM     24  H   UNL     1       5.205  34.596  14.843  0.00  0.00    +0.201 HD
ATOM     25  C   UNL     1       3.738  34.324  13.451  0.00  0.00    +0.131 C 
ATOM     26  C   UNL     1       4.462  33.015  13.103  0.00  0.00    +0.066 C 
ENDBRANCH  18  19
BRANCH  10  11
ATOM     11  C   UNL     1       6.446  31.299   7.914  0.00  0.00    -0.060 C 
ATOM     12  C   UNL     1       7.345  32.236   7.111  0.00  0.00    +0.046 C 
ATOM     13  C   UNL     1       6.974  32.366   5.618  0.00  0.00    +0.012 C 
ATOM     14  C   UNL     1       6.653  31.007   4.987  0.00  0.00    +0.013 C 
ATOM     15  C   UNL     1       5.500  30.335   5.747  0.00  0.00    +0.045 C 
ATOM     16  C   UNL     1       5.706  30.375   7.256  0.00  0.00    -0.045 C 
ENDBRANCH  10  11
BRANCH   9   7
ATOM      6  C   UNL     1       8.633  28.006   9.517  0.00  0.00    +0.283 C 
ATOM      7  N   UNL     1       7.833  29.014   9.155  0.00  0.00    -0.230 N 
ATOM      8  H   UNL     1       7.519  29.002   8.206  0.00  0.00    +0.226 HD
ATOM     29  O   UNL     1       9.209  27.879  10.601  0.00  0.00    -0.363 OA
BRANCH   6   5
ATOM      3  C   UNL     1       8.664  25.685   6.723  0.00  0.00    +0.150 A 
ATOM      4  N   UNL     1       8.115  26.819   7.334  0.00  0.00    -0.272 NA
ATOM      5  C   UNL     1       8.816  26.984   8.453  0.00  0.00    +0.228 A 
ATOM     30  N   UNL     1       9.752  26.048   8.601  0.00  0.00    -0.231 N 
ATOM     31  H   UNL     1      10.411  25.971   9.389  0.00  0.00    +0.251 HD
ATOM     32  C   UNL     1       9.685  25.197   7.511  0.00  0.00    +0.209 A 
BRANCH   3   2
ATOM      1  N   UNL     1       7.768  24.779   4.476  0.00  0.00    -0.356 NA
ATOM      2  C   UNL     1       8.175  25.181   5.483  0.00  0.00    +0.080 C 
ENDBRANCH   3   2
ENDBRANCH   6   5
ENDBRANCH   9   7
TORSDOF 5
