REMARK  Name = 6CQ5
REMARK  2 active torsions:
REMARK  status: ('A' for Active; 'I' for Inactive)
REMARK    1  A    between atoms: C09_6  and  C10_7
REMARK    2  A    between atoms: C24_17  and  C25_18
REMARK                            x       y       z     vdW  Elec       q    Type
REMARK                         _______ _______ _______ _____ _____    ______ ____
ROOT
ATOM      1  C   UNL     1      -2.303 -30.391 -15.808  0.00  0.00    +0.430 A 
ATOM      2  N   UNL     1      -3.401 -29.916 -15.049  0.00  0.00    -0.760 NA
ATOM      3  C   UNL     1      -3.211 -29.740 -13.685  0.00  0.00    +0.565 A 
ATOM      4  O   UNL     1      -4.325 -29.262 -12.945  0.00  0.00    -0.370 OA
ATOM      5  C   UNL     1      -4.254 -29.110 -11.560  0.00  0.00    +0.185 A 
ATOM      6  C   UNL     1      -3.110 -29.350 -10.834  0.00  0.00    +0.000 A 
ATOM      7  C   UNL     1      -1.896 -29.794 -11.589  0.00  0.00    +0.550 A 
ATOM      8  O   UNL     1      -0.863 -29.977 -11.008  0.00  0.00    -0.550 OA
ATOM      9  C   UNL     1      -3.086 -29.179  -9.423  0.00  0.00    -0.130 A 
ATOM     10  C   UNL     1      -4.202 -28.764  -8.681  0.00  0.00    +0.000 A 
ATOM     19  C   UNL     1      -5.361 -28.524  -9.441  0.00  0.00    -0.130 A 
ATOM     20  C   UNL     1      -5.406 -28.680 -10.828  0.00  0.00    -0.130 A 
ATOM     21  C   UNL     1      -2.013 -30.003 -13.043  0.00  0.00    +0.000 A 
ATOM     22  C   UNL     1      -0.928 -30.484 -13.841  0.00  0.00    -0.130 A 
ATOM     23  N   UNL     1      -2.466 -30.574 -17.165  0.00  0.00    -0.550 NA
ATOM     24  C   UNL     1      -1.040 -30.686 -15.202  0.00  0.00    +0.000 A 
ENDROOT
BRANCH  10  11
ATOM     11  C   UNL     1      -4.167 -28.583  -7.146  0.00  0.00    -0.050 C 
ATOM     12  C   UNL     1      -2.936 -29.308  -6.555  0.00  0.00    -0.100 C 
ATOM     13  C   UNL     1      -3.065 -29.512  -5.044  0.00  0.00    -0.040 C 
ATOM     14  S   UNL     1      -4.066 -28.425  -4.203  0.00  0.00    +1.180 S 
ATOM     15  O   UNL     1      -3.647 -27.087  -4.407  0.00  0.00    -0.650 OA
ATOM     16  O   UNL     1      -4.124 -28.874  -2.852  0.00  0.00    -0.650 OA
ATOM     17  C   UNL     1      -5.579 -28.728  -4.933  0.00  0.00    -0.040 C 
ATOM     18  C   UNL     1      -5.551 -28.911  -6.448  0.00  0.00    -0.100 C 
ENDBRANCH  10  11
BRANCH  24  25
ATOM     25  C   UNL     1       0.138 -31.206 -16.087  0.00  0.00    +0.200 C 
ATOM     26  O   UNL     1      -0.114 -31.416 -17.291  0.00  0.00    -0.600 OA
ATOM     27  O   UNL     1       1.249 -31.373 -15.542  0.00  0.00    -0.600 OA
ENDBRANCH  24  25
TORSDOF 2
