REMARK  Name = MQO
REMARK  1 active torsions:
REMARK  status: ('A' for Active; 'I' for Inactive)
REMARK    1  A    between atoms: CAL_8  and  OAE_14
REMARK                            x       y       z     vdW  Elec       q    Type
REMARK                         _______ _______ _______ _____ _____    ______ ____
ROOT
ATOM      3  C   UNL     1      13.826   0.662  -0.976  0.00  0.00    +0.156 A 
ATOM      4  C   UNL     1      14.053  -0.447  -0.171  0.00  0.00    +0.034 A 
ATOM      5  C   UNL     1      15.339  -0.678   0.323  0.00  0.00    -0.019 A 
ATOM      6  C   UNL     1      15.628  -1.876   1.212  0.00  0.00    +0.031 C 
ATOM      7  C   UNL     1      16.376   0.186   0.006  0.00  0.00    +0.001 A 
ATOM      8  C   UNL     1      16.145   1.286  -0.796  0.00  0.00    +0.059 A 
ATOM      9  C   UNL     1      17.189   2.124  -1.113  0.00  0.00    +0.199 A 
ATOM     10  O   UNL     1      18.328   1.896  -0.686  0.00  0.00    -0.286 OA
ATOM     11  C   UNL     1      16.950   3.211  -1.917  0.00  0.00    +0.063 A 
ATOM     12  C   UNL     1      15.671   3.452  -2.399  0.00  0.00    +0.102 A 
ATOM     13  N   UNL     1      14.596   2.624  -2.100  0.00  0.00    -0.241 NA
ATOM     14  C   UNL     1      14.867   1.536  -1.290  0.00  0.00    +0.118 A 
ENDROOT
BRANCH   3   2
ATOM      1  C   UNL     1      12.411   0.070  -2.583  0.00  0.00    +0.253 C 
ATOM      2  O   UNL     1      12.581   0.882  -1.489  0.00  0.00    -0.470 OA
ENDBRANCH   3   2
TORSDOF 1
