REMARK  Name = 4l7f_ligand
REMARK  5 active torsions:
REMARK  status: ('A' for Active; 'I' for Inactive)
REMARK    1  A    between atoms: C50_7  and  C16_8
REMARK    2  A    between atoms: C16_8  and  N48_11
REMARK    3  A    between atoms: C27_12  and  C39_14
REMARK    4  A    between atoms: N34_27  and  C26_28
REMARK    5  A    between atoms: C20_33  and  O17_34
REMARK                            x       y       z     vdW  Elec       q    Type
REMARK                         _______ _______ _______ _____ _____    ______ ____
ROOT
ATOM     10  C   UNL     1      -4.319  52.822   2.720  0.00  0.00    +0.041 A 
ATOM     11  C   UNL     1      -5.469  52.241   3.262  0.00  0.00    +0.056 A 
ATOM     12  C   UNL     1      -5.733  52.319   4.636  0.00  0.00    +0.122 A 
ATOM     13  C   UNL     1      -4.824  52.945   5.473  0.00  0.00    +0.055 A 
ATOM     14  N   UNL     1      -5.050  53.010   6.809  0.00  0.00    -0.287 NA
ATOM     15  C   UNL     1      -6.159  52.464   7.363  0.00  0.00    +0.173 A 
ATOM     16  N   UNL     1      -6.409  52.539   8.689  0.00  0.00    -0.289 N 
ATOM     17  H   UNL     1      -7.252  52.079   9.060  0.00  0.00    +0.188 HD
ATOM     26  C   UNL     1      -7.088  51.812   6.556  0.00  0.00    +0.208 A 
ATOM     27  N   UNL     1      -8.249  51.175   6.808  0.00  0.00    -0.312 NA
ATOM     28  C   UNL     1      -8.725  50.708   5.639  0.00  0.00    +0.040 A 
ATOM     29  C   UNL     1      -7.855  51.073   4.675  0.00  0.00    +0.151 A 
ATOM     30  C   UNL     1      -3.687  53.536   4.933  0.00  0.00    +0.009 A 
ATOM     31  N   UNL     1      -6.850  51.729   5.237  0.00  0.00    -0.195 N 
ATOM     32  C   UNL     1      -3.424  53.470   3.575  0.00  0.00    +0.008 A 
ENDROOT
BRANCH  16  18
ATOM     18  C   UNL     1      -5.544  53.236   9.602  0.00  0.00    +0.099 C 
ATOM     19  C   UNL     1      -6.367  53.982  10.646  0.00  0.00    +0.031 C 
ATOM     20  C   UNL     1      -5.444  54.718  11.609  0.00  0.00    +0.034 C 
ATOM     21  C   UNL     1      -4.431  53.759  12.230  0.00  0.00    +0.115 C 
ATOM     24  C   UNL     1      -3.639  53.019  11.146  0.00  0.00    +0.034 C 
ATOM     25  C   UNL     1      -4.596  52.235  10.274  0.00  0.00    +0.031 C 
BRANCH  21  22
ATOM     22  O   UNL     1      -3.498  54.444  13.052  0.00  0.00    -0.392 OA
ATOM     23  H   UNL     1      -2.885  53.819  13.421  0.00  0.00    +0.210 HD
ENDBRANCH  21  22
ENDBRANCH  16  18
BRANCH  10   9
ATOM      7  N   UNL     1      -2.746  52.683   0.871  0.00  0.00    -0.315 N 
ATOM      8  H   UNL     1      -2.044  52.720   1.582  0.00  0.00    +0.172 HD
ATOM      9  C   UNL     1      -4.033  52.719   1.242  0.00  0.00    +0.192 C 
ATOM     33  O   UNL     1      -4.939  52.588   0.416  0.00  0.00    -0.388 OA
BRANCH   7   6
ATOM      6  C   UNL     1      -2.324  52.593  -0.516  0.00  0.00    +0.039 C 
ATOM     34  C   UNL     1      -2.648  51.264  -1.204  0.00  0.00    -0.023 C 
ATOM     35  C   UNL     1      -1.202  51.641  -0.892  0.00  0.00    -0.023 C 
BRANCH   6   5
ATOM      1  F   UNL     1      -3.278  57.458  -3.232  0.00  0.00    -0.156 F 
ATOM      2  C   UNL     1      -3.029  56.260  -2.630  0.00  0.00    +0.167 A 
ATOM      3  C   UNL     1      -2.792  55.102  -3.365  0.00  0.00    +0.073 A 
ATOM      4  C   UNL     1      -2.550  53.885  -2.722  0.00  0.00    +0.045 A 
ATOM      5  C   UNL     1      -2.537  53.843  -1.313  0.00  0.00    -0.031 A 
ATOM     36  C   UNL     1      -2.790  55.014  -0.589  0.00  0.00    +0.045 A 
ATOM     37  C   UNL     1      -3.022  56.211  -1.251  0.00  0.00    +0.073 A 
ENDBRANCH   6   5
ENDBRANCH   7   6
ENDBRANCH  10   9
TORSDOF 5
