REMARK  Name = 4im0_ligand
REMARK  9 active torsions:
REMARK  status: ('A' for Active; 'I' for Inactive)
REMARK    1  A    between atoms: CBF_4  and  CAZ_5
REMARK    2  A    between atoms: NAV_7  and  CAI_8
REMARK    3  A    between atoms: CAI_8  and  CAG_9
REMARK    4  A    between atoms: CAG_9  and  CAJ_10
REMARK    5  A    between atoms: CAJ_10  and  NAW_11
REMARK    6  A    between atoms: C5_14  and  CBG_15
REMARK    7  A    between atoms: NAX_21  and  CBB_22
REMARK    8  A    between atoms: CBA_27  and  CAS_28
REMARK    9  A    between atoms: CAS_28  and  NBH_29
REMARK                            x       y       z     vdW  Elec       q    Type
REMARK                         _______ _______ _______ _____ _____    ______ ____
ROOT
ATOM      9  N   UNL     1     107.945  14.460 -29.376  0.00  0.00    -0.306 N 
ATOM     10  H   UNL     1     107.665  14.210 -30.335  0.00  0.00    +0.183 HD
ATOM     11  C   UNL     1     108.721  15.508 -29.350  0.00  0.00    +0.118 A 
ATOM     12  C   UNL     1     108.943  16.006 -30.605  0.00  0.00    +0.017 A 
ATOM     13  C   UNL     1     109.733  17.132 -30.748  0.00  0.00    +0.079 A 
ATOM     14  N   UNL     1     110.268  17.660 -29.651  0.00  0.00    -0.278 NA
ATOM     15  C   UNL     1     110.058  17.146 -28.418  0.00  0.00    +0.187 A 
ATOM     16  N   UNL     1     110.640  17.741 -27.356  0.00  0.00    -0.250 N 
ATOM     17  H   UNL     1     111.232  18.559 -27.558  0.00  0.00    +0.216 HD
ATOM     35  N   UNL     1     109.268  16.067 -28.282  0.00  0.00    -0.245 NA
ENDROOT
BRANCH  16  18
ATOM     18  C   UNL     1     110.533  17.384 -26.056  0.00  0.00    +0.057 A 
ATOM     19  C   UNL     1     109.775  16.300 -25.595  0.00  0.00    +0.002 A 
ATOM     20  C   UNL     1     109.704  15.964 -24.252  0.00  0.00    -0.021 A 
ATOM     21  C   UNL     1     110.438  16.710 -23.344  0.00  0.00    -0.021 A 
ATOM     22  C   UNL     1     111.223  17.773 -23.778  0.00  0.00    -0.009 A 
ATOM     31  C   UNL     1     111.274  18.109 -25.126  0.00  0.00    +0.014 A 
BRANCH  22  23
ATOM     23  C   UNL     1     111.998  18.553 -22.713  0.00  0.00    +0.195 C 
BRANCH  23  24
ATOM     24  N   UNL     1     113.243  17.847 -22.371  0.00  0.00    +0.250 N 
ATOM     25  H   UNL     1     113.020  16.891 -22.142  0.00  0.00    +0.205 HD
ATOM     26  C   UNL     1     114.173  17.858 -23.510  0.00  0.00    +0.161 C 
ATOM     27  C   UNL     1     115.456  17.122 -23.131  0.00  0.00    +0.210 C 
ATOM     28  O   UNL     1     116.089  17.745 -22.001  0.00  0.00    -0.369 OA
ATOM     29  C   UNL     1     115.175  17.723 -20.881  0.00  0.00    +0.210 C 
ATOM     30  C   UNL     1     113.884  18.476 -21.213  0.00  0.00    +0.161 C 
ENDBRANCH  23  24
ENDBRANCH  22  23
ENDBRANCH  16  18
BRANCH  12  32
ATOM     32  C   UNL     1     108.236  15.251 -31.738  0.00  0.00    +0.038 C 
ATOM     33  C   UNL     1     107.166  16.030 -32.486  0.00  0.00    +0.017 C 
ATOM     34  C   UNL     1     108.512  15.736 -33.154  0.00  0.00    +0.017 C 
ENDBRANCH  12  32
BRANCH   9   8
ATOM      8  C   UNL     1     107.377  13.558 -28.392  0.00  0.00    +0.134 C 
BRANCH   8   7
ATOM      7  C   UNL     1     106.047  14.288 -28.210  0.00  0.00    +0.048 C 
BRANCH   7   6
ATOM      6  C   UNL     1     104.969  13.463 -27.557  0.00  0.00    +0.137 C 
BRANCH   6   4
ATOM      3  C   UNL     1     104.836  12.155 -29.795  0.00  0.00    +0.179 C 
ATOM      4  N   UNL     1     104.585  12.335 -28.468  0.00  0.00    -0.287 N 
ATOM      5  H   UNL     1     104.064  11.601 -28.034  0.00  0.00    +0.185 HD
ATOM     36  O   UNL     1     105.468  12.884 -30.564  0.00  0.00    -0.397 OA
BRANCH   3   2
ATOM      1  C   UNL     1     103.884   9.899 -29.255  0.00  0.00    +0.025 C 
ATOM      2  C   UNL     1     104.268  10.856 -30.377  0.00  0.00    +0.102 C 
ATOM     37  C   UNL     1     105.373   9.894 -30.815  0.00  0.00    +0.025 C 
ATOM     38  C   UNL     1     105.207   9.163 -29.482  0.00  0.00    +0.005 C 
ENDBRANCH   3   2
ENDBRANCH   6   4
ENDBRANCH   7   6
ENDBRANCH   8   7
ENDBRANCH   9   8
TORSDOF 9
