REMARK  Name = 2b54_ligand
REMARK  7 active torsions:
REMARK  status: ('A' for Active; 'I' for Inactive)
REMARK    1  A    between atoms: C7_2  and  C20_20
REMARK    2  A    between atoms: N1_7  and  C11_11
REMARK    3  A    between atoms: C3_9  and  C1_18
REMARK    4  A    between atoms: C1_18  and  C2_19
REMARK    5  A    between atoms: C20_20  and  C21_23
REMARK    6  A    between atoms: C23_25  and  O23_29
REMARK    7  A    between atoms: C24_26  and  O24_30
REMARK                            x       y       z     vdW  Elec       q    Type
REMARK                         _______ _______ _______ _____ _____    ______ ____
ROOT
ATOM      1  N   UNL     1     120.488 -84.937  91.864  0.00  0.00    -0.197 N 
ATOM      2  H   UNL     1     121.042 -85.276  91.103  0.00  0.00    +0.254 HD
ATOM      3  C   UNL     1     120.391 -85.652  93.022  0.00  0.00    +0.211 A 
ATOM      4  O   UNL     1     120.950 -86.744  93.157  0.00  0.00    -0.407 OA
ATOM      5  C   UNL     1     119.595 -85.178  94.053  0.00  0.00    +0.080 A 
ATOM      6  C   UNL     1     119.180 -85.581  95.397  0.00  0.00    +0.019 A 
ATOM      9  N   UNL     1     118.315 -84.686  95.924  0.00  0.00    -0.223 NA
ATOM     10  N   UNL     1     118.128 -83.685  94.994  0.00  0.00    -0.161 N 
ATOM     20  C   UNL     1     118.910 -83.947  93.872  0.00  0.00    +0.144 A 
ATOM     21  N   UNL     1     119.025 -83.237  92.723  0.00  0.00    -0.269 NA
ATOM     22  C   UNL     1     119.817 -83.751  91.759  0.00  0.00    +0.158 A 
ENDROOT
BRANCH  10  11
ATOM     11  C   UNL     1     117.159 -82.629  95.103  0.00  0.00    +0.134 A 
ATOM     12  C   UNL     1     117.439 -81.268  95.324  0.00  0.00    +0.075 A 
ATOM     13 CL   UNL     1     119.039 -80.650  95.362  0.00  0.00    -0.075 Cl
ATOM     14  C   UNL     1     116.430 -80.310  95.516  0.00  0.00    +0.022 A 
ATOM     15  C   UNL     1     115.085 -80.667  95.503  0.00  0.00    +0.033 A 
ATOM     16 CL   UNL     1     113.835 -79.427  95.839  0.00  0.00    -0.078 Cl
ATOM     17  C   UNL     1     114.787 -82.025  95.271  0.00  0.00    +0.022 A 
ATOM     18  C   UNL     1     115.817 -82.978  95.073  0.00  0.00    +0.075 A 
ATOM     19 CL   UNL     1     115.442 -84.638  94.682  0.00  0.00    -0.075 Cl
ENDBRANCH  10  11
BRANCH   6   7
ATOM      7  C   UNL     1     119.483 -86.803  96.213  0.00  0.00    +0.066 C 
ATOM      8  C   UNL     1     118.547 -87.952  95.844  0.00  0.00    +0.020 C 
ENDBRANCH   6   7
BRANCH  22  23
ATOM     23  C   UNL     1     119.896 -82.956  90.460  0.00  0.00    +0.205 C 
BRANCH  23  24
ATOM     24  C   UNL     1     121.178 -82.159  90.277  0.00  0.00    -0.040 A 
ATOM     25  C   UNL     1     122.309 -82.819  89.767  0.00  0.00    -0.032 A 
ATOM     26  C   UNL     1     123.538 -82.150  89.639  0.00  0.00    +0.002 A 
ATOM     27  C   UNL     1     123.628 -80.794  90.026  0.00  0.00    +0.110 A 
ATOM     30  C   UNL     1     122.497 -80.109  90.502  0.00  0.00    +0.111 A 
ATOM     33  C   UNL     1     121.251 -80.789  90.632  0.00  0.00    +0.009 A 
BRANCH  27  28
ATOM     28  O   UNL     1     124.855 -80.144  89.995  0.00  0.00    -0.341 OA
ATOM     29  H   UNL     1     124.744 -79.246  90.283  0.00  0.00    +0.242 HD
ENDBRANCH  27  28
BRANCH  30  31
ATOM     31  O   UNL     1     122.655 -78.776  90.872  0.00  0.00    -0.338 OA
ATOM     32  H   UNL     1     121.823 -78.431  91.174  0.00  0.00    +0.244 HD
ENDBRANCH  30  31
ENDBRANCH  23  24
ENDBRANCH  22  23
TORSDOF 6
