REMARK  Name = 4gv1_ligand
REMARK  7 active torsions:
REMARK  status: ('A' for Active; 'I' for Inactive)
REMARK    1  A    between atoms: C24_7  and  C20_8
REMARK    2  A    between atoms: C20_8  and  C21_9
REMARK    3  A    between atoms: C20_8  and  N19_12
REMARK    4  A    between atoms: C21_9  and  C22_10
REMARK    5  A    between atoms: C22_10  and  O23_11
REMARK    6  A    between atoms: C17_13  and  C13_15
REMARK    7  A    between atoms: C13_15  and  N16_18
REMARK                            x       y       z     vdW  Elec       q    Type
REMARK                         _______ _______ _______ _____ _____    ______ ____
ROOT
ATOM     10  C   UNL     1     -20.380   5.780  11.860  0.00  0.00    +0.072 C 
ATOM     11  C   UNL     1     -21.195   4.693  11.097  0.00  0.00    +0.088 C 
ATOM     12  C   UNL     1     -20.510   4.326   9.776  0.00  0.00    +0.143 C 
ATOM     13  N   UNL     1     -20.590   5.590   9.061  0.00  0.00    -0.288 N 
ATOM     14  C   UNL     1     -21.666   6.024   8.273  0.00  0.00    +0.121 A 
ATOM     15  C   UNL     1     -22.782   5.280   7.878  0.00  0.00    +0.043 A 
ATOM     16  C   UNL     1     -23.763   5.914   7.161  0.00  0.00    +0.136 A 
ATOM     17  N   UNL     1     -24.738   5.048   6.851  0.00  0.00    -0.267 N 
ATOM     18  H   UNL     1     -25.597   5.287   6.336  0.00  0.00    +0.232 HD
ATOM     19  C   UNL     1     -24.432   3.820   7.310  0.00  0.00    +0.117 A 
ATOM     20  N   UNL     1     -23.711   7.245   6.831  0.00  0.00    -0.277 NA
ATOM     21  C   UNL     1     -22.639   7.973   7.253  0.00  0.00    +0.148 A 
ATOM     22  C   UNL     1     -23.233   3.963   7.985  0.00  0.00    -0.023 A 
ATOM     23  N   UNL     1     -21.620   7.364   7.947  0.00  0.00    -0.273 NA
ATOM     24  C   UNL     1     -19.577   6.558   9.539  0.00  0.00    +0.143 C 
ATOM     29  C   UNL     1     -20.094   6.971  10.941  0.00  0.00    +0.088 C 
ENDROOT
BRANCH  10   9
ATOM      7  N   UNL     1     -19.183   4.131  13.271  0.00  0.00    -0.267 N 
ATOM      8  H   UNL     1     -20.092   3.878  13.602  0.00  0.00    +0.189 HD
ATOM      9  C   UNL     1     -19.074   5.135  12.345  0.00  0.00    +0.250 C 
ATOM     30  O   UNL     1     -17.965   5.454  11.913  0.00  0.00    -0.338 OA
BRANCH   7   6
ATOM      6  C   UNL     1     -18.012   3.411  13.797  0.00  0.00    +0.150 C 
BRANCH   6   5
ATOM      1 CL   UNL     1     -16.185  -0.478   9.590  0.00  0.00    -0.077 Cl
ATOM      2  C   UNL     1     -16.723   0.636  10.789  0.00  0.00    +0.033 A 
ATOM      3  C   UNL     1     -15.834   1.605  11.238  0.00  0.00    +0.006 A 
ATOM      4  C   UNL     1     -16.239   2.511  12.217  0.00  0.00    -0.002 A 
ATOM      5  C   UNL     1     -17.534   2.439  12.724  0.00  0.00    -0.018 A 
ATOM     35  C   UNL     1     -18.418   1.463  12.250  0.00  0.00    -0.002 A 
ATOM     36  C   UNL     1     -18.015   0.554  11.285  0.00  0.00    +0.006 A 
ENDBRANCH   6   5
BRANCH   6  31
ATOM     31  C   UNL     1     -18.385   2.659  15.096  0.00  0.00    +0.070 C 
BRANCH  31  32
ATOM     32  C   UNL     1     -18.782   3.584  16.255  0.00  0.00    +0.160 C 
BRANCH  32  33
ATOM     33  O   UNL     1     -17.708   4.420  16.641  0.00  0.00    -0.395 OA
ATOM     34  H   UNL     1     -17.985   4.979  17.358  0.00  0.00    +0.209 HD
ENDBRANCH  32  33
ENDBRANCH  31  32
ENDBRANCH   6  31
ENDBRANCH   7   6
ENDBRANCH  10   9
BRANCH  10  25
ATOM     25  N   UNL     1     -21.172   6.241  13.023  0.00  0.00    +0.223 N 
ATOM     26  H   UNL     1     -20.651   6.941  13.528  0.00  0.00    +0.200 HD
ATOM     27  H   UNL     1     -22.042   6.637  12.702  0.00  0.00    +0.200 HD
ATOM     28  H   UNL     1     -21.363   5.460  13.631  0.00  0.00    +0.200 HD
ENDBRANCH  10  25
TORSDOF 7
