REMARK  Name = 5P9J
REMARK  7 active torsions:
REMARK  status: ('A' for Active; 'I' for Inactive)
REMARK    1  A    between atoms: C_6  and  N_8
REMARK    2  A    between atoms: C_7  and  C_10
REMARK    3  A    between atoms: C_10  and  C_26
REMARK    4  A    between atoms: O_25  and  C_27
REMARK    5  A    between atoms: O_25  and  C_28
REMARK    6  A    between atoms: C_29  and  C_30
REMARK    7  A    between atoms: C_31  and  N_32
REMARK                            x       y       z     vdW  Elec       q    Type
REMARK                         _______ _______ _______ _____ _____    ______ ____
ROOT
ATOM      1  N   UNL     1      17.996   4.906   0.251  0.00  0.00    -0.220 NA
ATOM      2  C   UNL     1      18.035   5.202   1.583  0.00  0.00    +0.131 A 
ATOM      6  C   UNL     1      19.244   5.770   2.045  0.00  0.00    +0.086 A 
ATOM      7  C   UNL     1      19.757   6.277   3.360  0.00  0.00    +0.105 A 
ATOM     21  N   UNL     1      20.956   6.785   3.152  0.00  0.00    -0.168 NA
ATOM     22  N   UNL     1      21.240   6.660   1.801  0.00  0.00    -0.241 N 
ATOM     33  C   UNL     1      20.287   6.087   1.106  0.00  0.00    +0.164 A 
ATOM     34  N   UNL     1      20.165   5.774  -0.209  0.00  0.00    -0.216 NA
ATOM     35  C   UNL     1      19.029   5.210  -0.502  0.00  0.00    +0.225 A 
ENDROOT
BRANCH  22  23
ATOM     23  C   UNL     1      22.532   7.127   1.261  0.00  0.00    +0.127 C 
ATOM     24  C   UNL     1      22.234   8.540   0.826  0.00  0.00    +0.134 C 
ATOM     25  N   UNL     1      23.477   9.237   0.497  0.00  0.00    -0.299 N 
ATOM     26  C   UNL     1      23.702   9.561  -0.811  0.00  0.00    +0.215 C 
ATOM     29  O   UNL     1      22.896   9.271  -1.719  0.00  0.00    -0.276 OA
ATOM     30  C   UNL     1      24.375   9.395   1.601  0.00  0.00    +0.108 C 
ATOM     31  C   UNL     1      24.944   7.933   1.767  0.00  0.00    +0.021 C 
ATOM     32  C   UNL     1      23.791   6.994   2.161  0.00  0.00    +0.030 C 
BRANCH  26  27
ATOM     27  C   UNL     1      24.926  10.401  -1.225  0.00  0.00    +0.092 C 
ATOM     28  C   UNL     1      24.636  11.914  -0.796  0.00  0.00    +0.013 C 
ENDBRANCH  26  27
ENDBRANCH  22  23
BRANCH   7   8
ATOM      8  C   UNL     1      19.109   6.221   4.675  0.00  0.00    +0.003 A 
ATOM      9  C   UNL     1      19.004   7.377   5.430  0.00  0.00    +0.013 A 
ATOM     10  C   UNL     1      18.403   7.301   6.655  0.00  0.00    +0.047 A 
ATOM     11  C   UNL     1      18.005   6.032   7.186  0.00  0.00    +0.129 A 
ATOM     19  C   UNL     1      18.227   4.860   6.454  0.00  0.00    +0.047 A 
ATOM     20  C   UNL     1      18.766   4.955   5.197  0.00  0.00    +0.013 A 
BRANCH  11  12
ATOM     12  O   UNL     1      17.473   5.899   8.446  0.00  0.00    -0.456 OA
BRANCH  12  13
ATOM     13  C   UNL     1      16.539   6.777   8.917  0.00  0.00    +0.128 A 
ATOM     14  C   UNL     1      16.634   7.082  10.226  0.00  0.00    +0.046 A 
ATOM     15  C   UNL     1      15.731   7.994  10.795  0.00  0.00    +0.004 A 
ATOM     16  C   UNL     1      14.681   8.437  10.029  0.00  0.00    +0.000 A 
ATOM     17  C   UNL     1      14.539   8.013   8.709  0.00  0.00    +0.004 A 
ATOM     18  C   UNL     1      15.458   7.201   8.143  0.00  0.00    +0.046 A 
ENDBRANCH  12  13
ENDBRANCH  11  12
ENDBRANCH   7   8
BRANCH   2   3
ATOM      3  N   UNL     1      16.993   4.962   2.344  0.00  0.00    -0.343 N 
ATOM      4  H   UNL     1      17.028   5.196   3.388  0.00  0.00    +0.144 HD
ATOM      5  H   UNL     1      16.109   4.533   1.921  0.00  0.00    +0.144 HD
ENDBRANCH   2   3
TORSDOF 6
