REMARK  Name = 5UG8
REMARK  9 active torsions:
REMARK  status: ('A' for Active; 'I' for Inactive)
REMARK    1  A    between atoms: C_3  and  N_21
REMARK    2  A    between atoms: N_5  and  C_7
REMARK    3  A    between atoms: C_7  and  C_8
REMARK    4  A    between atoms: C_7  and  C_20
REMARK    5  A    between atoms: C_10  and  N_23
REMARK    6  A    between atoms: C_11  and  C_28
REMARK    7  A    between atoms: C_11  and  C_29
REMARK    8  A    between atoms: C_12  and  N_27
REMARK    9  A    between atoms: N_21  and  C_22
REMARK                            x       y       z     vdW  Elec       q    Type
REMARK                         _______ _______ _______ _____ _____    ______ ____
ROOT
ATOM      1  C   UNL     1     -15.017  16.863 -25.824  0.00  0.00    +0.133 C 
ATOM      2  N   UNL     1     -13.859  17.045 -26.690  0.00  0.00    -0.295 N 
ATOM      3  C   UNL     1     -13.384  18.412 -26.734  0.00  0.00    +0.146 C 
ATOM      4  C   UNL     1     -14.604  19.186 -26.247  0.00  0.00    +0.205 C 
ATOM      5  F   UNL     1     -15.469  19.365 -27.288  0.00  0.00    -0.242 F 
ATOM      6  C   UNL     1     -13.278  16.004 -27.373  0.00  0.00    +0.222 A 
ATOM      7  N   UNL     1     -12.179  16.227 -28.145  0.00  0.00    -0.195 NA
ATOM      8  C   UNL     1     -11.686  15.102 -28.731  0.00  0.00    +0.168 A 
ATOM      9  C   UNL     1     -12.187  13.801 -28.622  0.00  0.00    +0.148 A 
ATOM     10  N   UNL     1     -11.416  12.929 -29.356  0.00  0.00    -0.231 NA
ATOM     11  C   UNL     1     -10.475  13.679 -29.895  0.00  0.00    +0.202 A 
ATOM     12  C   UNL     1     -13.346  13.635 -27.812  0.00  0.00    +0.156 A 
ATOM     21  N   UNL     1     -10.594  15.014 -29.549  0.00  0.00    -0.312 N 
ATOM     25  N   UNL     1     -13.840  14.773 -27.216  0.00  0.00    -0.197 NA
ATOM     26  C   UNL     1     -15.251  18.258 -25.238  0.00  0.00    +0.126 C 
ENDROOT
BRANCH  26  27
ATOM     27  N   UNL     1     -14.550  18.378 -23.955  0.00  0.00    -0.308 N 
ATOM     28  H   UNL     1     -13.619  18.905 -23.940  0.00  0.00    +0.149 HD
ATOM     29  C   UNL     1     -15.018  17.851 -22.759  0.00  0.00    +0.213 C 
ATOM     30  O   UNL     1     -16.073  17.221 -22.619  0.00  0.00    -0.276 OA
BRANCH  29  31
ATOM     31  C   UNL     1     -14.041  18.158 -21.630  0.00  0.00    +0.092 C 
ATOM     32  C   UNL     1     -14.392  17.502 -20.303  0.00  0.00    +0.013 C 
ENDBRANCH  29  31
ENDBRANCH  26  27
BRANCH  21  22
ATOM     22  C   UNL     1      -9.754  16.160 -29.943  0.00  0.00    +0.084 C 
ATOM     23  C   UNL     1     -10.370  16.900 -31.134  0.00  0.00    +0.030 C 
ATOM     24  C   UNL     1      -8.304  15.775 -30.290  0.00  0.00    +0.030 C 
ENDBRANCH  21  22
BRANCH  12  13
ATOM     13  N   UNL     1     -13.980  12.390 -27.610  0.00  0.00    -0.295 N 
ATOM     14  H   UNL     1     -13.520  11.555 -28.096  0.00  0.00    +0.154 HD
BRANCH  13  15
ATOM     15  C   UNL     1     -15.106  12.099 -26.876  0.00  0.00    +0.070 A 
ATOM     16  C   UNL     1     -15.668  10.820 -26.725  0.00  0.00    +0.157 A 
ATOM     17  N   UNL     1     -16.767  10.824 -25.959  0.00  0.00    -0.178 NA
ATOM     18  N   UNL     1     -16.907  12.116 -25.621  0.00  0.00    -0.273 N 
ATOM     19  C   UNL     1     -18.008  12.519 -24.781  0.00  0.00    +0.172 C 
ATOM     20  C   UNL     1     -15.945  12.923 -26.137  0.00  0.00    +0.131 A 
ENDBRANCH  13  15
ENDBRANCH  12  13
TORSDOF 5
