REMARK  Name = 5F20
REMARK  5 active torsions:
REMARK  status: ('A' for Active; 'I' for Inactive)
REMARK    1  A    between atoms: C_4  and  N_14
REMARK    2  A    between atoms: C_5  and  C_16
REMARK    3  A    between atoms: C_7  and  N_18
REMARK    4  A    between atoms: C_9  and  N_22
REMARK    5  A    between atoms: C_11  and  C_12
REMARK                            x       y       z     vdW  Elec       q    Type
REMARK                         _______ _______ _______ _____ _____    ______ ____
ROOT
ATOM      6  N   UNL     1      23.997 -20.549   6.105  0.00  0.00    -0.283 N 
ATOM      7  C   UNL     1      24.226 -21.885   5.961  0.00  0.00    +0.107 C 
ATOM      8  C   UNL     1      25.393 -22.340   5.447  0.00  0.00    +0.044 C 
ATOM     15  C   UNL     1      26.411 -21.386   5.025  0.00  0.00    +0.084 C 
ATOM     16  C   UNL     1      26.148 -20.008   5.130  0.00  0.00    +0.106 C 
ATOM     17  C   UNL     1      27.349 -19.345   4.600  0.00  0.00    +0.151 C 
ATOM     21  N   UNL     1      28.190 -20.274   4.234  0.00  0.00    -0.158 NA
ATOM     22  N   UNL     1      27.639 -21.534   4.479  0.00  0.00    -0.274 NA
ATOM     23  H   UNL     1      28.114 -22.469   4.268  0.00  0.00    +0.189 HD
ATOM     24  C   UNL     1      24.896 -19.595   5.685  0.00  0.00    +0.268 C 
ATOM     25  O   UNL     1      24.652 -18.388   5.797  0.00  0.00    -0.267 OA
ENDROOT
BRANCH   6   5
ATOM      1  C   UNL     1      20.234 -19.572   7.638  0.00  0.00    +0.000 A 
ATOM      2  C   UNL     1      21.343 -19.314   8.422  0.00  0.00    +0.005 A 
ATOM      3  C   UNL     1      22.600 -19.628   7.946  0.00  0.00    -0.026 A 
ATOM      4  C   UNL     1      23.754 -19.320   8.868  0.00  0.00    +0.046 C 
ATOM      5  C   UNL     1      22.747 -20.199   6.660  0.00  0.00    +0.052 A 
ATOM     26  C   UNL     1      21.613 -20.456   5.887  0.00  0.00    +0.026 A 
ATOM     27  C   UNL     1      20.360 -20.139   6.377  0.00  0.00    +0.002 A 
ENDBRANCH   6   5
BRANCH   8   9
ATOM      9  C   UNL     1      25.594 -23.791   5.225  0.00  0.00    +0.096 A 
ATOM     10  N   UNL     1      26.708 -24.433   4.918  0.00  0.00    -0.171 NA
ATOM     11  N   UNL     1      26.365 -25.785   4.769  0.00  0.00    -0.274 N 
ATOM     12  C   UNL     1      27.247 -26.915   4.447  0.00  0.00    +0.172 C 
ATOM     13  C   UNL     1      25.043 -25.920   4.980  0.00  0.00    +0.108 A 
ATOM     14  C   UNL     1      24.535 -24.711   5.248  0.00  0.00    +0.049 A 
ENDBRANCH   8   9
BRANCH  17  18
ATOM     18  N   UNL     1      27.610 -17.988   4.488  0.00  0.00    -0.341 NA
ATOM     19  H   UNL     1      26.879 -17.275   4.806  0.00  0.00    +0.144 HD
ATOM     20  H   UNL     1      28.543 -17.654   4.083  0.00  0.00    +0.144 HD
ENDBRANCH  17  18
TORSDOF 3
