REMARK  Name = 3pa4_ligand
REMARK  3 active torsions:
REMARK  status: ('A' for Active; 'I' for Inactive)
REMARK    1  A    between atoms: C02_2  and  C11_11
REMARK    2  A    between atoms: C06_6  and  C12_12
REMARK    3  A    between atoms: N10_10  and  C13_13
REMARK                            x       y       z     vdW  Elec       q    Type
REMARK                         _______ _______ _______ _____ _____    ______ ____
ROOT
ATOM      1  C   UNL     1      18.363  -2.974  10.418  0.00  0.00    +0.000 A 
ATOM      2  C   UNL     1      16.986  -2.755  10.743  0.00  0.00    +0.033 A 
ATOM      3  C   UNL     1      16.106  -3.440  11.661  0.00  0.00    +0.118 A 
ATOM      4  N   UNL     1      16.534  -4.527  12.387  0.00  0.00    -0.296 N 
ATOM      5  H   UNL     1      17.335  -5.073  12.070  0.00  0.00    +0.185 HD
ATOM     14  N   UNL     1      14.812  -3.040  11.749  0.00  0.00    -0.289 NA
ATOM     15  C   UNL     1      14.371  -1.981  11.115  0.00  0.00    +0.083 A 
ATOM     16  C   UNL     1      15.129  -1.236  10.272  0.00  0.00    +0.073 A 
ATOM     22  C   UNL     1      16.468  -1.652  10.072  0.00  0.00    +0.065 A 
ATOM     23  S   UNL     1      17.657  -0.936   9.066  0.00  0.00    -0.026 S 
ATOM     24  C   UNL     1      18.858  -2.037   9.515  0.00  0.00    +0.039 A 
ENDROOT
BRANCH   4   6
ATOM      6  C   UNL     1      15.828  -4.896  13.623  0.00  0.00    +0.141 C 
ATOM      7  C   UNL     1      16.270  -6.338  13.976  0.00  0.00    +0.039 C 
ATOM      8  C   UNL     1      15.675  -6.789  15.328  0.00  0.00    +0.053 C 
ATOM      9  C   UNL     1      16.117  -5.783  16.405  0.00  0.00    +0.129 C 
ATOM     10  N   UNL     1      15.635  -4.433  16.070  0.00  0.00    +0.229 N 
ATOM     11  H   UNL     1      15.916  -3.799  16.818  0.00  0.00    +0.201 HD
ATOM     12  H   UNL     1      14.621  -4.473  15.964  0.00  0.00    +0.201 HD
ATOM     13  C   UNL     1      16.222  -3.931  14.784  0.00  0.00    +0.158 C 
ENDBRANCH   4   6
BRANCH  24  25
ATOM     25  C   UNL     1      20.220  -1.970   8.936  0.00  0.00    -0.009 A 
ATOM     26  C   UNL     1      21.090  -3.044   9.115  0.00  0.00    +0.007 A 
ATOM     27  C   UNL     1      22.373  -3.002   8.563  0.00  0.00    +0.013 A 
ATOM     28  C   UNL     1      22.767  -1.873   7.862  0.00  0.00    +0.039 A 
ATOM     29 CL   UNL     1      24.362  -1.810   7.174  0.00  0.00    -0.071 Cl
ATOM     30  C   UNL     1      21.909  -0.793   7.675  0.00  0.00    +0.013 A 
ATOM     31  C   UNL     1      20.632  -0.845   8.219  0.00  0.00    +0.007 A 
ENDBRANCH  24  25
BRANCH  16  17
ATOM     17  C   UNL     1      14.593  -0.075   9.578  0.00  0.00    +0.196 C 
ATOM     18  O   UNL     1      15.235   0.480   8.662  0.00  0.00    -0.391 OA
ATOM     19  N   UNL     1      13.345   0.387   9.993  0.00  0.00    -0.302 N 
ATOM     20  H   UNL     1      12.848  -0.091  10.745  0.00  0.00    +0.180 HD
ATOM     21  H   UNL     1      12.929   1.203   9.545  0.00  0.00    +0.180 HD
ENDBRANCH  16  17
TORSDOF 3
