REMARK  Name = 5NAD
REMARK  12 active torsions:
REMARK  status: ('A' for Active; 'I' for Inactive)
REMARK    1  A    between atoms: C_1  and  O_9
REMARK    2  A    between atoms: C_2  and  N_24
REMARK    3  A    between atoms: C_4  and  C_28
REMARK    4  A    between atoms: C_6  and  C_7
REMARK    5  A    between atoms: C_6  and  N_24
REMARK    6  A    between atoms: C_7  and  C_8
REMARK    7  A    between atoms: O_9  and  C_17
REMARK    8  A    between atoms: C_12  and  O_13
REMARK    9  A    between atoms: O_13  and  C_14
REMARK   10  A    between atoms: C_31  and  C_35
REMARK   11  A    between atoms: C_32  and  C_33
REMARK   12  A    between atoms: N_37  and  C_38
REMARK                            x       y       z     vdW  Elec       q    Type
REMARK                         _______ _______ _______ _____ _____    ______ ____
ROOT
ATOM      1  C   UNL     1      -0.113  37.398  45.935  0.00  0.00    +0.240 A 
ATOM      2  N   UNL     1      -0.665  36.340  45.315  0.00  0.00    -0.126 NA
ATOM      3  N   UNL     1      -0.409  35.072  45.773  0.00  0.00    -0.207 N 
ATOM      4  C   UNL     1       0.365  34.854  46.843  0.00  0.00    +0.176 A 
ATOM      5  N   UNL     1       0.402  33.503  47.051  0.00  0.00    -0.233 NA
ATOM      6  C   UNL     1      -0.350  32.901  46.078  0.00  0.00    +0.141 A 
ATOM      7  C   UNL     1       0.917  35.970  47.512  0.00  0.00    +0.077 A 
ATOM     16  C   UNL     1      -0.864  33.920  45.281  0.00  0.00    +0.093 A 
ATOM     42  C   UNL     1       0.683  37.249  47.039  0.00  0.00    +0.095 A 
ENDROOT
BRANCH  16  17
ATOM     17  C   UNL     1      -1.701  33.949  44.034  0.00  0.00    +0.002 A 
ATOM     18  C   UNL     1      -2.079  35.112  43.373  0.00  0.00    +0.014 A 
ATOM     19  C   UNL     1      -2.834  35.097  42.201  0.00  0.00    -0.038 A 
ATOM     20  C   UNL     1      -3.244  36.381  41.516  0.00  0.00    +0.044 C 
ATOM     21  C   UNL     1      -3.197  33.796  41.632  0.00  0.00    +0.040 A 
ATOM     29  C   UNL     1      -2.772  32.666  42.278  0.00  0.00    +0.014 A 
ATOM     30  C   UNL     1      -2.034  32.746  43.453  0.00  0.00    +0.011 A 
BRANCH  21  22
ATOM     22  C   UNL     1      -3.976  33.740  40.377  0.00  0.00    +0.245 C 
ATOM     23  N   UNL     1      -3.333  33.463  39.215  0.00  0.00    -0.309 N 
ATOM     24  H   UNL     1      -2.674  32.636  39.376  0.00  0.00    +0.149 HD
ATOM     28  O   UNL     1      -5.156  33.993  40.380  0.00  0.00    -0.270 OA
BRANCH  23  25
ATOM     25  C   UNL     1      -4.265  33.120  38.124  0.00  0.00    +0.073 C 
ATOM     26  C   UNL     1      -3.788  32.031  37.168  0.00  0.00    +0.024 C 
ATOM     27  C   UNL     1      -4.882  31.731  38.212  0.00  0.00    +0.024 C 
ENDBRANCH  23  25
ENDBRANCH  21  22
ENDBRANCH  16  17
BRANCH   7   8
ATOM      8  N   UNL     1       1.717  35.818  48.658  0.00  0.00    -0.341 N 
ATOM      9  H   UNL     1       1.994  36.781  49.034  0.00  0.00    +0.146 HD
BRANCH   8  10
ATOM     10  C   UNL     1       0.948  35.094  49.675  0.00  0.00    +0.110 C 
BRANCH  10  11
ATOM     11  C   UNL     1       1.704  35.072  50.984  0.00  0.00    +0.132 C 
BRANCH  11  12
ATOM     12  C   UNL     1       0.988  35.870  52.050  0.00  0.00    +0.392 C 
ATOM     13  F   UNL     1       0.764  37.103  51.591  0.00  0.00    -0.171 F 
ATOM     14  F   UNL     1      -0.147  35.248  52.325  0.00  0.00    -0.171 F 
ATOM     15  F   UNL     1       1.758  35.870  53.130  0.00  0.00    -0.171 F 
ENDBRANCH  11  12
ENDBRANCH  10  11
ENDBRANCH   8  10
ENDBRANCH   7   8
BRANCH   1  31
ATOM     31  O   UNL     1      -0.398  38.643  45.517  0.00  0.00    -0.434 OA
BRANCH  31  32
ATOM     32  C   UNL     1      -1.061  38.894  44.358  0.00  0.00    +0.169 A 
ATOM     33  C   UNL     1      -0.111  39.066  43.296  0.00  0.00    +0.204 A 
ATOM     34  F   UNL     1       1.167  38.940  43.637  0.00  0.00    -0.199 F 
ATOM     35  C   UNL     1      -0.546  39.358  41.957  0.00  0.00    +0.203 A 
ATOM     36  C   UNL     1      -1.977  39.482  41.765  0.00  0.00    +0.158 A 
ATOM     37  C   UNL     1      -2.846  39.304  42.862  0.00  0.00    +0.052 A 
ATOM     40  F   UNL     1       0.346  39.512  40.967  0.00  0.00    -0.199 F 
ATOM     41  C   UNL     1      -2.413  39.008  44.147  0.00  0.00    +0.053 A 
BRANCH  36  38
ATOM     38  O   UNL     1      -2.386  39.767  40.489  0.00  0.00    -0.492 OA
ATOM     39  C   UNL     1      -1.575  40.485  39.531  0.00  0.00    +0.277 C 
ENDBRANCH  36  38
ENDBRANCH  31  32
ENDBRANCH   1  31
TORSDOF 10
