REMARK  Name = 4CFW
REMARK  5 active torsions:
REMARK  status: ('A' for Active; 'I' for Inactive)
REMARK    1  A    between atoms: C6_7  and  O6_8
REMARK    2  A    between atoms: O6_8  and  CAK_12
REMARK    3  A    between atoms: C8_10  and  CAM_14
REMARK    4  A    between atoms: CAK_12  and  CAL_13
REMARK    5  A    between atoms: CAW_23  and  SAZ_26
REMARK                            x       y       z     vdW  Elec       q    Type
REMARK                         _______ _______ _______ _____ _____    ______ ____
ROOT
ATOM      1  N   UNL     1      -8.177 -21.632  23.439  0.00  0.00    -0.187 NA
ATOM      2  C   UNL     1      -6.859 -21.865  23.577  0.00  0.00    +0.200 A 
ATOM     11  C   UNL     1      -6.371 -22.842  24.365  0.00  0.00    +0.158 A 
ATOM     12  N   UNL     1      -5.142 -23.279  24.682  0.00  0.00    -0.222 NA
ATOM     13  C   UNL     1      -5.354 -24.316  25.501  0.00  0.00    +0.140 A 
ATOM     25  N   UNL     1      -6.656 -24.496  25.693  0.00  0.00    -0.153 NA
ATOM     26  C   UNL     1      -7.278 -23.599  25.006  0.00  0.00    +0.166 A 
ATOM     27  N   UNL     1      -8.583 -23.398  24.861  0.00  0.00    -0.193 NA
ATOM     28  C   UNL     1      -9.025 -22.405  24.069  0.00  0.00    +0.224 A 
ATOM     29  N   UNL     1     -10.281 -22.139  23.896  0.00  0.00    -0.049 NA
ENDROOT
BRANCH  13  14
ATOM     14  C   UNL     1      -4.461 -25.117  26.133  0.00  0.00    +0.019 A 
ATOM     15  C   UNL     1      -3.549 -26.010  25.519  0.00  0.00    -0.051 A 
ATOM     16  C   UNL     1      -3.469 -26.125  24.131  0.00  0.00    +0.043 C 
ATOM     17  C   UNL     1      -2.701 -26.797  26.335  0.00  0.00    -0.060 A 
ATOM     22  C   UNL     1      -2.764 -26.725  27.717  0.00  0.00    -0.012 A 
ATOM     23  C   UNL     1      -3.682 -25.882  28.320  0.00  0.00    -0.001 A 
ATOM     24  C   UNL     1      -4.499 -25.090  27.532  0.00  0.00    +0.012 A 
BRANCH  17  18
ATOM     18  S   UNL     1      -1.453 -27.986  25.643  0.00  0.00    +1.152 S 
ATOM     19  O   UNL     1      -2.014 -29.007  24.642  0.00  0.00    -0.868 OA
ATOM     20  N   UNL     1      -0.599 -27.398  25.076  0.00  0.00    -0.323 NA
ATOM     21  O   UNL     1      -0.705 -28.751  26.765  0.00  0.00    -0.868 OA
ENDBRANCH  17  18
ENDBRANCH  13  14
BRANCH   2   3
ATOM      3  O   UNL     1      -6.021 -21.021  22.976  0.00  0.00    -0.327 OA
BRANCH   3   4
ATOM      4  C   UNL     1      -5.075 -21.450  22.057  0.00  0.00    +0.173 C 
BRANCH   4   5
ATOM      5  C   UNL     1      -5.024 -20.334  20.985  0.00  0.00    +0.015 C 
ATOM      6  C   UNL     1      -5.294 -20.935  19.674  0.00  0.00    +0.006 C 
ATOM      7  C   UNL     1      -4.231 -22.038  19.379  0.00  0.00    +0.000 C 
ATOM      8  C   UNL     1      -2.885 -21.364  19.155  0.00  0.00    +0.000 C 
ATOM      9  C   UNL     1      -2.461 -20.488  20.382  0.00  0.00    +0.000 C 
ATOM     10  C   UNL     1      -3.607 -19.602  20.896  0.00  0.00    +0.006 C 
ENDBRANCH   4   5
ENDBRANCH   3   4
ENDBRANCH   2   3
TORSDOF 5
