REMARK  Name = 4c4j_ligand
REMARK  11 active torsions:
REMARK  status: ('A' for Active; 'I' for Inactive)
REMARK    1  A    between atoms: C_1  and  N_2
REMARK    2  A    between atoms: O_3  and  C21_32
REMARK    3  A    between atoms: O_3  and  C22_33
REMARK    4  A    between atoms: C3_10  and  C4_12
REMARK    5  A    between atoms: N3_11  and  C8_19
REMARK    6  A    between atoms: N3_11  and  C9_20
REMARK    7  A    between atoms: N5_15  and  C16_27
REMARK    8  A    between atoms: C12_23  and  C13_24
REMARK    9  A    between atoms: C22_33  and  C23_34
REMARK   10  A    between atoms: C22_33  and  C24_35
REMARK   11  A    between atoms: C22_33  and  C25_36
REMARK                            x       y       z     vdW  Elec       q    Type
REMARK                         _______ _______ _______ _____ _____    ______ ____
ROOT
ATOM      5  C   UNL     1       2.780  20.416  42.902  0.00  0.00    +0.082 A 
ATOM      6  N   UNL     1       2.279  19.298  43.669  0.00  0.00    -0.147 N 
ATOM      7  C   UNL     1       2.402  17.922  43.370  0.00  0.00    +0.396 C 
ATOM      8  O   UNL     1       3.096  17.552  42.461  0.00  0.00    -0.346 OA
ATOM     14  C   UNL     1       1.543  19.832  44.779  0.00  0.00    +0.102 A 
ATOM     15  C   UNL     1       0.804  19.235  45.841  0.00  0.00    +0.055 A 
ATOM     16  C   UNL     1       0.088  20.139  46.686  0.00  0.00    +0.111 A 
ATOM     32  N   UNL     1       0.113  21.533  46.500  0.00  0.00    -0.303 NA
ATOM     33  C   UNL     1       0.854  22.054  45.523  0.00  0.00    +0.054 A 
ATOM     34  C   UNL     1       1.587  21.277  44.629  0.00  0.00    -0.014 A 
ATOM     35  C   UNL     1       2.363  21.585  43.472  0.00  0.00    -0.043 A 
ENDROOT
BRANCH   5   4
ATOM      1  C   UNL     1       4.601  21.428  38.364  0.00  0.00    +0.243 C 
ATOM      2  N   UNL     1       4.409  20.782  39.679  0.00  0.00    -0.206 N 
ATOM      3  C   UNL     1       3.403  21.108  40.566  0.00  0.00    +0.169 A 
ATOM      4  C   UNL     1       3.603  20.330  41.711  0.00  0.00    +0.028 A 
ATOM     36  C   UNL     1       4.769  19.526  41.431  0.00  0.00    +0.076 A 
ATOM     37  N   UNL     1       5.248  19.807  40.182  0.00  0.00    -0.213 NA
ENDBRANCH   5   4
BRANCH  16  17
ATOM     17  N   UNL     1      -0.682  19.646  47.798  0.00  0.00    -0.269 N 
ATOM     18  H   UNL     1      -1.085  20.370  48.411  0.00  0.00    +0.210 HD
BRANCH  17  19
ATOM     19  C   UNL     1      -0.968  18.300  48.174  0.00  0.00    +0.073 A 
ATOM     20  C   UNL     1      -1.308  17.306  47.231  0.00  0.00    +0.014 A 
ATOM     21  C   UNL     1      -1.591  16.037  47.644  0.00  0.00    -0.006 A 
ATOM     22  C   UNL     1      -1.551  15.654  48.996  0.00  0.00    -0.009 A 
ATOM     29  C   UNL     1      -1.205  16.596  50.015  0.00  0.00    +0.008 A 
ATOM     30  C   UNL     1      -0.911  17.909  49.578  0.00  0.00    +0.061 A 
ATOM     31 CL   UNL     1      -0.360  19.056  50.765  0.00  0.00    -0.080 Cl
BRANCH  22  23
ATOM     23  C   UNL     1      -1.837  14.261  49.230  0.00  0.00    +0.073 A 
ATOM     24  C   UNL     1      -1.344  13.148  48.530  0.00  0.00    +0.032 A 
ATOM     25  N   UNL     1      -2.005  11.993  48.960  0.00  0.00    -0.326 NA
ATOM     26  C   UNL     1      -2.896  12.421  49.940  0.00  0.00    +0.220 A 
ATOM     27  N   UNL     1      -2.826  13.734  50.138  0.00  0.00    -0.250 N 
ATOM     28  C   UNL     1      -3.604  14.514  51.102  0.00  0.00    +0.221 C 
ENDBRANCH  22  23
ENDBRANCH  17  19
ENDBRANCH  16  17
BRANCH   7   9
ATOM      9  O   UNL     1       1.693  17.048  44.158  0.00  0.00    -0.245 OA
BRANCH   9  10
ATOM     10  C   UNL     1       1.782  15.574  44.005  0.00  0.00    +0.092 C 
ATOM     11  C   UNL     1       3.189  15.127  44.338  0.00  0.00    +0.046 C 
ATOM     12  C   UNL     1       0.795  15.087  45.042  0.00  0.00    +0.046 C 
ATOM     13  C   UNL     1       1.376  15.113  42.620  0.00  0.00    +0.046 C 
ENDBRANCH   9  10
ENDBRANCH   7   9
TORSDOF 6
