REMARK  Name = 4ZLO
REMARK  1 active torsions:
REMARK  status: ('A' for Active; 'I' for Inactive)
REMARK    1  A    between atoms: N_15  and  C_16
REMARK                            x       y       z     vdW  Elec       q    Type
REMARK                         _______ _______ _______ _____ _____    ______ ____
ROOT
ATOM      1  C   UNL     1      43.055   6.157 -20.794  0.00  0.00    +0.127 C 
ATOM      2  N   UNL     1      44.447   5.809 -21.078  0.00  0.00    -0.298 NA
ATOM      3  C   UNL     1      45.025   6.739 -22.051  0.00  0.00    +0.105 C 
ATOM      4  C   UNL     1      45.223   5.805 -19.838  0.00  0.00    +0.127 C 
ATOM      5  C   UNL     1      44.640   4.818 -18.832  0.00  0.00    +0.241 C 
ATOM      6  N   UNL     1      43.232   5.155 -18.560  0.00  0.00    -0.218 N 
ATOM      7  C   UNL     1      42.573   4.994 -17.330  0.00  0.00    +0.323 C 
ATOM      8  N   UNL     1      41.333   4.644 -17.348  0.00  0.00    -0.040 NA
ATOM      9  C   UNL     1      40.604   4.241 -16.212  0.00  0.00    +0.200 A 
ATOM     10  C   UNL     1      39.257   4.621 -16.173  0.00  0.00    +0.095 A 
ATOM     11  C   UNL     1      38.477   4.169 -15.137  0.00  0.00    +0.128 A 
ATOM     12  F   UNL     1      37.184   4.573 -15.091  0.00  0.00    -0.205 F 
ATOM     13  C   UNL     1      38.942   3.358 -14.134  0.00  0.00    +0.040 A 
ATOM     14  C   UNL     1      40.275   2.985 -14.155  0.00  0.00    +0.030 A 
ATOM     15  C   UNL     1      41.114   3.427 -15.181  0.00  0.00    +0.083 A 
ATOM     16  N   UNL     1      42.485   3.075 -15.164  0.00  0.00    -0.310 N 
ATOM     17  H   UNL     1      42.816   2.058 -15.198  0.00  0.00    +0.152 HD
ATOM     18  C   UNL     1      43.385   4.164 -15.099  0.00  0.00    +0.047 A 
ATOM     19  C   UNL     1      44.224   4.283 -13.987  0.00  0.00    +0.027 A 
ATOM     20  C   UNL     1      45.082   5.362 -13.861  0.00  0.00    +0.040 A 
ATOM     21  C   UNL     1      45.073   6.314 -14.844  0.00  0.00    +0.124 A 
ATOM     22  F   UNL     1      45.893   7.390 -14.712  0.00  0.00    -0.205 F 
ATOM     23  C   UNL     1      44.271   6.250 -15.960  0.00  0.00    +0.056 A 
ATOM     24  C   UNL     1      43.422   5.147 -16.111  0.00  0.00    +0.089 A 
ATOM     25  C   UNL     1      42.441   5.179 -19.802  0.00  0.00    +0.241 C 
ENDROOT
TORSDOF 0
