REMARK  Name = 1W8C
REMARK  6 active torsions:
REMARK  status: ('A' for Active; 'I' for Inactive)
REMARK    1  A    between atoms: C_7  and  C_8
REMARK    2  A    between atoms: C_8  and  C_9
REMARK    3  A    between atoms: C_8  and  C_10
REMARK    4  A    between atoms: C_13  and  O_14
REMARK    5  A    between atoms: O_14  and  C_15
REMARK    6  A    between atoms: C_15  and  C_16
REMARK                            x       y       z     vdW  Elec       q    Type
REMARK                         _______ _______ _______ _____ _____    ______ ____
ROOT
ATOM      1  N   UNL     1      40.301 -10.082  15.034  0.00  0.00    -0.327 N 
ATOM      2  H   UNL     1      39.898 -10.659  15.840  0.00  0.00    +0.145 HD
ATOM      3  H   UNL     1      41.157  -9.461  15.196  0.00  0.00    +0.145 HD
ATOM      4  C   UNL     1      39.732 -10.137  13.820  0.00  0.00    +0.218 A 
ATOM      5  N   UNL     1      38.627 -10.903  13.584  0.00  0.00    -0.193 NA
ATOM      6  C   UNL     1      38.109 -10.893  12.343  0.00  0.00    +0.187 A 
ATOM      7  C   UNL     1      38.691 -10.094  11.282  0.00  0.00    +0.148 A 
ATOM      8  C   UNL     1      39.801  -9.353  11.584  0.00  0.00    +0.246 A 
ATOM     17  N   UNL     1      37.904 -10.325  10.157  0.00  0.00    -0.336 N 
ATOM     18  H   UNL     1      38.019  -9.901   9.181  0.00  0.00    +0.167 HD
ATOM     19  C   UNL     1      36.937 -11.228  10.581  0.00  0.00    +0.113 A 
ATOM     23  N   UNL     1      37.058 -11.567  11.916  0.00  0.00    -0.213 NA
ATOM     24  N   UNL     1      40.299  -9.378  12.850  0.00  0.00    -0.178 NA
ENDROOT
BRANCH  19  20
ATOM     20  C   UNL     1      35.855 -11.718   9.664  0.00  0.00    +0.049 C 
ATOM     21  C   UNL     1      34.670 -10.782   9.825  0.00  0.00    +0.015 C 
ATOM     22  C   UNL     1      35.376 -13.131   9.939  0.00  0.00    +0.015 C 
ENDBRANCH  19  20
BRANCH   8   9
ATOM      9  O   UNL     1      40.463  -8.543  10.698  0.00  0.00    -0.475 OA
BRANCH   9  10
ATOM     10  C   UNL     1      40.500  -8.756   9.288  0.00  0.00    +0.234 C 
BRANCH  10  11
ATOM     11  C   UNL     1      40.414  -7.400   8.598  0.00  0.00    +0.027 C 
ATOM     12  C   UNL     1      41.043  -6.282   9.436  0.00  0.00    +0.007 C 
ATOM     13  C   UNL     1      40.855  -4.924   8.759  0.00  0.00    +0.000 C 
ATOM     14  C   UNL     1      41.378  -4.915   7.322  0.00  0.00    +0.000 C 
ATOM     15  C   UNL     1      40.811  -6.078   6.499  0.00  0.00    +0.000 C 
ATOM     16  C   UNL     1      41.020  -7.429   7.198  0.00  0.00    +0.007 C 
ENDBRANCH  10  11
ENDBRANCH   9  10
ENDBRANCH   8   9
TORSDOF 4
