REMARK  Name = J2V
REMARK  4 active torsions:
REMARK  status: ('A' for Active; 'I' for Inactive)
REMARK    1  A    between atoms: C16_2  and  C7_17
REMARK    2  A    between atoms: C19_4  and  O26_27
REMARK    3  A    between atoms: C8_18  and  C10_20
REMARK    4  A    between atoms: C14_22  and  N22_24
REMARK                            x       y       z     vdW  Elec       q    Type
REMARK                         _______ _______ _______ _____ _____    ______ ____
ROOT
ATOM      9  C   UNL     1      15.603  -2.560   9.589  0.00  0.00    +0.038 A 
ATOM     10  C   UNL     1      16.922  -1.955   9.438  0.00  0.00    +0.100 A 
ATOM     11  N   UNL     1      18.033  -2.063  10.199  0.00  0.00    -0.242 NA
ATOM     12  C   UNL     1      19.121  -1.403   9.774  0.00  0.00    +0.099 A 
ATOM     13  C   UNL     1      19.156  -0.609   8.626  0.00  0.00    +0.022 A 
ATOM     14  C   UNL     1      18.004  -0.511   7.846  0.00  0.00    +0.022 A 
ATOM     15  C   UNL     1      16.872  -1.205   8.269  0.00  0.00    +0.099 A 
ATOM     16  N   UNL     1      15.618  -1.321   7.710  0.00  0.00    -0.244 NA
ATOM     17  C   UNL     1      14.841  -2.138   8.513  0.00  0.00    +0.083 A 
ENDROOT
BRANCH   9   8
ATOM      1  C   UNL     1      15.715  -3.208  11.972  0.00  0.00    +0.102 A 
ATOM      2  N   UNL     1      15.545  -4.032  13.028  0.00  0.00    -0.210 NA
ATOM      3  C   UNL     1      14.903  -5.177  12.797  0.00  0.00    +0.225 A 
ATOM      6  C   UNL     1      14.397  -5.573  11.539  0.00  0.00    +0.058 A 
ATOM      7  C   UNL     1      14.548  -4.678  10.487  0.00  0.00    +0.006 A 
ATOM      8  C   UNL     1      15.226  -3.471  10.694  0.00  0.00    +0.022 A 
BRANCH   3   4
ATOM      4  O   UNL     1      14.776  -6.066  13.803  0.00  0.00    -0.456 OA
ATOM      5  C   UNL     1      15.156  -5.660  15.124  0.00  0.00    +0.254 C 
ENDBRANCH   3   4
ENDBRANCH   9   8
BRANCH  17  18
ATOM     18  C   UNL     1      13.428  -2.365   8.143  0.00  0.00    +0.022 A 
ATOM     19  C   UNL     1      12.458  -2.603   9.124  0.00  0.00    +0.022 A 
ATOM     20  C   UNL     1      11.125  -2.616   8.748  0.00  0.00    +0.100 A 
ATOM     21  N   UNL     1      10.697  -2.398   7.483  0.00  0.00    -0.227 NA
ATOM     22  C   UNL     1      11.627  -2.196   6.534  0.00  0.00    +0.155 A 
ATOM     27  C   UNL     1      13.009  -2.191   6.820  0.00  0.00    +0.038 A 
BRANCH  22  23
ATOM     23  N   UNL     1      11.093  -1.941   5.227  0.00  0.00    -0.160 NA
ATOM     24  C   UNL     1      11.764  -1.646   4.080  0.00  0.00    +0.247 C 
ATOM     25  O   UNL     1      12.971  -1.545   4.003  0.00  0.00    -0.273 OA
ATOM     26  C   UNL     1      10.907  -1.436   2.855  0.00  0.00    +0.097 C 
ENDBRANCH  22  23
ENDBRANCH  17  18
TORSDOF 4
