REMARK  Name = 3F5X
REMARK  5 active torsions:
REMARK  status: ('A' for Active; 'I' for Inactive)
REMARK    1  A    between atoms: C_2  and  C_19
REMARK    2  A    between atoms: C_9  and  C_10
REMARK    3  A    between atoms: C_18  and  N_20
REMARK    4  A    between atoms: N_23  and  C_26
REMARK    5  A    between atoms: C_29  and  N_32
REMARK                            x       y       z     vdW  Elec       q    Type
REMARK                         _______ _______ _______ _____ _____    ______ ____
ROOT
ATOM      1  C   UNL     1       0.117  90.258  30.106  0.00  0.00    +0.009 A 
ATOM      2  C   UNL     1      -0.290  91.554  30.318  0.00  0.00    +0.013 A 
ATOM      3  C   UNL     1      -0.129  92.036  31.608  0.00  0.00    +0.030 A 
ATOM      4  C   UNL     1      -0.373  93.270  32.262  0.00  0.00    +0.135 A 
ATOM     22  N   UNL     1      -0.051  93.236  33.555  0.00  0.00    -0.170 NA
ATOM     23  N   UNL     1       0.381  91.979  33.722  0.00  0.00    -0.276 N 
ATOM     24  H   UNL     1       0.701  91.602  34.671  0.00  0.00    +0.189 HD
ATOM     25  C   UNL     1       0.382  91.218  32.593  0.00  0.00    +0.067 A 
ATOM     26  C   UNL     1       0.768  89.914  32.394  0.00  0.00    +0.036 A 
ATOM     27  C   UNL     1       0.631  89.451  31.100  0.00  0.00    -0.016 A 
ENDROOT
BRANCH   4   5
ATOM      5  C   UNL     1      -0.817  94.512  31.605  0.00  0.00    +0.160 A 
ATOM      6  N   UNL     1      -0.886  94.663  30.303  0.00  0.00    -0.335 N 
ATOM      7  H   UNL     1      -0.673  93.927  29.556  0.00  0.00    +0.168 HD
ATOM      8  C   UNL     1      -1.287  95.959  30.098  0.00  0.00    +0.088 A 
ATOM      9  C   UNL     1      -1.506  96.619  28.896  0.00  0.00    +0.056 A 
ATOM     17  C   UNL     1      -1.899  97.937  29.021  0.00  0.00    +0.025 A 
ATOM     18  C   UNL     1      -2.061  98.562  30.238  0.00  0.00    +0.004 A 
ATOM     19  C   UNL     1      -1.841  97.920  31.435  0.00  0.00    +0.030 A 
ATOM     20  C   UNL     1      -1.447  96.607  31.307  0.00  0.00    +0.091 A 
ATOM     21  N   UNL     1      -1.145  95.668  32.249  0.00  0.00    -0.226 NA
BRANCH   9  10
ATOM     10  N   UNL     1      -1.338  95.983  27.648  0.00  0.00    -0.326 N 
ATOM     11  C   UNL     1      -1.849  96.762  26.532  0.00  0.00    +0.120 C 
ATOM     12  C   UNL     1      -1.851  95.858  25.319  0.00  0.00    +0.103 C 
ATOM     13  N   UNL     1      -0.484  95.301  25.116  0.00  0.00    -0.302 NA
ATOM     14  C   UNL     1      -0.447  94.410  23.935  0.00  0.00    +0.105 C 
ATOM     15  C   UNL     1       0.126  94.639  26.306  0.00  0.00    +0.103 C 
ATOM     16  C   UNL     1       0.057  95.626  27.453  0.00  0.00    +0.120 C 
ENDBRANCH   9  10
ENDBRANCH   4   5
BRANCH  27  28
ATOM     28  C   UNL     1       1.122  88.141  30.749  0.00  0.00    -0.018 A 
ATOM     29  C   UNL     1       2.303  87.704  31.322  0.00  0.00    +0.010 A 
ATOM     30  C   UNL     1       2.861  86.483  31.014  0.00  0.00    +0.023 A 
ATOM     31  C   UNL     1       2.236  85.677  30.092  0.00  0.00    +0.025 A 
ATOM     35  C   UNL     1       1.064  86.110  29.506  0.00  0.00    +0.023 A 
ATOM     36  C   UNL     1       0.502  87.327  29.825  0.00  0.00    +0.010 A 
BRANCH  31  32
ATOM     32  N   UNL     1       2.780  84.434  29.759  0.00  0.00    -0.358 N 
ATOM     33  H   UNL     1       3.689  84.107  30.219  0.00  0.00    +0.142 HD
ATOM     34  H   UNL     1       2.287  83.809  29.044  0.00  0.00    +0.142 HD
ENDBRANCH  31  32
ENDBRANCH  27  28
TORSDOF 4
