REMARK  Name = 4bzo_ligand
REMARK  7 active torsions:
REMARK  status: ('A' for Active; 'I' for Inactive)
REMARK    1  A    between atoms: C19_2  and  C11_13
REMARK    2  A    between atoms: N20_3  and  C22_4
REMARK    3  A    between atoms: C22_4  and  C24_5
REMARK    4  A    between atoms: C22_4  and  C23_11
REMARK    5  A    between atoms: C23_11  and  N30_12
REMARK    6  A    between atoms: C11_13  and  C6_14
REMARK    7  A    between atoms: C3_23  and  C12_24
REMARK                            x       y       z     vdW  Elec       q    Type
REMARK                         _______ _______ _______ _____ _____    ______ ____
ROOT
ATOM      4  C   UNL     1      21.614 -32.354   2.775  0.00  0.00    +0.175 C 
ATOM      5  C   UNL     1      21.849 -30.865   2.488  0.00  0.00    +0.174 C 
ATOM      6  N   UNL     1      21.483 -30.540   1.114  0.00  0.00    -0.284 N 
ATOM      7  H   UNL     1      21.074 -29.641   0.959  0.00  0.00    +0.184 HD
ATOM      8  C   UNL     1      21.639 -31.324   0.038  0.00  0.00    +0.218 C 
ATOM      9  C   UNL     1      22.002 -32.741   0.284  0.00  0.00    +0.131 A 
ATOM     10  C   UNL     1      22.301 -33.834  -0.501  0.00  0.00    -0.008 A 
ATOM     11  C   UNL     1      22.597 -34.908   0.349  0.00  0.00    -0.016 A 
ATOM     19  C   UNL     1      22.514 -34.509   1.691  0.00  0.00    +0.143 A 
ATOM     20  O   UNL     1      21.488 -30.923  -1.113  0.00  0.00    -0.391 OA
ATOM     21  N   UNL     1      22.232 -33.106   1.658  0.00  0.00    -0.250 N 
ENDROOT
BRANCH  11  12
ATOM     12  C   UNL     1      23.022 -36.268  -0.115  0.00  0.00    -0.024 A 
ATOM     13  C   UNL     1      23.479 -36.416  -1.426  0.00  0.00    +0.018 A 
ATOM     14  C   UNL     1      23.959 -37.637  -1.894  0.00  0.00    +0.076 A 
ATOM     15  N   UNL     1      24.004 -38.696  -1.057  0.00  0.00    -0.275 NA
ATOM     16  C   UNL     1      23.585 -38.577   0.238  0.00  0.00    +0.205 A 
ATOM     17  F   UNL     1      23.643 -39.658   1.036  0.00  0.00    -0.156 F 
ATOM     18  C   UNL     1      23.108 -37.361   0.746  0.00  0.00    +0.062 A 
ENDBRANCH  11  12
BRANCH   4   3
ATOM      3  C   UNL     1      22.376 -32.593   4.099  0.00  0.00    +0.178 C 
BRANCH   3   2
ATOM      1  O   UNL     1      20.897 -34.399   4.609  0.00  0.00    -0.397 OA
ATOM      2  C   UNL     1      22.005 -33.893   4.799  0.00  0.00    +0.181 C 
ATOM     22  N   UNL     1      22.942 -34.468   5.575  0.00  0.00    -0.267 N 
ATOM     23  H   UNL     1      23.837 -34.027   5.632  0.00  0.00    +0.188 HD
BRANCH  22  24
ATOM     24  C   UNL     1      22.733 -35.707   6.346  0.00  0.00    +0.192 C 
BRANCH  24  30
ATOM     30  C   UNL     1      23.228 -36.971   5.719  0.00  0.00    -0.013 A 
ATOM     31  C   UNL     1      22.834 -38.202   6.283  0.00  0.00    -0.002 A 
ATOM     32  C   UNL     1      23.281 -39.420   5.747  0.00  0.00    -0.009 A 
ATOM     33  C   UNL     1      24.134 -39.411   4.635  0.00  0.00    -0.013 A 
ATOM     34  C   UNL     1      24.523 -38.179   4.071  0.00  0.00    -0.009 A 
ATOM     35  C   UNL     1      24.080 -36.972   4.614  0.00  0.00    -0.002 A 
ENDBRANCH  24  30
BRANCH  24  25
ATOM     25  C   UNL     1      23.518 -35.515   7.665  0.00  0.00    +0.170 C 
BRANCH  25  26
ATOM     26  N   UNL     1      22.900 -34.486   8.498  0.00  0.00    +0.222 N 
ATOM     27  H   UNL     1      22.889 -33.611   7.998  0.00  0.00    +0.200 HD
ATOM     28  H   UNL     1      21.955 -34.757   8.721  0.00  0.00    +0.200 HD
ATOM     29  H   UNL     1      23.429 -34.380   9.349  0.00  0.00    +0.200 HD
ENDBRANCH  25  26
ENDBRANCH  24  25
ENDBRANCH  22  24
ENDBRANCH   3   2
ENDBRANCH   4   3
TORSDOF 7
