REMARK  Name = 4eym_ligand
REMARK  4 active torsions:
REMARK  status: ('A' for Active; 'I' for Inactive)
REMARK    1  A    between atoms: C1_2  and  C13_3
REMARK    2  A    between atoms: N1_15  and  C2_16
REMARK    3  A    between atoms: C5_19  and  O2_22
REMARK    4  A    between atoms: O2_22  and  C6_23
REMARK                            x       y       z     vdW  Elec       q    Type
REMARK                         _______ _______ _______ _____ _____    ______ ____
ROOT
ATOM      1  O   UNL     1     -13.393  12.382 -26.574  0.00  0.00    -0.369 OA
ATOM      2  C   UNL     1     -14.236  11.521 -26.406  0.00  0.00    +0.236 C 
ATOM      3  N   UNL     1     -14.559  10.618 -27.333  0.00  0.00    -0.237 N 
ATOM      4  H   UNL     1     -15.370  10.055 -27.178  0.00  0.00    +0.223 HD
ENDROOT
BRANCH   2  18
ATOM     18  C   UNL     1     -14.940  11.495 -25.083  0.00  0.00    +0.063 A 
ATOM     19  C   UNL     1     -15.299  12.679 -24.456  0.00  0.00    +0.036 A 
ATOM     20  C   UNL     1     -15.948  12.638 -23.225  0.00  0.00    +0.080 A 
ATOM     21  N   UNL     1     -16.224  11.467 -22.644  0.00  0.00    -0.281 NA
ATOM     22  C   UNL     1     -15.889  10.303 -23.241  0.00  0.00    +0.119 A 
ATOM     23  N   UNL     1     -16.168   9.087 -22.613  0.00  0.00    -0.289 N 
ATOM     24  C   UNL     1     -16.150   7.856 -23.386  0.00  0.00    +0.162 C 
ATOM     25  C   UNL     1     -15.866   6.773 -22.354  0.00  0.00    +0.184 C 
ATOM     26  O   UNL     1     -16.961   6.685 -21.443  0.00  0.00    -0.376 OA
ATOM     27  C   UNL     1     -17.431   7.936 -20.934  0.00  0.00    +0.184 C 
ATOM     28  C   UNL     1     -16.439   9.065 -21.181  0.00  0.00    +0.162 C 
ATOM     29  C   UNL     1     -15.241  10.292 -24.470  0.00  0.00    +0.070 A 
ENDBRANCH   2  18
BRANCH   3   5
ATOM      5  C   UNL     1     -13.853  10.418 -28.474  0.00  0.00    +0.057 A 
ATOM      6  C   UNL     1     -12.578  10.945 -28.662  0.00  0.00    +0.001 A 
ATOM      7  C   UNL     1     -11.883  10.714 -29.849  0.00  0.00    +0.012 A 
ATOM      8  C   UNL     1     -12.465   9.957 -30.857  0.00  0.00    +0.105 A 
ATOM     16  C   UNL     1     -13.730   9.419 -30.665  0.00  0.00    +0.012 A 
ATOM     17  C   UNL     1     -14.420   9.653 -29.481  0.00  0.00    +0.001 A 
BRANCH   8   9
ATOM      9  O   UNL     1     -11.804   9.706 -32.034  0.00  0.00    -0.257 OA
BRANCH   9  10
ATOM     10  C   UNL     1     -11.320  10.710 -32.834  0.00  0.00    +0.133 A 
ATOM     11  C   UNL     1     -10.265  10.462 -33.702  0.00  0.00    +0.063 A 
ATOM     12  C   UNL     1      -9.802  11.490 -34.518  0.00  0.00    +0.079 A 
ATOM     13  N   UNL     1     -10.358  12.707 -34.472  0.00  0.00    -0.313 NA
ATOM     14  C   UNL     1     -11.379  12.972 -33.645  0.00  0.00    +0.079 A 
ATOM     15  C   UNL     1     -11.891  11.980 -32.814  0.00  0.00    +0.063 A 
ENDBRANCH   9  10
ENDBRANCH   8   9
ENDBRANCH   3   5
TORSDOF 4
