REMARK  Name = 2xba_ligand
REMARK  6 active torsions:
REMARK  status: ('A' for Active; 'I' for Inactive)
REMARK    1  A    between atoms: C6_6  and  C7_7
REMARK    2  A    between atoms: N17_17  and  C24_24
REMARK    3  A    between atoms: N20_20  and  C23_23
REMARK    4  A    between atoms: C25_25  and  C20_32
REMARK    5  A    between atoms: C27_27  and  C20_32
REMARK    6  A    between atoms: C20_32  and  O34_34
REMARK                            x       y       z     vdW  Elec       q    Type
REMARK                         _______ _______ _______ _____ _____    ______ ____
ROOT
ATOM      1  N   UNL     1       5.643  14.589   9.059  0.00  0.00    -0.254 N 
ATOM      2  C   UNL     1       6.954  14.157   8.807  0.00  0.00    +0.222 C 
ATOM     12  O   UNL     1       7.313  13.045   9.203  0.00  0.00    -0.391 OA
ATOM     13  C   UNL     1       4.682  13.780   9.898  0.00  0.00    +0.231 C 
ATOM     14  C   UNL     1       3.560  14.740   9.843  0.00  0.00    +0.079 A 
ATOM     15  C   UNL     1       3.793  15.822   9.147  0.00  0.00    +0.015 A 
ATOM     16  C   UNL     1       2.599  16.635   9.205  0.00  0.00    +0.103 A 
ATOM     17  N   UNL     1       2.272  17.935   8.638  0.00  0.00    -0.239 N 
ATOM     18  H   UNL     1       1.469  18.409   9.052  0.00  0.00    +0.219 HD
ATOM     19  C   UNL     1       2.891  18.599   7.635  0.00  0.00    +0.218 C 
ATOM     20  O   UNL     1       3.840  18.092   7.036  0.00  0.00    -0.382 OA
ATOM     34  N   UNL     1       1.779  15.959   9.925  0.00  0.00    -0.240 NA
ATOM     35  N   UNL     1       2.381  14.756  10.333  0.00  0.00    -0.243 N 
ATOM     36  H   UNL     1       1.956  14.032  10.912  0.00  0.00    +0.239 HD
ATOM     37  C   UNL     1       5.128  15.884   8.555  0.00  0.00    +0.167 C 
ENDROOT
BRANCH  19  21
ATOM     21  C   UNL     1       2.438  19.913   7.241  0.00  0.00    +0.041 A 
ATOM     22  C   UNL     1       1.151  20.361   7.632  0.00  0.00    +0.011 A 
ATOM     23  C   UNL     1       0.712  21.642   7.250  0.00  0.00    +0.015 A 
ATOM     24  C   UNL     1       1.565  22.501   6.465  0.00  0.00    +0.046 A 
ATOM     32  C   UNL     1       2.858  22.044   6.074  0.00  0.00    +0.015 A 
ATOM     33  C   UNL     1       3.292  20.751   6.461  0.00  0.00    +0.011 A 
BRANCH  24  25
ATOM     25  N   UNL     1       1.120  23.783   6.091  0.00  0.00    -0.310 N 
ATOM     26  C   UNL     1       0.162  24.493   6.942  0.00  0.00    +0.108 C 
ATOM     27  C   UNL     1       0.544  25.970   7.158  0.00  0.00    -0.086 C 
ATOM     28  N   UNL     1       0.943  26.605   5.927  0.00  0.00    +0.403 NA
ATOM     29  C   UNL     1       0.442  27.915   5.621  0.00  0.00    -0.131 C 
ATOM     30  C   UNL     1       1.854  25.952   4.995  0.00  0.00    -0.086 C 
ATOM     31  C   UNL     1       1.600  24.418   4.852  0.00  0.00    +0.108 C 
ENDBRANCH  24  25
ENDBRANCH  19  21
BRANCH   2   3
ATOM      3  C   UNL     1       7.979  15.064   8.100  0.00  0.00    +0.277 C 
BRANCH   3   6
ATOM      6  C   UNL     1       8.428  16.192   9.041  0.00  0.00    +0.004 A 
ATOM      7  C   UNL     1       8.761  15.935  10.410  0.00  0.00    +0.001 A 
ATOM      8  C   UNL     1       9.144  16.988  11.266  0.00  0.00    -0.008 A 
ATOM      9  C   UNL     1       9.202  18.315  10.771  0.00  0.00    -0.012 A 
ATOM     10  C   UNL     1       8.876  18.579   9.409  0.00  0.00    -0.008 A 
ATOM     11  C   UNL     1       8.486  17.518   8.545  0.00  0.00    +0.001 A 
ENDBRANCH   3   6
BRANCH   3   4
ATOM      4  O   UNL     1       9.101  14.323   7.708  0.00  0.00    -0.359 OA
ATOM      5  H   UNL     1       9.523  13.948   8.485  0.00  0.00    +0.216 HD
ENDBRANCH   3   4
ENDBRANCH   2   3
TORSDOF 5
