REMARK  Name = 5IH5
REMARK  2 active torsions:
REMARK  status: ('A' for Active; 'I' for Inactive)
REMARK    1  A    between atoms: C_6  and  N_17
REMARK    2  A    between atoms: C_9  and  C_11
REMARK                            x       y       z     vdW  Elec       q    Type
REMARK                         _______ _______ _______ _____ _____    ______ ____
ROOT
ATOM      1  N   UNL     1     -43.683  18.798   2.721  0.00  0.00    -0.198 NA
ATOM      2  C   UNL     1     -42.509  19.031   2.059  0.00  0.00    +0.149 A 
ATOM      6  C   UNL     1     -42.224  20.380   1.671  0.00  0.00    +0.148 A 
ATOM      7  N   UNL     1     -41.071  20.659   1.025  0.00  0.00    -0.237 NA
ATOM      8  C   UNL     1     -40.768  21.952   0.709  0.00  0.00    +0.111 A 
ATOM     16  C   UNL     1     -41.698  23.031   0.990  0.00  0.00    +0.145 A 
ATOM     17  N   UNL     1     -41.409  24.415   0.623  0.00  0.00    -0.341 N 
ATOM     18  H   UNL     1     -40.499  24.655   0.114  0.00  0.00    +0.144 HD
ATOM     19  H   UNL     1     -42.108  25.189   0.863  0.00  0.00    +0.144 HD
ATOM     20  N   UNL     1     -42.877  22.729   1.648  0.00  0.00    -0.209 NA
ATOM     21  C   UNL     1     -43.135  21.398   1.993  0.00  0.00    +0.187 A 
ATOM     22  N   UNL     1     -44.296  21.069   2.686  0.00  0.00    -0.193 NA
ATOM     23  C   UNL     1     -44.549  19.805   3.018  0.00  0.00    +0.216 A 
ATOM     24  N   UNL     1     -45.739  19.563   3.721  0.00  0.00    -0.327 N 
ATOM     25  H   UNL     1     -46.404  20.372   3.942  0.00  0.00    +0.145 HD
ATOM     26  H   UNL     1     -45.982  18.570   4.036  0.00  0.00    +0.145 HD
ENDROOT
BRANCH   8   9
ATOM      9  C   UNL     1     -39.513  22.174  -0.113  0.00  0.00    +0.005 A 
ATOM     10  C   UNL     1     -39.483  21.212  -1.121  0.00  0.00    +0.030 A 
ATOM     11  C   UNL     1     -38.503  21.144  -2.080  0.00  0.00    +0.042 A 
ATOM     12 CL   UNL     1     -38.810  19.735  -3.178  0.00  0.00    -0.084 Cl
ATOM     13  C   UNL     1     -37.485  22.175  -2.010  0.00  0.00    +0.020 A 
ATOM     14  C   UNL     1     -37.509  23.201  -1.023  0.00  0.00    +0.002 A 
ATOM     15  C   UNL     1     -38.552  23.215  -0.080  0.00  0.00    +0.010 A 
ENDBRANCH   8   9
BRANCH   2   3
ATOM      3  N   UNL     1     -41.576  18.047   1.712  0.00  0.00    -0.341 N 
ATOM      4  H   UNL     1     -40.681  18.318   1.193  0.00  0.00    +0.144 HD
ATOM      5  H   UNL     1     -41.758  17.024   1.966  0.00  0.00    +0.144 HD
ENDBRANCH   2   3
TORSDOF 2
