REMARK  Name = 1y6a_ligand
REMARK  8 active torsions:
REMARK  status: ('A' for Active; 'I' for Inactive)
REMARK    1  A    between atoms: S3_2  and  C2_4
REMARK    2  A    between atoms: S3_2  and  C6_6
REMARK    3  A    between atoms: C2_4  and  C1_5
REMARK    4  A    between atoms: C9_9  and  O10_10
REMARK    5  A    between atoms: O10_10  and  C11_11
REMARK    6  A    between atoms: C12_12  and  N13_14
REMARK    7  A    between atoms: C17_18  and  C19_20
REMARK    8  A    between atoms: C23_24  and  C25_26
REMARK                            x       y       z     vdW  Elec       q    Type
REMARK                         _______ _______ _______ _____ _____    ______ ____
ROOT
ATOM      6  N   UNL     1       3.006  28.093  18.051  0.00  0.00    -0.223 N 
ATOM      7  H   UNL     1       3.800  27.443  17.961  0.00  0.00    +0.218 HD
ATOM      8  C   UNL     1       2.901  29.102  17.183  0.00  0.00    +0.292 A 
ATOM      9  O   UNL     1       1.793  30.003  17.228  0.00  0.00    -0.205 OA
ATOM     10  C   UNL     1       2.177  30.924  16.216  0.00  0.00    +0.131 A 
ATOM     23  C   UNL     1       3.346  30.538  15.673  0.00  0.00    +0.041 A 
ATOM     24  N   UNL     1       3.778  29.466  16.237  0.00  0.00    -0.299 NA
ENDROOT
BRANCH   6   5
ATOM      3  C   UNL     1       0.364  28.751  20.613  0.00  0.00    +0.067 A 
ATOM      4  C   UNL     1       1.405  28.962  19.689  0.00  0.00    +0.030 A 
ATOM      5  C   UNL     1       2.092  27.887  19.064  0.00  0.00    +0.100 A 
ATOM     25  C   UNL     1       1.695  26.574  19.365  0.00  0.00    +0.115 A 
ATOM     28  C   UNL     1       0.664  26.360  20.292  0.00  0.00    +0.010 A 
ATOM     29  C   UNL     1       0.007  27.435  20.902  0.00  0.00    -0.007 A 
BRANCH   3   2
ATOM      1  O   UNL     1      -0.273  29.667  22.771  0.00  0.00    -0.171 OA
ATOM      2  S   UNL     1      -0.427  29.954  21.377  0.00  0.00    -0.011 S 
ATOM     32  O   UNL     1       0.057  31.253  21.024  0.00  0.00    -0.171 OA
BRANCH   2  30
ATOM     30  C   UNL     1      -2.060  29.936  21.047  0.00  0.00    +0.167 C 
ATOM     31  C   UNL     1      -2.317  29.794  19.560  0.00  0.00    +0.028 C 
ENDBRANCH   2  30
ENDBRANCH   3   2
BRANCH  25  26
ATOM     26  O   UNL     1       2.345  25.533  18.742  0.00  0.00    -0.325 OA
ATOM     27  C   UNL     1       2.193  24.136  19.058  0.00  0.00    +0.229 C 
ENDBRANCH  25  26
ENDBRANCH   6   5
BRANCH  10  11
ATOM     11  C   UNL     1       1.220  32.031  15.926  0.00  0.00    +0.006 A 
ATOM     12  C   UNL     1       0.062  32.045  16.720  0.00  0.00    +0.014 A 
ATOM     13  C   UNL     1      -0.938  32.973  16.534  0.00  0.00    -0.005 A 
ATOM     20  C   UNL     1      -0.782  33.922  15.517  0.00  0.00    +0.004 A 
ATOM     21  C   UNL     1       0.369  33.903  14.700  0.00  0.00    -0.003 A 
ATOM     22  C   UNL     1       1.368  32.945  14.893  0.00  0.00    +0.003 A 
BRANCH  13  14
ATOM     14  C   UNL     1      -2.134  32.983  17.436  0.00  0.00    +0.051 A 
ATOM     15  N   UNL     1      -2.035  33.612  18.652  0.00  0.00    -0.292 NA
ATOM     16  C   UNL     1      -3.084  33.679  19.503  0.00  0.00    +0.093 A 
ATOM     17  C   UNL     1      -4.303  33.091  19.159  0.00  0.00    +0.036 A 
ATOM     18  C   UNL     1      -4.445  32.448  17.927  0.00  0.00    +0.031 A 
ATOM     19  C   UNL     1      -3.351  32.384  17.064  0.00  0.00    +0.044 A 
ENDBRANCH  13  14
ENDBRANCH  10  11
TORSDOF 6
