REMARK  Name = 4XYF
REMARK  9 active torsions:
REMARK  status: ('A' for Active; 'I' for Inactive)
REMARK    1  A    between atoms: C_1  and  C_2
REMARK    2  A    between atoms: C_16  and  C_17
REMARK    3  A    between atoms: C_17  and  C_18
REMARK    4  A    between atoms: C_17  and  C_19
REMARK    5  A    between atoms: C_28  and  O_29
REMARK    6  A    between atoms: O_29  and  C_30
REMARK    7  A    between atoms: C_30  and  C_31
REMARK    8  A    between atoms: C_31  and  O_32
REMARK    9  A    between atoms: O_32  and  C_33
REMARK                            x       y       z     vdW  Elec       q    Type
REMARK                         _______ _______ _______ _____ _____    ______ ____
ROOT
ATOM      1  C   UNL     1      28.261  32.207  60.478  0.00  0.00    +0.066 C 
ATOM      2  C   UNL     1      26.996  31.909  59.667  0.00  0.00    +0.050 A 
ATOM      3  N   UNL     1      26.454  32.814  58.855  0.00  0.00    -0.226 N 
ATOM      4  H   UNL     1      26.819  33.802  58.666  0.00  0.00    +0.207 HD
ATOM      5  O   UNL     1      25.316  32.225  58.296  0.00  0.00    -0.380 OA
ATOM      6  C   UNL     1      25.246  30.975  58.843  0.00  0.00    +0.163 A 
ATOM      7  C   UNL     1      24.240  30.140  58.401  0.00  0.00    +0.020 C 
ATOM      8  C   UNL     1      23.382  30.631  57.408  0.00  0.00    +0.164 C 
ATOM      9  N   UNL     1      22.385  29.792  56.932  0.00  0.00    -0.304 N 
ATOM     10  C   UNL     1      21.396  29.917  55.987  0.00  0.00    +0.141 A 
ATOM     28  N   UNL     1      20.740  28.764  55.912  0.00  0.00    -0.133 NA
ATOM     29  N   UNL     1      21.243  27.940  56.703  0.00  0.00    -0.127 NA
ATOM     30  C   UNL     1      22.255  28.481  57.369  0.00  0.00    +0.193 A 
ATOM     31  C   UNL     1      23.122  28.001  58.346  0.00  0.00    +0.168 C 
ATOM     32  F   UNL     1      22.984  26.731  58.780  0.00  0.00    -0.202 F 
ATOM     33  C   UNL     1      24.113  28.833  58.854  0.00  0.00    +0.051 C 
ATOM     34  C   UNL     1      26.297  30.766  59.663  0.00  0.00    +0.073 A 
ENDROOT
BRANCH  10  11
ATOM     11  C   UNL     1      21.116  31.210  55.224  0.00  0.00    +0.084 C 
ATOM     27  C   UNL     1      20.291  30.927  53.951  0.00  0.00    +0.021 C 
BRANCH  11  12
ATOM     12  C   UNL     1      20.294  32.117  56.164  0.00  0.00    -0.036 A 
ATOM     13  C   UNL     1      19.002  31.729  56.534  0.00  0.00    +0.006 A 
ATOM     14  C   UNL     1      18.216  32.517  57.377  0.00  0.00    +0.028 A 
ATOM     15  C   UNL     1      18.715  33.715  57.856  0.00  0.00    +0.071 A 
ATOM     16  N   UNL     1      17.971  34.484  58.670  0.00  0.00    -0.251 NA
ATOM     17  C   UNL     1      18.427  35.636  59.156  0.00  0.00    +0.157 A 
ATOM     18  C   UNL     1      19.707  36.080  58.839  0.00  0.00    +0.139 A 
ATOM     24  C   UNL     1      20.501  35.306  57.997  0.00  0.00    +0.057 A 
ATOM     25  C   UNL     1      20.010  34.109  57.495  0.00  0.00    +0.004 A 
ATOM     26  C   UNL     1      20.801  33.312  56.651  0.00  0.00    +0.014 A 
BRANCH  18  19
ATOM     19  O   UNL     1      20.223  37.253  59.296  0.00  0.00    -0.488 OA
BRANCH  19  20
ATOM     20  C   UNL     1      19.761  37.798  60.556  0.00  0.00    +0.257 C 
BRANCH  20  21
ATOM     21  C   UNL     1      20.974  38.201  61.398  0.00  0.00    +0.200 C 
BRANCH  21  22
ATOM     22  O   UNL     1      21.498  37.052  62.119  0.00  0.00    -0.380 OA
ATOM     23  C   UNL     1      22.070  37.482  63.378  0.00  0.00    +0.194 C 
ENDBRANCH  21  22
ENDBRANCH  20  21
ENDBRANCH  19  20
ENDBRANCH  18  19
ENDBRANCH  11  12
ENDBRANCH  10  11
TORSDOF 6
