REMARK  Name = 4dlj_ligand
REMARK  6 active torsions:
REMARK  status: ('A' for Active; 'I' for Inactive)
REMARK    1  A    between atoms: C2_2  and  CAV_26
REMARK    2  A    between atoms: C6_6  and  NAS_23
REMARK    3  A    between atoms: NAA_7  and  CAT_24
REMARK    4  A    between atoms: CAO_21  and  CAP_22
REMARK    5  A    between atoms: CAO_21  and  NAS_23
REMARK    6  A    between atoms: CAP_22  and  CAU_25
REMARK                            x       y       z     vdW  Elec       q    Type
REMARK                         _______ _______ _______ _____ _____    ______ ____
ROOT
ATOM      1  N   UNL     1      23.875 -16.643 -11.000  0.00  0.00    -0.258 NA
ATOM      2  C   UNL     1      24.369 -15.392 -11.005  0.00  0.00    +0.135 A 
ATOM     13  C   UNL     1      24.797 -14.865  -9.792  0.00  0.00    +0.044 A 
ATOM     14  C   UNL     1      25.289 -13.554  -9.747  0.00  0.00    +0.021 A 
ATOM     15  C   UNL     1      25.742 -13.029  -8.543  0.00  0.00    +0.025 A 
ATOM     16  C   UNL     1      25.681 -13.800  -7.373  0.00  0.00    +0.042 A 
ATOM     17  C   UNL     1      25.186 -15.114  -7.416  0.00  0.00    +0.019 A 
ATOM     21  C   UNL     1      24.733 -15.644  -8.628  0.00  0.00    +0.028 A 
ATOM     22  N   UNL     1      24.259 -16.906  -8.702  0.00  0.00    -0.300 NA
ATOM     23  C   UNL     1      23.842 -17.397  -9.884  0.00  0.00    +0.092 A 
ENDROOT
BRANCH  23  24
ATOM     24  C   UNL     1      23.302 -18.674  -9.941  0.00  0.00    +0.014 A 
ATOM     25  C   UNL     1      22.861 -19.186 -11.149  0.00  0.00    +0.020 A 
ATOM     26  C   UNL     1      22.262 -20.452 -11.180  0.00  0.00    +0.006 A 
ATOM     27  C   UNL     1      22.094 -21.209 -10.033  0.00  0.00    +0.007 A 
ATOM     28  C   UNL     1      22.534 -20.698  -8.819  0.00  0.00    +0.006 A 
ATOM     29  C   UNL     1      23.121 -19.424  -8.773  0.00  0.00    +0.020 A 
ENDBRANCH  23  24
BRANCH  16  18
ATOM     18  N   UNL     1      26.113 -13.240  -6.233  0.00  0.00    -0.333 N 
ATOM     19  H   UNL     1      26.088 -13.776  -5.354  0.00  0.00    +0.175 HD
ATOM     20  H   UNL     1      26.470 -12.274  -6.237  0.00  0.00    +0.175 HD
ENDBRANCH  16  18
BRANCH   2   3
ATOM      3  N   UNL     1      24.373 -14.599 -12.107  0.00  0.00    -0.292 N 
ATOM      4  H   UNL     1      23.910 -13.684 -12.011  0.00  0.00    +0.191 HD
BRANCH   3   5
ATOM      5  C   UNL     1      24.955 -14.892 -13.406  0.00  0.00    +0.153 C 
BRANCH   5   6
ATOM      6  C   UNL     1      24.315 -16.111 -14.015  0.00  0.00    +0.091 C 
BRANCH   6   7
ATOM      7  C   UNL     1      25.129 -16.552 -15.207  0.00  0.00    -0.041 A 
ATOM      8  C   UNL     1      26.514 -16.503 -15.188  0.00  0.00    -0.005 A 
ATOM      9  C   UNL     1      27.243 -16.935 -16.310  0.00  0.00    -0.009 A 
ATOM     10  C   UNL     1      26.611 -17.421 -17.464  0.00  0.00    -0.013 A 
ATOM     11  C   UNL     1      25.216 -17.469 -17.486  0.00  0.00    -0.009 A 
ATOM     12  C   UNL     1      24.490 -17.032 -16.355  0.00  0.00    -0.005 A 
ENDBRANCH   6   7
ENDBRANCH   5   6
ENDBRANCH   3   5
ENDBRANCH   2   3
TORSDOF 6
