REMARK  Name = 3l16_ligand
REMARK  6 active torsions:
REMARK  status: ('A' for Active; 'I' for Inactive)
REMARK    1  A    between atoms: C1_1  and  C8_20
REMARK    2  A    between atoms: S2_8  and  N5_15
REMARK    3  A    between atoms: S2_8  and  C21_33
REMARK    4  A    between atoms: N3_10  and  C7_18
REMARK    5  A    between atoms: C5_14  and  C7_18
REMARK    6  A    between atoms: N7_19  and  C18_30
REMARK                            x       y       z     vdW  Elec       q    Type
REMARK                         _______ _______ _______ _____ _____    ______ ____
ROOT
ATOM      1  C   UNL     1      22.887  62.178  21.022  0.00  0.00    +0.085 A 
ATOM     11  N   UNL     1      21.899  61.483  21.642  0.00  0.00    -0.270 NA
ATOM     12  C   UNL     1      20.677  62.006  21.870  0.00  0.00    +0.135 A 
ATOM     13  N   UNL     1      19.744  61.227  22.594  0.00  0.00    -0.286 N 
ATOM     14  C   UNL     1      18.315  61.245  22.261  0.00  0.00    +0.164 C 
ATOM     15  C   UNL     1      17.624  60.839  23.573  0.00  0.00    +0.184 C 
ATOM     16  O   UNL     1      18.062  59.557  24.048  0.00  0.00    -0.376 OA
ATOM     17  C   UNL     1      19.483  59.421  24.172  0.00  0.00    +0.184 C 
ATOM     18  C   UNL     1      20.188  59.846  22.892  0.00  0.00    +0.164 C 
ATOM     19  C   UNL     1      20.482  63.318  21.477  0.00  0.00    +0.098 A 
ATOM     20  C   UNL     1      21.477  64.031  20.853  0.00  0.00    +0.026 A 
ATOM     21  C   UNL     1      21.118  65.232  20.544  0.00  0.00    -0.015 A 
ATOM     22  C   UNL     1      19.909  65.473  20.862  0.00  0.00    +0.009 A 
ATOM     34  S   UNL     1      19.084  64.236  21.636  0.00  0.00    -0.017 S 
ATOM     35  N   UNL     1      22.687  63.465  20.623  0.00  0.00    -0.307 NA
ENDROOT
BRANCH   1   2
ATOM      2  C   UNL     1      24.192  61.491  20.813  0.00  0.00    +0.025 A 
ATOM      3  C   UNL     1      24.530  60.363  21.572  0.00  0.00    +0.033 A 
ATOM      4  C   UNL     1      25.752  59.733  21.377  0.00  0.00    +0.050 A 
ATOM      5  C   UNL     1      26.617  60.246  20.427  0.00  0.00    +0.113 A 
ATOM      9  N   UNL     1      26.273  61.334  19.714  0.00  0.00    -0.280 NA
ATOM     10  C   UNL     1      25.102  61.960  19.882  0.00  0.00    +0.093 A 
BRANCH   5   6
ATOM      6  N   UNL     1      27.812  59.669  20.199  0.00  0.00    -0.320 N 
ATOM      7  H   UNL     1      28.089  58.844  20.730  0.00  0.00    +0.178 HD
ATOM      8  H   UNL     1      28.440  60.057  19.495  0.00  0.00    +0.178 HD
ENDBRANCH   5   6
ENDBRANCH   1   2
BRANCH  22  23
ATOM     23  C   UNL     1      19.253  66.838  20.673  0.00  0.00    -0.003 C 
BRANCH  23  24
ATOM     24  N   UNL     1      18.342  67.175  19.561  0.00  0.00    +0.413 NA
ATOM     25  C   UNL     1      19.090  67.337  18.299  0.00  0.00    -0.084 C 
ATOM     26  C   UNL     1      18.130  67.836  17.234  0.00  0.00    +0.103 C 
ATOM     27  N   UNL     1      17.045  66.838  17.122  0.00  0.00    -0.243 NA
ATOM     28  C   UNL     1      16.262  66.755  18.376  0.00  0.00    +0.103 C 
ATOM     33  C   UNL     1      17.191  66.256  19.471  0.00  0.00    -0.084 C 
BRANCH  27  29
ATOM     29  S   UNL     1      16.112  67.148  15.847  0.00  0.00    +0.038 S 
ATOM     30  C   UNL     1      15.577  68.729  15.840  0.00  0.00    +0.218 C 
ATOM     31  O   UNL     1      16.896  66.880  14.674  0.00  0.00    -0.156 OA
ATOM     32  O   UNL     1      14.958  66.291  15.876  0.00  0.00    -0.156 OA
ENDBRANCH  27  29
ENDBRANCH  23  24
ENDBRANCH  22  23
TORSDOF 5
