REMARK  Name = 6HRP
REMARK  7 active torsions:
REMARK  status: ('A' for Active; 'I' for Inactive)
REMARK    1  A    between atoms: C2_2  and  N7_23
REMARK    2  A    between atoms: C4_4  and  C24_12
REMARK    3  A    between atoms: C9_5  and  N7_23
REMARK    4  A    between atoms: C12_8  and  C15_10
REMARK    5  A    between atoms: C38_18  and  C44_20
REMARK    6  A    between atoms: C28_36  and  N30_38
REMARK    7  A    between atoms: C29_37  and  C40_41
REMARK                            x       y       z     vdW  Elec       q    Type
REMARK                         _______ _______ _______ _____ _____    ______ ____
ROOT
ATOM      6  C   UNL     1      24.564   7.188   3.325  0.00  0.00    +0.000 A 
ATOM      7  C   UNL     1      24.324   8.137   4.355  0.00  0.00    +0.000 A 
ATOM     10  C   UNL     1      25.453   8.510   5.045  0.00  0.00    +0.050 A 
ATOM     27  C   UNL     1      26.692   8.078   4.792  0.00  0.00    -0.130 A 
ATOM     28  C   UNL     1      26.941   7.151   3.765  0.00  0.00    -0.130 A 
ATOM     29  C   UNL     1      25.839   6.707   3.072  0.00  0.00    -0.130 A 
ENDROOT
BRANCH  10  11
ATOM     11  N   UNL     1      25.335   9.460   6.134  0.00  0.00    -0.100 N 
ATOM     12  N   UNL     1      25.166  10.812   5.707  0.00  0.00    -0.050 NA
ATOM     13  C   UNL     1      24.949  11.734   6.615  0.00  0.00    -0.150 A 
ATOM     14  C   UNL     1      24.914  11.403   8.020  0.00  0.00    +0.000 A 
ATOM     15  C   UNL     1      24.752  12.426   8.995  0.00  0.00    -0.130 A 
ATOM     16  C   UNL     1      24.713  12.099  10.349  0.00  0.00    +0.000 A 
ATOM     21  C   UNL     1      24.749  10.781  10.745  0.00  0.00    -0.130 A 
ATOM     22  C   UNL     1      24.917   9.803   9.828  0.00  0.00    +0.300 A 
ATOM     23  F   UNL     1      24.911   8.487  10.249  0.00  0.00    -0.300 F 
ATOM     24  C   UNL     1      25.048  10.066   8.440  0.00  0.00    +0.000 A 
ATOM     25  C   UNL     1      25.256   8.987   7.423  0.00  0.00    +0.600 A 
ATOM     26  O   UNL     1      25.395   7.790   7.691  0.00  0.00    -0.550 OA
BRANCH  16  17
ATOM     17  C   UNL     1      24.618  13.234  11.368  0.00  0.00    +0.000 C 
ATOM     18  C   UNL     1      23.433  14.127  11.071  0.00  0.00    -0.150 C 
ATOM     19  C   UNL     1      25.916  14.089  11.234  0.00  0.00    -0.150 C 
ATOM     20  C   UNL     1      24.596  12.680  12.792  0.00  0.00    -0.150 C 
ENDBRANCH  16  17
ENDBRANCH  10  11
BRANCH   6   5
ATOM      1  C   UNL     1      21.387   5.658   0.999  0.00  0.00    +0.600 A 
ATOM      2  N   UNL     1      21.328   5.823   2.383  0.00  0.00    -0.150 N 
ATOM      3  C   UNL     1      20.058   5.559   3.091  0.00  0.00    -0.050 C 
ATOM      4  N   UNL     1      22.363   6.296   3.127  0.00  0.00    -0.050 NA
ATOM      5  C   UNL     1      23.469   6.690   2.531  0.00  0.00    +0.050 A 
ATOM     30  C   UNL     1      23.614   6.562   1.103  0.00  0.00    -0.100 A 
ATOM     31  O   UNL     1      20.436   5.205   0.395  0.00  0.00    -0.550 OA
ATOM     32  C   UNL     1      22.616   6.047   0.391  0.00  0.00    +0.100 A 
BRANCH  32  33
ATOM     33  N   UNL     1      22.586   5.845  -1.009  0.00  0.00    -0.400 NA
BRANCH  33  34
ATOM     34  C   UNL     1      23.620   5.972  -1.911  0.00  0.00    +0.430 A 
ATOM     35  N   UNL     1      24.788   6.376  -1.551  0.00  0.00    -0.760 NA
ATOM     36  C   UNL     1      25.758   6.524  -2.427  0.00  0.00    +0.250 A 
ATOM     37  C   UNL     1      25.575   6.241  -3.793  0.00  0.00    +0.000 A 
ATOM     46  C   UNL     1      24.341   5.773  -4.191  0.00  0.00    -0.130 A 
ATOM     47  C   UNL     1      23.316   5.608  -3.269  0.00  0.00    -0.130 A 
BRANCH  37  38
ATOM     38  C   UNL     1      26.654   6.360  -4.796  0.00  0.00    +0.600 C 
ATOM     39  N   UNL     1      26.443   7.012  -5.939  0.00  0.00    -0.250 N 
ATOM     40  C   UNL     1      25.171   7.722  -6.270  0.00  0.00    +0.000 C 
ATOM     41  C   UNL     1      25.319   8.999  -7.104  0.00  0.00    +0.080 C 
ATOM     42  O   UNL     1      26.207   8.647  -8.181  0.00  0.00    -0.360 OA
ATOM     43  C   UNL     1      27.526   8.415  -7.640  0.00  0.00    +0.080 C 
ATOM     44  C   UNL     1      27.557   7.048  -6.946  0.00  0.00    +0.000 C 
ATOM     45  O   UNL     1      27.691   5.790  -4.582  0.00  0.00    -0.550 OA
ENDBRANCH  37  38
ENDBRANCH  33  34
ENDBRANCH  32  33
ENDBRANCH   6   5
BRANCH   7   8
ATOM      8  C   UNL     1      23.069   8.819   4.641  0.00  0.00    +0.150 C 
ATOM      9  O   UNL     1      22.518   8.360   5.881  0.00  0.00    -0.650 OA
ENDBRANCH   7   8
TORSDOF 7
