REMARK  Name = 4Y85
REMARK  2 active torsions:
REMARK  status: ('A' for Active; 'I' for Inactive)
REMARK    1  A    between atoms: C_1  and  C_2
REMARK    2  A    between atoms: C_19  and  C_22
REMARK                            x       y       z     vdW  Elec       q    Type
REMARK                         _______ _______ _______ _____ _____    ______ ____
ROOT
ATOM      9  C   UNL     1      14.627  -0.527 195.375  0.00  0.00    +0.067 A 
ATOM     10  C   UNL     1      14.152  -0.193 196.700  0.00  0.00    +0.034 A 
ATOM     11  C   UNL     1      13.625   0.932 197.329  0.00  0.00    +0.022 A 
ATOM     12  C   UNL     1      13.339   0.879 198.693  0.00  0.00    +0.003 A 
ATOM     22  C   UNL     1      13.581  -0.319 199.370  0.00  0.00    +0.121 A 
ATOM     23  N   UNL     1      14.087  -1.431 198.803  0.00  0.00    -0.235 NA
ATOM     24  C   UNL     1      14.369  -1.325 197.496  0.00  0.00    +0.161 A 
ATOM     25  N   UNL     1      14.945  -2.300 196.728  0.00  0.00    -0.235 NA
ATOM     26  C   UNL     1      15.085  -1.819 195.448  0.00  0.00    +0.127 A 
ENDROOT
BRANCH  12  13
ATOM     13  C   UNL     1      12.808   2.087 199.387  0.00  0.00    +0.011 A 
ATOM     14  C   UNL     1      13.166   3.385 199.112  0.00  0.00    +0.120 A 
ATOM     15  N   UNL     1      12.471   4.248 199.915  0.00  0.00    -0.254 NA
ATOM     16  C   UNL     1      11.633   3.531 200.740  0.00  0.00    +0.072 A 
ATOM     17  C   UNL     1      10.742   3.963 201.721  0.00  0.00    +0.028 A 
ATOM     18  C   UNL     1      10.015   3.005 202.425  0.00  0.00    +0.002 A 
ATOM     19  C   UNL     1      10.172   1.652 202.150  0.00  0.00    +0.001 A 
ATOM     20  C   UNL     1      11.065   1.222 201.167  0.00  0.00    +0.010 A 
ATOM     21  C   UNL     1      11.808   2.163 200.449  0.00  0.00    +0.009 A 
ENDBRANCH  12  13
BRANCH   9   1
ATOM      1  C   UNL     1      14.745   0.345 194.253  0.00  0.00    +0.252 A 
ATOM      2  N   UNL     1      15.160   0.142 193.053  0.00  0.00    -0.106 NA
ATOM      3  N   UNL     1      15.123   1.383 192.409  0.00  0.00    -0.092 NA
ATOM      4  C   UNL     1      14.673   2.219 193.291  0.00  0.00    +0.305 A 
ATOM      5  N   UNL     1      14.434   3.524 193.202  0.00  0.00    -0.312 N 
ATOM      6  H   UNL     1      14.620   4.040 192.284  0.00  0.00    +0.147 HD
ATOM      7  H   UNL     1      14.056   4.058 194.049  0.00  0.00    +0.147 HD
ATOM      8  O   UNL     1      14.413   1.637 194.486  0.00  0.00    -0.405 OA
ENDBRANCH   9   1
TORSDOF 2
