REMARK  Name = 4eh4_ligand
REMARK  1 active torsions:
REMARK  status: ('A' for Active; 'I' for Inactive)
REMARK    1  A    between atoms: CAL_7  and  CAM_9
REMARK                            x       y       z     vdW  Elec       q    Type
REMARK                         _______ _______ _______ _____ _____    ______ ____
ROOT
ATOM      1  C   UNL     1       2.042  -0.424  21.953  0.00  0.00    +0.138 C 
ATOM      2  N   UNL     1       2.879  -0.017  20.746  0.00  0.00    -0.272 N 
ATOM      3  C   UNL     1       3.336  -1.015  19.887  0.00  0.00    +0.207 C 
ATOM     10  O   UNL     1       2.985  -2.182  20.079  0.00  0.00    -0.385 OA
ATOM     11  C   UNL     1       3.254   1.429  20.525  0.00  0.00    +0.138 C 
ATOM     12  C   UNL     1       2.507   2.504  21.373  0.00  0.00    +0.025 C 
ATOM     13  C   UNL     1       2.173   2.031  22.796  0.00  0.00    +0.004 C 
ATOM     14  C   UNL     1       1.337   0.737  22.715  0.00  0.00    +0.025 C 
ENDROOT
BRANCH   3   4
ATOM      4  C   UNL     1       4.206  -0.765  18.627  0.00  0.00    +0.050 A 
ATOM      5  C   UNL     1       5.544  -0.356  18.728  0.00  0.00    +0.025 A 
ATOM      6  C   UNL     1       6.299  -0.105  17.571  0.00  0.00    +0.007 A 
ATOM      7  C   UNL     1       5.754  -0.284  16.301  0.00  0.00    +0.008 A 
ATOM      8  C   UNL     1       4.432  -0.712  16.205  0.00  0.00    +0.007 A 
ATOM      9  C   UNL     1       3.661  -0.963  17.353  0.00  0.00    +0.025 A 
ENDBRANCH   3   4
TORSDOF 1
