REMARK  Name = 3hv4_ligand
REMARK  11 active torsions:
REMARK  status: ('A' for Active; 'I' for Inactive)
REMARK    1  A    between atoms: CBB_3  and  NAE_4
REMARK    2  A    between atoms: CBF_11  and  NAY_12
REMARK    3  A    between atoms: NAY_12  and  CBD_13
REMARK    4  A    between atoms: CBC_18  and  NAW_19
REMARK    5  A    between atoms: NAX_22  and  CBH_23
REMARK    6  A    between atoms: CBG_25  and  CBL_26
REMARK    7  A    between atoms: CBL_26  and  CAC_27
REMARK    8  A    between atoms: CBL_26  and  CAD_28
REMARK    9  A    between atoms: CBL_26  and  CAB_29
REMARK   10  A    between atoms: NBK_31  and  CBE_32
REMARK   11  A    between atoms: CBA_35  and  CAA_36
REMARK                            x       y       z     vdW  Elec       q    Type
REMARK                         _______ _______ _______ _____ _____    ______ ____
ROOT
ATOM     10  N   UNL     1      13.839  -4.625   0.194  0.00  0.00    -0.216 N 
ATOM     11  H   UNL     1      13.392  -5.106  -0.587  0.00  0.00    +0.226 HD
ATOM     12  C   UNL     1      15.111  -4.933   0.393  0.00  0.00    +0.323 C 
ATOM     13  N   UNL     1      15.599  -5.802  -0.497  0.00  0.00    -0.179 N 
ATOM     14  H   UNL     1      14.977  -6.070  -1.259  0.00  0.00    +0.234 HD
ATOM     31  O   UNL     1      15.798  -4.419   1.278  0.00  0.00    -0.379 OA
ENDROOT
BRANCH  10   9
ATOM      5  C   UNL     1      12.426  -1.633   1.868  0.00  0.00    +0.049 A 
ATOM      6  C   UNL     1      11.203  -2.164   2.300  0.00  0.00    -0.012 A 
ATOM      7  C   UNL     1      10.927  -3.488   2.013  0.00  0.00    -0.030 A 
ATOM      8  C   UNL     1      11.830  -4.266   1.303  0.00  0.00    -0.012 A 
ATOM      9  C   UNL     1      13.051  -3.773   0.869  0.00  0.00    +0.057 A 
ATOM     32  C   UNL     1      13.361  -2.443   1.157  0.00  0.00    +0.022 A 
BRANCH   5   3
ATOM      3  N   UNL     1      12.710  -0.334   2.130  0.00  0.00    -0.267 N 
ATOM      4  H   UNL     1      12.917   0.283   1.344  0.00  0.00    +0.216 HD
BRANCH   3   2
ATOM      1  C   UNL     1      12.516   1.560   3.557  0.00  0.00    +0.021 A 
ATOM      2  C   UNL     1      12.734   0.182   3.361  0.00  0.00    +0.084 A 
ATOM     33  C   UNL     1      12.974  -0.641   4.466  0.00  0.00    +0.036 A 
ATOM     34  C   UNL     1      13.005  -0.085   5.734  0.00  0.00    +0.063 A 
ATOM     35  N   UNL     1      12.792   1.216   5.920  0.00  0.00    -0.326 NA
ATOM     36  C   UNL     1      12.549   2.052   4.882  0.00  0.00    +0.024 A 
ATOM     37  C   UNL     1      12.358   3.423   5.123  0.00  0.00    +0.011 A 
ATOM     38  C   UNL     1      12.108   4.306   4.065  0.00  0.00    +0.023 A 
ATOM     39  C   UNL     1      12.063   3.836   2.744  0.00  0.00    +0.039 A 
ATOM     43  C   UNL     1      12.268   2.455   2.486  0.00  0.00    +0.017 A 
BRANCH  39  40
ATOM     40  N   UNL     1      11.803   4.716   1.756  0.00  0.00    -0.337 N 
ATOM     41  H   UNL     1      11.765   4.399   0.787  0.00  0.00    +0.172 HD
ATOM     42  H   UNL     1      11.644   5.699   1.977  0.00  0.00    +0.172 HD
ENDBRANCH  39  40
ENDBRANCH   3   2
ENDBRANCH   5   3
ENDBRANCH  10   9
BRANCH  13  15
ATOM     15  C   UNL     1      16.852  -6.375  -0.496  0.00  0.00    +0.219 A 
ATOM     16  N   UNL     1      17.506  -6.965  -1.526  0.00  0.00    -0.107 N 
ATOM     24  N   UNL     1      18.575  -7.467  -1.147  0.00  0.00    -0.167 NA
ATOM     25  C   UNL     1      18.666  -7.244   0.156  0.00  0.00    -0.004 A 
ATOM     30  C   UNL     1      17.588  -6.591   0.594  0.00  0.00    +0.003 A 
BRANCH  16  17
ATOM     17  C   UNL     1      17.069  -7.060  -2.796  0.00  0.00    +0.123 A 
ATOM     18  C   UNL     1      16.459  -6.007  -3.473  0.00  0.00    +0.033 A 
ATOM     19  C   UNL     1      16.009  -6.212  -4.769  0.00  0.00    -0.006 A 
ATOM     20  C   UNL     1      16.183  -7.450  -5.400  0.00  0.00    -0.049 A 
ATOM     21  C   UNL     1      15.709  -7.636  -6.829  0.00  0.00    +0.083 C 
ATOM     22  C   UNL     1      16.791  -8.514  -4.748  0.00  0.00    -0.006 A 
ATOM     23  C   UNL     1      17.217  -8.304  -3.426  0.00  0.00    +0.033 A 
ENDBRANCH  16  17
BRANCH  25  26
ATOM     26  C   UNL     1      19.848  -7.720   1.035  0.00  0.00    -0.046 C 
ATOM     27  C   UNL     1      20.903  -8.313   0.132  0.00  0.00    -0.047 C 
ATOM     28  C   UNL     1      19.372  -8.813   1.986  0.00  0.00    -0.047 C 
ATOM     29  C   UNL     1      20.405  -6.560   1.864  0.00  0.00    -0.047 C 
ENDBRANCH  25  26
ENDBRANCH  13  15
TORSDOF 7
