REMARK  Name = GEZ
REMARK  4 active torsions:
REMARK  status: ('A' for Active; 'I' for Inactive)
REMARK    1  A    between atoms: O2_2  and  C3_3
REMARK    2  A    between atoms: C9_9  and  N10_10
REMARK    3  A    between atoms: C20_20  and  S21_21
REMARK    4  A    between atoms: S21_21  and  C24_24
REMARK                            x       y       z     vdW  Elec       q    Type
REMARK                         _______ _______ _______ _____ _____    ______ ____
ROOT
ATOM      3  C   UNL     1     -40.339  39.275  -4.669  0.00  0.00    +0.157 A 
ATOM      4  C   UNL     1     -39.659  39.615  -3.496  0.00  0.00    +0.140 A 
ATOM      5  C   UNL     1     -39.526  38.729  -2.450  0.00  0.00    +0.026 A 
ATOM      6  C   UNL     1     -40.076  37.426  -2.549  0.00  0.00    +0.060 A 
ATOM      7  C   UNL     1     -40.025  36.457  -1.499  0.00  0.00    +0.186 A 
ATOM     16  C   UNL     1     -40.638  35.231  -1.728  0.00  0.00    +0.065 A 
ATOM     17  C   UNL     1     -41.259  34.972  -2.930  0.00  0.00    +0.102 A 
ATOM     18  N   UNL     1     -41.351  35.827  -3.954  0.00  0.00    -0.243 NA
ATOM     19  C   UNL     1     -40.768  37.059  -3.745  0.00  0.00    +0.088 A 
ATOM     27  C   UNL     1     -40.888  38.023  -4.780  0.00  0.00    +0.057 A 
ENDROOT
BRANCH   7   8
ATOM      8  N   UNL     1     -39.367  36.779  -0.288  0.00  0.00    -0.007 NA
ATOM      9  C   UNL     1     -39.213  35.968   0.806  0.00  0.00    +0.374 C 
ATOM     10  N   UNL     1     -39.697  36.345   1.985  0.00  0.00    +0.079 NA
ATOM     11  N   UNL     1     -39.370  35.315   2.792  0.00  0.00    -0.043 NA
ATOM     12  C   UNL     1     -38.688  34.310   2.197  0.00  0.00    +0.095 C 
ATOM     13  C   UNL     1     -38.264  33.097   2.976  0.00  0.00    +0.052 C 
ATOM     14  C   UNL     1     -38.536  34.688   0.877  0.00  0.00    +0.152 C 
ATOM     15  C   UNL     1     -37.854  34.004  -0.248  0.00  0.00    +0.019 C 
ENDBRANCH   7   8
BRANCH   4  20
ATOM     20  S   UNL     1     -38.871  41.205  -3.256  0.00  0.00    +0.008 S 
ATOM     21  O   UNL     1     -37.868  40.990  -2.252  0.00  0.00    -0.169 OA
ATOM     26  O   UNL     1     -38.463  41.748  -4.524  0.00  0.00    -0.169 OA
BRANCH  20  22
ATOM     22  C   UNL     1     -40.087  42.366  -2.544  0.00  0.00    +0.115 C 
ATOM     23  C   UNL     1     -40.569  41.855  -1.199  0.00  0.00    +0.024 C 
ATOM     24  C   UNL     1     -39.352  43.689  -2.372  0.00  0.00    +0.024 C 
ATOM     25  C   UNL     1     -41.296  42.558  -3.453  0.00  0.00    +0.024 C 
ENDBRANCH  20  22
ENDBRANCH   4  20
BRANCH   3   2
ATOM      1  C   UNL     1     -41.066  39.898  -6.902  0.00  0.00    +0.253 C 
ATOM      2  O   UNL     1     -40.412  40.223  -5.667  0.00  0.00    -0.470 OA
ENDBRANCH   3   2
TORSDOF 4
