REMARK  Name = 3r2y_ligand
REMARK  2 active torsions:
REMARK  status: ('A' for Active; 'I' for Inactive)
REMARK    1  A    between atoms: C18_10  and  C14_11
REMARK    2  A    between atoms: C12_16  and  C2_17
REMARK                            x       y       z     vdW  Elec       q    Type
REMARK                         _______ _______ _______ _____ _____    ______ ____
ROOT
ATOM      3  C   UNL     1       7.198  19.888  46.236  0.00  0.00    +0.049 A 
ATOM      4  N   UNL     1       7.682  20.999  45.702  0.00  0.00    -0.303 NA
ATOM      5  C   UNL     1       7.861  21.161  44.403  0.00  0.00    +0.080 A 
ATOM      6  C   UNL     1       7.504  20.174  43.511  0.00  0.00    +0.030 A 
ATOM      7  C   UNL     1       6.972  18.990  44.009  0.00  0.00    +0.008 A 
ATOM     20  C   UNL     1       6.823  18.850  45.392  0.00  0.00    +0.040 A 
ENDROOT
BRANCH   7   8
ATOM      8  C   UNL     1       6.575  17.907  43.102  0.00  0.00    +0.064 A 
ATOM      9  N   UNL     1       5.916  16.749  43.476  0.00  0.00    -0.271 N 
ATOM     10  H   UNL     1       5.626  16.506  44.434  0.00  0.00    +0.235 HD
ATOM     11  C   UNL     1       5.721  16.007  42.399  0.00  0.00    +0.072 A 
ATOM     12  C   UNL     1       5.078  14.659  42.246  0.00  0.00    +0.133 C 
ATOM     13  C   UNL     1       5.553  13.988  40.951  0.00  0.00    +0.153 C 
ATOM     14  N   UNL     1       5.669  14.904  39.828  0.00  0.00    -0.290 N 
ATOM     15  H   UNL     1       5.351  14.605  38.928  0.00  0.00    +0.184 HD
ATOM     16  C   UNL     1       6.189  16.142  39.953  0.00  0.00    +0.175 C 
ATOM     17  O   UNL     1       6.600  16.792  39.012  0.00  0.00    -0.404 OA
ATOM     18  C   UNL     1       6.245  16.694  41.307  0.00  0.00    +0.041 A 
ATOM     19  C   UNL     1       6.786  17.892  41.765  0.00  0.00    -0.019 A 
ENDBRANCH   7   8
BRANCH   3   2
ATOM      1  C   UNL     1       6.194  18.914  48.312  0.00  0.00    +0.056 A 
ATOM      2  C   UNL     1       7.061  19.812  47.721  0.00  0.00    +0.027 A 
ATOM     21  C   UNL     1       7.799  20.664  48.562  0.00  0.00    +0.110 A 
ATOM     22  N   UNL     1       7.691  20.636  49.865  0.00  0.00    -0.293 NA
ATOM     23  C   UNL     1       6.864  19.781  50.475  0.00  0.00    +0.048 A 
ATOM     24  C   UNL     1       6.750  19.739  51.883  0.00  0.00    +0.026 A 
ATOM     25  C   UNL     1       5.898  18.833  52.461  0.00  0.00    +0.010 A 
ATOM     26  C   UNL     1       5.128  17.954  51.682  0.00  0.00    +0.009 A 
ATOM     27  C   UNL     1       5.209  17.973  50.325  0.00  0.00    +0.021 A 
ATOM     28  C   UNL     1       6.080  18.882  49.703  0.00  0.00    +0.009 A 
ENDBRANCH   3   2
TORSDOF 2
