REMARK  Name = 2x2l_ligand
REMARK  4 active torsions:
REMARK  status: ('A' for Active; 'I' for Inactive)
REMARK    1  A    between atoms: CAM_3  and  OAB_4
REMARK    2  A    between atoms: OAB_4  and  CAA_16
REMARK    3  A    between atoms: CAQ_7  and  CAF_8
REMARK    4  A    between atoms: CAN_12  and  NAB_19
REMARK                            x       y       z     vdW  Elec       q    Type
REMARK                         _______ _______ _______ _____ _____    ______ ____
ROOT
ATOM      3  C   UNL     1     -10.882 -25.919  10.884  0.00  0.00    +0.030 C 
ATOM      4  C   UNL     1     -11.886 -26.907  11.045  0.00  0.00    +0.045 C 
ATOM      5  C   UNL     1     -13.193 -26.861  11.562  0.00  0.00    +0.221 C 
ATOM      6  O   UNL     1     -13.774 -25.894  12.010  0.00  0.00    -0.377 OA
ATOM      7  N   UNL     1     -13.761 -28.074  11.555  0.00  0.00    -0.242 N 
ATOM      8  H   UNL     1     -14.689 -28.301  11.913  0.00  0.00    +0.221 HD
ATOM      9  C   UNL     1     -12.903 -28.938  10.997  0.00  0.00    +0.060 A 
ATOM     10  C   UNL     1     -13.012 -30.317  10.740  0.00  0.00    -0.004 A 
ATOM     11  C   UNL     1     -11.962 -31.021  10.159  0.00  0.00    -0.010 A 
ATOM     12  C   UNL     1     -10.806 -30.317   9.855  0.00  0.00    +0.019 A 
ATOM     16  C   UNL     1     -10.667 -28.952  10.097  0.00  0.00    -0.008 A 
ATOM     17  C   UNL     1     -11.721 -28.244  10.673  0.00  0.00    -0.006 A 
ENDROOT
BRANCH   3   2
ATOM      1  C   UNL     1      -9.569 -23.896  11.024  0.00  0.00    +0.006 A 
ATOM      2  C   UNL     1     -10.760 -24.571  11.337  0.00  0.00    -0.025 A 
ATOM     18  C   UNL     1     -11.742 -23.841  12.038  0.00  0.00    +0.006 A 
ATOM     19  C   UNL     1     -11.524 -22.503  12.411  0.00  0.00    +0.029 A 
ATOM     20  C   UNL     1     -10.310 -21.863  12.087  0.00  0.00    +0.097 A 
ATOM     23  C   UNL     1      -9.331 -22.563  11.376  0.00  0.00    +0.029 A 
BRANCH  20  21
ATOM     21  O   UNL     1     -10.026 -20.557  12.420  0.00  0.00    -0.317 OA
ATOM     22  C   UNL     1     -10.672 -19.911  13.588  0.00  0.00    +0.235 C 
ENDBRANCH  20  21
ENDBRANCH   3   2
BRANCH  12  13
ATOM     13  N   UNL     1      -9.780 -30.963   9.306  0.00  0.00    -0.345 N 
ATOM     14  H   UNL     1      -8.924 -30.459   9.077  0.00  0.00    +0.167 HD
ATOM     15  H   UNL     1      -9.850 -31.962   9.114  0.00  0.00    +0.167 HD
ENDBRANCH  12  13
TORSDOF 3
