REMARK  Name = 3eid_ligand
REMARK  10 active torsions:
REMARK  status: ('A' for Active; 'I' for Inactive)
REMARK    1  A    between atoms: C7_5  and  C10_7
REMARK    2  A    between atoms: C17_9  and  N16_21
REMARK    3  A    between atoms: C20_10  and  O23_24
REMARK    4  A    between atoms: C24_13  and  O23_24
REMARK    5  A    between atoms: C24_13  and  C25_25
REMARK    6  A    between atoms: C25_25  and  O26_26
REMARK    7  A    between atoms: C25_25  and  C27_27
REMARK    8  A    between atoms: C27_27  and  N28_28
REMARK    9  A    between atoms: N28_28  and  C29_29
REMARK   10  A    between atoms: N28_28  and  C30_30
REMARK                            x       y       z     vdW  Elec       q    Type
REMARK                         _______ _______ _______ _____ _____    ______ ____
ROOT
ATOM      5  C   UNL     1     -13.559 206.451 111.032  0.00  0.00    +0.026 A 
ATOM      6  N   UNL     1     -12.262 206.629 111.302  0.00  0.00    -0.267 NA
ATOM      7  C   UNL     1     -11.528 207.261 110.377  0.00  0.00    +0.193 A 
ATOM      8  N   UNL     1     -10.160 207.483 110.587  0.00  0.00    -0.250 N 
ATOM      9  H   UNL     1      -9.550 207.515 109.757  0.00  0.00    +0.215 HD
ATOM     26  N   UNL     1     -12.009 207.707 109.214  0.00  0.00    -0.266 NA
ATOM     27  C   UNL     1     -13.306 207.503 108.986  0.00  0.00    +0.087 A 
ATOM     28  C   UNL     1     -14.146 206.873 109.867  0.00  0.00    +0.027 A 
ENDROOT
BRANCH   5   4
ATOM      1  N   UNL     1     -15.085 204.887 113.883  0.00  0.00    -0.089 N 
ATOM      2  N   UNL     1     -16.030 204.552 112.990  0.00  0.00    -0.188 NA
ATOM      3  C   UNL     1     -15.599 205.089 111.846  0.00  0.00    +0.076 A 
ATOM      4  C   UNL     1     -14.369 205.768 112.005  0.00  0.00    +0.025 A 
ATOM     29  N   UNL     1     -15.192 204.495 115.158  0.00  0.00    -0.124 NA
ATOM     30  C   UNL     1     -14.225 204.866 115.941  0.00  0.00    +0.156 A 
ATOM     31  N   UNL     1     -14.236 204.513 117.270  0.00  0.00    -0.285 N 
ATOM     32  C   UNL     1     -13.464 203.350 117.694  0.00  0.00    +0.161 C 
ATOM     33  C   UNL     1     -14.147 202.690 118.868  0.00  0.00    +0.184 C 
ATOM     34  O   UNL     1     -14.291 203.676 119.886  0.00  0.00    -0.376 OA
ATOM     35  C   UNL     1     -15.231 204.672 119.470  0.00  0.00    +0.184 C 
ATOM     36  C   UNL     1     -14.656 205.451 118.303  0.00  0.00    +0.161 C 
ATOM     37  C   UNL     1     -13.064 205.664 115.482  0.00  0.00    +0.071 A 
ATOM     38  C   UNL     1     -13.036 206.005 114.193  0.00  0.00    +0.073 A 
ATOM     39  C   UNL     1     -14.069 205.613 113.338  0.00  0.00    +0.141 A 
ENDBRANCH   5   4
BRANCH   8  10
ATOM     10  C   UNL     1      -9.558 207.665 111.842  0.00  0.00    +0.055 A 
ATOM     11  C   UNL     1     -10.310 208.149 112.887  0.00  0.00    +0.005 A 
ATOM     12  C   UNL     1      -9.752 208.344 114.130  0.00  0.00    +0.010 A 
ATOM     13  C   UNL     1      -8.421 208.061 114.330  0.00  0.00    +0.080 A 
ATOM     24  C   UNL     1      -7.651 207.577 113.297  0.00  0.00    +0.010 A 
ATOM     25  C   UNL     1      -8.226 207.385 112.060  0.00  0.00    +0.005 A 
BRANCH  13  14
ATOM     14  O   UNL     1      -7.867 208.250 115.581  0.00  0.00    -0.323 OA
BRANCH  14  15
ATOM     15  C   UNL     1      -6.577 207.649 115.573  0.00  0.00    +0.226 C 
BRANCH  15  16
ATOM     16  C   UNL     1      -5.795 208.219 116.733  0.00  0.00    +0.189 C 
BRANCH  16  22
ATOM     22  O   UNL     1      -5.374 209.529 116.364  0.00  0.00    -0.384 OA
ATOM     23  H   UNL     1      -4.878 209.915 117.077  0.00  0.00    +0.210 HD
ENDBRANCH  16  22
BRANCH  16  17
ATOM     17  C   UNL     1      -6.695 208.270 117.954  0.00  0.00    +0.165 C 
BRANCH  17  18
ATOM     18  N   UNL     1      -5.887 208.550 119.170  0.00  0.00    +0.233 N 
ATOM     19  H   UNL     1      -5.216 209.254 118.906  0.00  0.00    +0.203 HD
ATOM     20  C   UNL     1      -5.100 207.368 119.602  0.00  0.00    +0.190 C 
ATOM     21  C   UNL     1      -6.689 209.139 120.275  0.00  0.00    +0.190 C 
ENDBRANCH  17  18
ENDBRANCH  16  17
ENDBRANCH  15  16
ENDBRANCH  14  15
ENDBRANCH  13  14
ENDBRANCH   8  10
TORSDOF 8
