REMARK  Name = 4cmo_ligand
REMARK  10 active torsions:
REMARK  status: ('A' for Active; 'I' for Inactive)
REMARK    1  A    between atoms: C1_1  and  O8_8
REMARK    2  A    between atoms: C2_2  and  N7_7
REMARK    3  A    between atoms: C5_5  and  C17_17
REMARK    4  A    between atoms: O8_8  and  C9_9
REMARK    5  A    between atoms: C9_9  and  C10_10
REMARK    6  A    between atoms: C9_9  and  C29_29
REMARK    7  A    between atoms: C11_11  and  C25_25
REMARK    8  A    between atoms: C18_18  and  O23_23
REMARK    9  A    between atoms: O23_23  and  C24_24
REMARK   10  A    between atoms: N26_26  and  C28_28
REMARK                            x       y       z     vdW  Elec       q    Type
REMARK                         _______ _______ _______ _____ _____    ______ ____
ROOT
ATOM      1  C   UNL     1      29.979  44.636   9.220  0.00  0.00    +0.217 A 
ATOM     17  N   UNL     1      30.009  45.812   8.512  0.00  0.00    -0.261 NA
ATOM     18  C   UNL     1      28.958  46.711   8.623  0.00  0.00    +0.058 A 
ATOM     27  C   UNL     1      27.890  46.372   9.467  0.00  0.00    +0.095 A 
ATOM     28  N   UNL     1      27.854  45.196  10.176  0.00  0.00    -0.273 NA
ATOM     29  C   UNL     1      28.900  44.315  10.064  0.00  0.00    +0.172 A 
ENDROOT
BRANCH  18  19
ATOM     19  C   UNL     1      29.069  47.979   7.838  0.00  0.00    +0.052 A 
ATOM     20  C   UNL     1      30.374  48.496   7.534  0.00  0.00    +0.029 A 
ATOM     21  C   UNL     1      30.584  49.694   6.803  0.00  0.00    +0.017 A 
ATOM     22  C   UNL     1      29.452  50.383   6.370  0.00  0.00    +0.079 A 
ATOM     23  N   UNL     1      28.175  49.958   6.619  0.00  0.00    -0.272 NA
ATOM     24  C   UNL     1      27.985  48.781   7.338  0.00  0.00    +0.176 A 
BRANCH  24  25
ATOM     25  O   UNL     1      26.682  48.356   7.590  0.00  0.00    -0.299 OA
ATOM     26  C   UNL     1      25.618  49.182   7.090  0.00  0.00    +0.240 C 
ENDBRANCH  24  25
ENDBRANCH  18  19
BRANCH  29  30
ATOM     30  N   UNL     1      28.874  43.114  10.787  0.00  0.00    -0.318 N 
ATOM     31  H   UNL     1      29.655  42.447  10.706  0.00  0.00    +0.177 HD
ATOM     32  H   UNL     1      28.074  42.899  11.399  0.00  0.00    +0.177 HD
ENDBRANCH  29  30
BRANCH   1   2
ATOM      2  O   UNL     1      31.016  43.708   9.137  0.00  0.00    -0.279 OA
BRANCH   2   3
ATOM      3  C   UNL     1      32.142  43.983   8.265  0.00  0.00    +0.201 C 
ATOM      4  C   UNL     1      32.803  42.617   8.015  0.00  0.00    +0.062 C 
BRANCH   3   5
ATOM      5  C   UNL     1      33.151  44.993   8.840  0.00  0.00    +0.009 A 
ATOM      6  C   UNL     1      33.491  44.926  10.240  0.00  0.00    +0.038 A 
ATOM      7  C   UNL     1      34.416  45.836  10.804  0.00  0.00    +0.131 A 
ATOM      8  F   UNL     1      34.707  45.747  12.106  0.00  0.00    -0.181 F 
ATOM      9  C   UNL     1      35.033  46.835  10.022  0.00  0.00    +0.027 A 
ATOM     10  C   UNL     1      34.726  46.931   8.642  0.00  0.00    +0.014 A 
ATOM     11  C   UNL     1      33.793  46.024   8.034  0.00  0.00    +0.050 A 
BRANCH  11  12
ATOM     12  C   UNL     1      33.534  46.195   6.557  0.00  0.00    +0.197 C 
ATOM     13  O   UNL     1      33.518  45.201   5.831  0.00  0.00    -0.390 OA
ATOM     14  N   UNL     1      33.344  47.506   6.121  0.00  0.00    -0.291 N 
ATOM     15  H   UNL     1      33.379  48.245   6.794  0.00  0.00    +0.184 HD
ATOM     16  C   UNL     1      33.097  47.841   4.731  0.00  0.00    +0.164 C 
ENDBRANCH  11  12
ENDBRANCH   3   5
ENDBRANCH   2   3
ENDBRANCH   1   2
TORSDOF 7
