REMARK  Name = 6JR
REMARK  2 active torsions:
REMARK  status: ('A' for Active; 'I' for Inactive)
REMARK    1  A    between atoms: C26_7  and  C25_27
REMARK    2  A    between atoms: N09_17  and  C17_23
REMARK                            x       y       z     vdW  Elec       q    Type
REMARK                         _______ _______ _______ _____ _____    ______ ____
ROOT
ATOM      1  N   UNL     1      -8.189   5.716   9.729  0.00  0.00    -0.239 N 
ATOM      2  C   UNL     1      -8.128   5.252  11.076  0.00  0.00    +0.288 C 
ATOM      3  C   UNL     1      -6.893   5.587  11.925  0.00  0.00    +0.173 A 
ATOM      4  N   UNL     1      -6.503   5.305  13.207  0.00  0.00    -0.217 NA
ATOM      5  C   UNL     1      -5.295   5.876  13.384  0.00  0.00    +0.182 A 
ATOM      6  N   UNL     1      -4.920   6.496  12.227  0.00  0.00    -0.269 N 
ATOM     19  C   UNL     1      -5.912   6.308  11.362  0.00  0.00    +0.172 A 
ATOM     20  N   UNL     1      -5.998   6.746   9.994  0.00  0.00    -0.192 NA
ATOM     21  O   UNL     1      -9.050   4.600  11.527  0.00  0.00    -0.265 OA
ATOM     22  C   UNL     1      -7.149   6.453   9.192  0.00  0.00    +0.241 C 
ATOM     23  N   UNL     1      -7.406   6.799   7.898  0.00  0.00    -0.209 NA
ATOM     24  C   UNL     1      -8.645   6.256   7.633  0.00  0.00    +0.102 C 
ATOM     31  C   UNL     1      -9.133   5.594   8.738  0.00  0.00    +0.105 C 
ENDROOT
BRANCH   6   7
ATOM      7  C   UNL     1      -3.878   7.101  12.006  0.00  0.00    +0.241 C 
ATOM      8  O   UNL     1      -4.090   8.682  11.785  0.00  0.00    -0.331 OA
ATOM      9  C   UNL     1      -3.199   9.034  10.961  0.00  0.00    +0.177 C 
ATOM     10  C   UNL     1      -3.411  10.326  10.212  0.00  0.00    +0.181 C 
ATOM     11  O   UNL     1      -2.183  10.553   9.310  0.00  0.00    -0.311 OA
ATOM     12  P   UNL     1      -1.967   9.350   8.134  0.00  0.00    +0.214 P 
ATOM     13  O   UNL     1      -1.886   7.868   8.941  0.00  0.00    -0.311 OA
ATOM     14  O   UNL     1      -0.610   9.642   7.469  0.00  0.00    -0.437 OA
ATOM     15  O   UNL     1      -3.098   9.381   7.173  0.00  0.00    -0.517 OA
ATOM     16  C   UNL     1      -2.989   7.682   9.884  0.00  0.00    +0.186 C 
ATOM     17  C   UNL     1      -3.056   6.642  10.666  0.00  0.00    +0.231 C 
ATOM     18  O   UNL     1      -1.746   6.282  11.205  0.00  0.00    -0.216 OA
ENDBRANCH   6   7
BRANCH  24  25
ATOM     25  C   UNL     1      -9.319   6.411   6.256  0.00  0.00    +0.019 A 
ATOM     26  C   UNL     1     -10.805   6.104   6.069  0.00  0.00    +0.002 A 
ATOM     27  C   UNL     1     -11.395   6.276   4.705  0.00  0.00    +0.000 A 
ATOM     28  C   UNL     1     -10.563   6.732   3.573  0.00  0.00    +0.000 A 
ATOM     29  C   UNL     1      -9.085   7.028   3.776  0.00  0.00    +0.000 A 
ATOM     30  C   UNL     1      -8.485   6.855   5.148  0.00  0.00    +0.002 A 
ENDBRANCH  24  25
TORSDOF 2
