REMARK  Name = 5M4K
REMARK  10 active torsions:
REMARK  status: ('A' for Active; 'I' for Inactive)
REMARK    1  A    between atoms: N_2  and  C_15
REMARK    2  A    between atoms: N_2  and  C_24
REMARK    3  A    between atoms: C_4  and  O_10
REMARK    4  A    between atoms: N_5  and  C_23
REMARK    5  A    between atoms: O_6  and  C_18
REMARK    6  A    between atoms: O_6  and  C_21
REMARK    7  A    between atoms: O_8  and  C_9
REMARK    8  A    between atoms: C_11  and  C_14
REMARK    9  A    between atoms: C_22  and  C_24
REMARK   10  A    between atoms: C_23  and  C_25
REMARK                            x       y       z     vdW  Elec       q    Type
REMARK                         _______ _______ _______ _____ _____    ______ ____
ROOT
ATOM      4  C   UNL     1      31.755 -34.243  11.036  0.00  0.00    +0.255 C 
ATOM      5  O   UNL     1      30.815 -34.431  11.786  0.00  0.00    -0.270 OA
ATOM      6  N   UNL     1      32.226 -32.910  10.697  0.00  0.00    -0.259 N 
ENDROOT
BRANCH   4   3
ATOM      1  C   UNL     1      33.770 -36.643   9.067  0.00  0.00    +0.046 A 
ATOM      2  C   UNL     1      32.925 -35.577   9.364  0.00  0.00    +0.020 A 
ATOM      3  C   UNL     1      32.591 -35.303  10.687  0.00  0.00    +0.079 A 
ATOM     22  C   UNL     1      33.110 -36.111  11.695  0.00  0.00    +0.132 A 
ATOM     25  C   UNL     1      33.950 -37.178  11.406  0.00  0.00    +0.091 A 
ATOM     26  C   UNL     1      34.281 -37.444  10.084  0.00  0.00    +0.120 A 
BRANCH  22  23
ATOM     23  O   UNL     1      32.752 -35.806  12.972  0.00  0.00    -0.506 OA
ATOM     24  H   UNL     1      32.251 -36.624  13.400  0.00  0.00    +0.292 HD
ENDBRANCH  22  23
BRANCH  26  27
ATOM     27  O   UNL     1      35.104 -38.486   9.789  0.00  0.00    -0.507 OA
ATOM     28  H   UNL     1      34.601 -39.164   9.165  0.00  0.00    +0.292 HD
ENDBRANCH  26  27
ENDBRANCH   4   3
BRANCH   6  14
ATOM     14  C   UNL     1      33.312 -32.779   9.752  0.00  0.00    +0.037 A 
ATOM     15  C   UNL     1      33.146 -32.243   8.479  0.00  0.00    +0.027 A 
ATOM     16  C   UNL     1      34.249 -32.160   7.631  0.00  0.00    +0.047 A 
ATOM     17  C   UNL     1      35.508 -32.607   8.040  0.00  0.00    +0.120 A 
ATOM     18  C   UNL     1      35.662 -33.144   9.310  0.00  0.00    +0.047 A 
ATOM     21  C   UNL     1      34.566 -33.227  10.156  0.00  0.00    +0.027 A 
BRANCH  17  19
ATOM     19  O   UNL     1      36.604 -32.538   7.228  0.00  0.00    -0.495 OA
ATOM     20  C   UNL     1      36.392 -31.761   6.045  0.00  0.00    +0.277 C 
ENDBRANCH  17  19
ENDBRANCH   6  14
BRANCH   6   7
ATOM      7  C   UNL     1      31.309 -31.769  10.809  0.00  0.00    +0.209 C 
BRANCH   7   8
ATOM      8  C   UNL     1      31.983 -30.695  11.675  0.00  0.00    +0.231 C 
ATOM      9  O   UNL     1      33.175 -30.402  11.538  0.00  0.00    -0.274 OA
ATOM     10  N   UNL     1      31.185 -30.127  12.589  0.00  0.00    -0.314 N 
ATOM     11  H   UNL     1      30.164 -30.441  12.655  0.00  0.00    +0.149 HD
BRANCH  10  12
ATOM     12  C   UNL     1      31.673 -29.085  13.504  0.00  0.00    +0.101 C 
ATOM     13  C   UNL     1      30.562 -28.065  13.756  0.00  0.00    +0.024 C 
ENDBRANCH  10  12
ENDBRANCH   7   8
ENDBRANCH   6   7
TORSDOF 8
