REMARK  Name = 1h1p_ligand
REMARK  3 active torsions:
REMARK  status: ('A' for Active; 'I' for Inactive)
REMARK    1  A    between atoms: C6_6  and  O6_7
REMARK    2  A    between atoms: O6_7  and  C9_8
REMARK    3  A    between atoms: C9_8  and  C10_13
REMARK                            x       y       z     vdW  Elec       q    Type
REMARK                         _______ _______ _______ _____ _____    ______ ____
ROOT
ATOM      1  N   UNL     1      33.386  45.131  18.109  0.00  0.00    -0.244 NA
ATOM      2  C   UNL     1      33.891  44.408  16.978  0.00  0.00    +0.156 A 
ATOM      3  N   UNL     1      34.607  45.084  16.115  0.00  0.00    -0.261 NA
ATOM      4  C   UNL     1      34.871  46.468  16.320  0.00  0.00    +0.144 A 
ATOM      5  C   UNL     1      34.338  47.078  17.388  0.00  0.00    +0.103 A 
ATOM      6  N   UNL     1      34.793  48.411  17.225  0.00  0.00    -0.302 NA
ATOM      7  C   UNL     1      35.546  48.480  16.192  0.00  0.00    +0.235 A 
ATOM      8  N   UNL     1      35.584  47.304  15.609  0.00  0.00    -0.240 N 
ATOM      9  H   UNL     1      36.089  47.078  14.740  0.00  0.00    +0.238 HD
ATOM     10  N   UNL     1      33.597  43.116  16.886  0.00  0.00    -0.311 N 
ATOM     11  H   UNL     1      33.941  42.565  16.086  0.00  0.00    +0.181 HD
ATOM     12  H   UNL     1      33.025  42.665  17.614  0.00  0.00    +0.181 HD
ATOM     13  C   UNL     1      33.568  46.331  18.399  0.00  0.00    +0.175 A 
ENDROOT
BRANCH  13  14
ATOM     14  O   UNL     1      33.080  46.987  19.452  0.00  0.00    -0.293 OA
BRANCH  14  15
ATOM     15  C   UNL     1      32.796  46.300  20.650  0.00  0.00    +0.206 C 
BRANCH  15  16
ATOM     16  C   UNL     1      31.672  46.961  21.476  0.00  0.00    +0.021 C 
ATOM     17  C   UNL     1      31.801  46.409  22.930  0.00  0.00    +0.006 C 
ATOM     18  C   UNL     1      30.955  47.188  23.964  0.00  0.00    +0.000 C 
ATOM     19  C   UNL     1      31.098  48.703  23.873  0.00  0.00    +0.000 C 
ATOM     20  C   UNL     1      30.810  49.247  22.427  0.00  0.00    +0.000 C 
ATOM     21  C   UNL     1      31.667  48.487  21.365  0.00  0.00    +0.006 C 
ENDBRANCH  15  16
ENDBRANCH  14  15
ENDBRANCH  13  14
TORSDOF 3
