REMARK  Name = 8FR
REMARK  0 active torsions:
REMARK  status: ('A' for Active; 'I' for Inactive)
REMARK                            x       y       z     vdW  Elec       q    Type
REMARK                         _______ _______ _______ _____ _____    ______ ____
ROOT
ATOM      1  C   UNL     1      77.994  25.531 193.530  0.00  0.00    +0.080 A 
ATOM      2  C   UNL     1      77.109  25.788 194.559  0.00  0.00    +0.089 A 
ATOM      3  C   UNL     1      76.426  24.749 195.208  0.00  0.00    +0.019 A 
ATOM      4  C   UNL     1      76.669  23.414 194.785  0.00  0.00    +0.058 A 
ATOM      5 CL   UNL     1      75.813  22.128 195.568  0.00  0.00    -0.082 Cl
ATOM      6  C   UNL     1      77.559  23.131 193.756  0.00  0.00    +0.013 A 
ATOM      7  C   UNL     1      76.919  27.111 194.947  0.00  0.00    +0.319 C 
ATOM      8  N   UNL     1      76.003  27.307 196.006  0.00  0.00    +0.024 NA
ATOM      9  C   UNL     1      75.857  28.565 196.726  0.00  0.00    +0.357 C 
ATOM     10  N   UNL     1      74.899  28.800 197.705  0.00  0.00    -0.045 NA
ATOM     11  C   UNL     1      75.068  30.120 198.154  0.00  0.00    +0.343 C 
ATOM     12  N   UNL     1      76.129  30.690 197.466  0.00  0.00    -0.216 NA
ATOM     13  C   UNL     1      76.621  32.010 197.647  0.00  0.00    +0.094 C 
ATOM     14  C   UNL     1      76.631  29.723 196.583  0.00  0.00    +0.198 C 
ATOM     15  N   UNL     1      77.566  28.132 194.323  0.00  0.00    -0.331 NA
ATOM     16  C   UNL     1      78.436  27.872 193.351  0.00  0.00    +0.266 C 
ATOM     17  N   UNL     1      79.104  28.966 192.647  0.00  0.00    -0.270 N 
ATOM     18  C   UNL     1      80.340  29.572 193.033  0.00  0.00    +0.096 C 
ATOM     19  C   UNL     1      81.231  29.918 191.824  0.00  0.00    +0.041 C 
ATOM     20  C   UNL     1      80.496  30.317 190.545  0.00  0.00    +0.095 C 
ATOM     21  C   UNL     1      79.053  30.614 190.772  0.00  0.00    +0.041 C 
ATOM     22  N   UNL     1      81.058  31.514 189.960  0.00  0.00    -0.133 NA
ATOM     23  C   UNL     1      78.408  29.433 191.486  0.00  0.00    +0.096 C 
ATOM     24  C   UNL     1      78.229  24.202 193.120  0.00  0.00    +0.018 A 
ATOM     25  N   UNL     1      78.631  26.581 192.942  0.00  0.00    -0.170 NA
ENDROOT
TORSDOF 0
