REMARK  Name = 3e8n_ligand
REMARK  12 active torsions:
REMARK  status: ('A' for Active; 'I' for Inactive)
REMARK    1  A    between atoms: C2_2  and  N7_7
REMARK    2  A    between atoms: N7_7  and  C8_8
REMARK    3  A    between atoms: C9_9  and  N18_18
REMARK    4  A    between atoms: C10_10  and  O30_30
REMARK    5  A    between atoms: N18_18  and  S19_19
REMARK    6  A    between atoms: S19_19  and  C22_22
REMARK    7  A    between atoms: C22_22  and  C25_25
REMARK    8  A    between atoms: C25_25  and  C26_26
REMARK    9  A    between atoms: C26_26  and  C27_27
REMARK   10  A    between atoms: C26_26  and  O29_29
REMARK   11  A    between atoms: C27_27  and  O28_28
REMARK   12  A    between atoms: O30_30  and  C31_31
REMARK                            x       y       z     vdW  Elec       q    Type
REMARK                         _______ _______ _______ _____ _____    ______ ____
ROOT
ATOM     11  C   UNL     1      31.918  26.820  40.334  0.00  0.00    +0.101 A 
ATOM     12  C   UNL     1      31.998  25.366  40.452  0.00  0.00    +0.159 A 
ATOM     13  F   UNL     1      32.703  24.762  41.479  0.00  0.00    -0.206 F 
ATOM     14  C   UNL     1      31.347  24.532  39.503  0.00  0.00    +0.129 A 
ATOM     15  F   UNL     1      31.441  23.171  39.625  0.00  0.00    -0.204 F 
ATOM     16  C   UNL     1      30.593  25.110  38.411  0.00  0.00    +0.010 A 
ATOM     17  C   UNL     1      30.501  26.555  38.280  0.00  0.00    +0.093 A 
ATOM     20  C   UNL     1      31.168  27.414  39.235  0.00  0.00    +0.109 A 
ENDROOT
BRANCH  11   9
ATOM      9  N   UNL     1      32.569  27.713  41.286  0.00  0.00    -0.284 N 
ATOM     10  H   UNL     1      32.006  28.460  41.692  0.00  0.00    +0.202 HD
BRANCH   9   8
ATOM      1  C   UNL     1      34.340  28.455  42.853  0.00  0.00    +0.155 A 
ATOM      2  F   UNL     1      33.418  29.241  43.482  0.00  0.00    -0.191 F 
ATOM      3  C   UNL     1      35.701  28.417  43.312  0.00  0.00    +0.031 A 
ATOM      4  C   UNL     1      36.682  27.586  42.623  0.00  0.00    -0.006 A 
ATOM      5  I   UNL     1      38.722  27.571  43.310  0.00  0.00    -0.061 I 
ATOM      6  C   UNL     1      36.314  26.747  41.472  0.00  0.00    -0.008 A 
ATOM      7  C   UNL     1      35.017  26.780  41.033  0.00  0.00    +0.012 A 
ATOM      8  C   UNL     1      33.964  27.619  41.701  0.00  0.00    +0.091 A 
ENDBRANCH   9   8
ENDBRANCH  11   9
BRANCH  17  18
ATOM     18  O   UNL     1      29.757  27.153  37.203  0.00  0.00    -0.336 OA
ATOM     19  C   UNL     1      28.515  26.459  36.972  0.00  0.00    +0.225 C 
ENDBRANCH  17  18
BRANCH  20  21
ATOM     21  N   UNL     1      31.076  28.842  39.055  0.00  0.00    -0.201 N 
ATOM     22  H   UNL     1      31.606  29.256  38.288  0.00  0.00    +0.206 HD
BRANCH  21  23
ATOM     23  S   UNL     1      30.193  29.839  39.981  0.00  0.00    +0.061 S 
ATOM     34  O   UNL     1      30.453  29.545  41.498  0.00  0.00    -0.150 OA
ATOM     35  O   UNL     1      30.630  31.332  39.660  0.00  0.00    -0.150 OA
BRANCH  23  24
ATOM     24  C   UNL     1      28.424  29.611  39.608  0.00  0.00    +0.113 C 
ATOM     32  C   UNL     1      27.476  29.854  40.758  0.00  0.00    +0.034 C 
ATOM     33  C   UNL     1      27.754  28.442  40.308  0.00  0.00    +0.034 C 
BRANCH  24  25
ATOM     25  C   UNL     1      27.919  29.954  38.160  0.00  0.00    +0.065 C 
BRANCH  25  26
ATOM     26  C   UNL     1      28.158  31.464  37.800  0.00  0.00    +0.142 C 
BRANCH  26  27
ATOM     27  O   UNL     1      27.444  32.313  38.724  0.00  0.00    -0.390 OA
ATOM     28  H   UNL     1      27.745  32.136  39.618  0.00  0.00    +0.210 HD
ENDBRANCH  26  27
BRANCH  26  29
ATOM     29  C   UNL     1      27.662  31.760  36.358  0.00  0.00    +0.187 C 
BRANCH  29  30
ATOM     30  O   UNL     1      28.581  32.657  35.693  0.00  0.00    -0.393 OA
ATOM     31  H   UNL     1      28.266  32.834  34.803  0.00  0.00    +0.209 HD
ENDBRANCH  29  30
ENDBRANCH  26  29
ENDBRANCH  25  26
ENDBRANCH  24  25
ENDBRANCH  23  24
ENDBRANCH  21  23
ENDBRANCH  20  21
TORSDOF 11
