REMARK  Name = 5CX9
REMARK  10 active torsions:
REMARK  status: ('A' for Active; 'I' for Inactive)
REMARK    1  A    between atoms: C_1  and  C_23
REMARK    2  A    between atoms: C_1  and  O_25
REMARK    3  A    between atoms: C_3  and  C_23
REMARK    4  A    between atoms: C_4  and  C_5
REMARK    5  A    between atoms: C_4  and  C_21
REMARK    6  A    between atoms: C_5  and  N_20
REMARK    7  A    between atoms: C_6  and  C_7
REMARK    8  A    between atoms: C_6  and  N_20
REMARK    9  A    between atoms: C_10  and  C_12
REMARK   10  A    between atoms: C_21  and  N_22
REMARK                            x       y       z     vdW  Elec       q    Type
REMARK                         _______ _______ _______ _____ _____    ______ ____
ROOT
ATOM     12  C   UNL     1       4.174 137.167 354.207  0.00  0.00    +0.115 C 
ENDROOT
BRANCH  12  13
ATOM     13  C   UNL     1       4.247 138.614 353.790  0.00  0.00    -0.004 A 
ATOM     14  C   UNL     1       5.392 139.362 354.023  0.00  0.00    +0.009 A 
ATOM     15  C   UNL     1       5.446 140.690 353.655  0.00  0.00    +0.057 A 
ATOM     16 CL   UNL     1       6.905 141.568 353.976  0.00  0.00    -0.082 Cl
ATOM     17  C   UNL     1       4.369 141.324 353.042  0.00  0.00    +0.011 A 
ATOM     24  C   UNL     1       3.224 140.565 352.811  0.00  0.00    +0.001 A 
ATOM     25  C   UNL     1       3.170 139.234 353.178  0.00  0.00    -0.003 A 
BRANCH  17  18
ATOM     18  C   UNL     1       4.389 142.753 352.625  0.00  0.00    +0.001 A 
ATOM     19  C   UNL     1       3.437 143.652 353.100  0.00  0.00    +0.000 A 
ATOM     20  C   UNL     1       3.460 144.978 352.705  0.00  0.00    +0.000 A 
ATOM     21  C   UNL     1       4.425 145.431 351.832  0.00  0.00    +0.000 A 
ATOM     22  C   UNL     1       5.373 144.554 351.353  0.00  0.00    +0.000 A 
ATOM     23  C   UNL     1       5.359 143.229 351.745  0.00  0.00    +0.000 A 
ENDBRANCH  17  18
ENDBRANCH  12  13
BRANCH  12  11
ATOM     11  N   UNL     1       5.493 136.559 354.370  0.00  0.00    -0.213 NA
BRANCH  11  10
ATOM     10  C   UNL     1       5.473 135.418 355.281  0.00  0.00    +0.091 C 
BRANCH  10   9
ATOM      9  C   UNL     1       6.731 134.593 355.189  0.00  0.00    +0.042 C 
BRANCH   9   8
ATOM      8  C   UNL     1       6.648 133.283 355.931  0.00  0.00    +0.117 C 
BRANCH   8   7
ATOM      6  C   UNL     1       7.858 132.117 357.708  0.00  0.00    +0.253 C 
ATOM      7  N   UNL     1       7.814 133.062 356.774  0.00  0.00    -0.205 NA
ATOM     26  O   UNL     1       6.860 131.502 358.076  0.00  0.00    -0.273 OA
BRANCH   6   5
ATOM      5  C   UNL     1       9.222 131.838 358.301  0.00  0.00    +0.196 C 
BRANCH   5   1
ATOM      1  C   UNL     1       9.129 130.734 359.321  0.00  0.00    +0.327 C 
ATOM      4  O   UNL     1       8.782 130.877 360.460  0.00  0.00    -0.250 OA
BRANCH   1   2
ATOM      2  O   UNL     1       9.483 129.566 358.800  0.00  0.00    -0.444 OA
ATOM      3  C   UNL     1      10.843 129.467 358.317  0.00  0.00    +0.256 C 
ENDBRANCH   1   2
ENDBRANCH   5   1
ENDBRANCH   6   5
ENDBRANCH   8   7
ENDBRANCH   9   8
ENDBRANCH  10   9
ENDBRANCH  11  10
ENDBRANCH  12  11
TORSDOF 10
