REMARK  Name = 8BV
REMARK  3 active torsions:
REMARK  status: ('A' for Active; 'I' for Inactive)
REMARK    1  A    between atoms: C7_4  and  C10_6
REMARK    2  A    between atoms: C8_5  and  O13_13
REMARK    3  A    between atoms: C9_10  and  O13_13
REMARK                            x       y       z     vdW  Elec       q    Type
REMARK                         _______ _______ _______ _____ _____    ______ ____
ROOT
ATOM      1  C   UNL     1      29.294  10.616  -7.886  0.00  0.00    +0.003 A 
ATOM      2  C   UNL     1      29.063   9.544  -7.053  0.00  0.00    +0.000 A 
ATOM      3  C   UNL     1      29.594   8.314  -7.373  0.00  0.00    +0.008 A 
ATOM      4  C   UNL     1      30.358   8.144  -8.515  0.00  0.00    +0.090 A 
ATOM      8  C   UNL     1      30.606   9.232  -9.347  0.00  0.00    +0.143 A 
ATOM     13  C   UNL     1      30.062  10.465  -9.021  0.00  0.00    +0.037 A 
ENDROOT
BRANCH   4   5
ATOM      5  C   UNL     1      30.851   6.761  -8.736  0.00  0.00    +0.287 C 
ATOM      6  O   UNL     1      30.345   5.848  -8.097  0.00  0.00    -0.267 OA
ATOM      7  N   UNL     1      31.851   6.570  -9.662  0.00  0.00    -0.084 NA
ENDBRANCH   4   5
BRANCH   8   9
ATOM      9  O   UNL     1      31.381   9.069 -10.491  0.00  0.00    -0.479 OA
BRANCH   9  10
ATOM     10  C   UNL     1      31.781  10.307 -11.102  0.00  0.00    +0.166 C 
ATOM     11  C   UNL     1      33.192  10.105 -11.607  0.00  0.00    +0.047 C 
ATOM     12  C   UNL     1      30.876  10.640 -12.276  0.00  0.00    +0.047 C 
ENDBRANCH   9  10
ENDBRANCH   8   9
TORSDOF 3
