REMARK  Name = 3apc_ligand
REMARK  3 active torsions:
REMARK  status: ('A' for Active; 'I' for Inactive)
REMARK    1  A    between atoms: N11_11  and  S12_12
REMARK    2  A    between atoms: S12_12  and  C13_13
REMARK    3  A    between atoms: C19_19  and  C20_20
REMARK                            x       y       z     vdW  Elec       q    Type
REMARK                         _______ _______ _______ _____ _____    ______ ____
ROOT
ATOM      1  C   UNL     1     118.745  14.241  29.969  0.00  0.00    +0.165 C 
ATOM      2  N   UNL     1     117.313  13.924  30.137  0.00  0.00    -0.279 N 
ATOM      3  C   UNL     1     116.508  14.741  30.922  0.00  0.00    +0.166 A 
ATOM      4  N   UNL     1     116.997  15.894  31.400  0.00  0.00    -0.254 NA
ATOM      5  C   UNL     1     116.233  16.691  32.163  0.00  0.00    +0.164 A 
ATOM      6  C   UNL     1     114.921  16.313  32.439  0.00  0.00    +0.012 A 
ATOM      7  C   UNL     1     114.422  15.107  31.945  0.00  0.00    +0.044 A 
ATOM     17  C   UNL     1     114.262  17.373  33.304  0.00  0.00    -0.039 A 
ATOM     18  C   UNL     1     115.372  18.403  33.498  0.00  0.00    +0.155 A 
ATOM     19  N   UNL     1     116.497  17.873  32.718  0.00  0.00    -0.112 N 
ATOM     24  N   UNL     1     115.250  14.360  31.188  0.00  0.00    -0.272 NA
ATOM     25  C   UNL     1     116.713  12.751  29.471  0.00  0.00    +0.165 C 
ATOM     26  C   UNL     1     117.428  12.414  28.163  0.00  0.00    +0.184 C 
ATOM     27  O   UNL     1     118.862  12.486  28.340  0.00  0.00    -0.376 OA
ATOM     28  C   UNL     1     119.222  13.860  28.566  0.00  0.00    +0.184 C 
ENDROOT
BRANCH   7   8
ATOM      8  C   UNL     1     113.120  14.626  32.180  0.00  0.00    +0.038 A 
ATOM      9  C   UNL     1     112.302  15.117  33.193  0.00  0.00    +0.122 A 
ATOM     10  N   UNL     1     111.085  14.608  33.355  0.00  0.00    -0.248 NA
ATOM     11  C   UNL     1     110.618  13.619  32.569  0.00  0.00    +0.195 A 
ATOM     12  N   UNL     1     109.391  13.139  32.763  0.00  0.00    -0.300 N 
ATOM     13  H   UNL     1     108.807  13.519  33.508  0.00  0.00    +0.184 HD
ATOM     14  H   UNL     1     109.036  12.392  32.167  0.00  0.00    +0.184 HD
ATOM     15  N   UNL     1     111.388  13.118  31.587  0.00  0.00    -0.248 NA
ATOM     16  C   UNL     1     112.606  13.597  31.385  0.00  0.00    +0.122 A 
ENDBRANCH   7   8
BRANCH  19  20
ATOM     20  S   UNL     1     117.848  18.740  32.385  0.00  0.00    +0.088 S 
ATOM     21  O   UNL     1     117.963  19.867  33.358  0.00  0.00    -0.141 OA
ATOM     22  O   UNL     1     119.092  17.913  32.447  0.00  0.00    -0.141 OA
ATOM     23  C   UNL     1     117.640  19.378  30.743  0.00  0.00    +0.237 C 
ENDBRANCH  19  20
TORSDOF 2
