REMARK  Name = PKZ
REMARK  30 active torsions:
REMARK  status: ('A' for Active; 'I' for Inactive)
REMARK    1  A    between atoms: C3_1  and  C2_57
REMARK    2  A    between atoms: C3_1  and  C4_58
REMARK    3  A    between atoms: C1_2  and  S1P_55
REMARK    4  A    between atoms: C1_2  and  C2_57
REMARK    5  A    between atoms: C10_3  and  C11_7
REMARK    6  A    between atoms: C10_3  and  C9_60
REMARK    7  A    between atoms: C8_4  and  C7_5
REMARK    8  A    between atoms: C8_4  and  C9_60
REMARK    9  A    between atoms: C7_5  and  C6_59
REMARK   10  A    between atoms: C5_6  and  C4_58
REMARK   11  A    between atoms: C5_6  and  C6_59
REMARK   12  A    between atoms: N9A_17  and  C1B_18
REMARK   13  A    between atoms: C3B_21  and  O3B_22
REMARK   14  A    between atoms: O3B_22  and  P3B_23
REMARK   15  A    between atoms: C4B_27  and  C5B_29
REMARK   16  A    between atoms: C5B_29  and  O5B_30
REMARK   17  A    between atoms: O5B_30  and  P1A_31
REMARK   18  A    between atoms: P1A_31  and  O3A_34
REMARK   19  A    between atoms: O3A_34  and  P2A_35
REMARK   20  A    between atoms: P2A_35  and  O6A_38
REMARK   21  A    between atoms: O6A_38  and  CCP_40
REMARK   22  A    between atoms: CBP_39  and  CCP_40
REMARK   23  A    between atoms: CBP_39  and  CAP_43
REMARK   24  A    between atoms: CAP_43  and  C9P_45
REMARK   25  A    between atoms: N8P_47  and  C7P_48
REMARK   26  A    between atoms: C7P_48  and  C6P_49
REMARK   27  A    between atoms: C6P_49  and  C5P_50
REMARK   28  A    between atoms: N4P_52  and  C3P_53
REMARK   29  A    between atoms: C3P_53  and  C2P_54
REMARK   30  A    between atoms: C2P_54  and  S1P_55
REMARK                            x       y       z     vdW  Elec       q    Type
REMARK                         _______ _______ _______ _____ _____    ______ ____
ROOT
ATOM     18  O   UNL     1      14.611  83.675 113.760  0.00  0.00    -0.314 OA
ENDROOT
BRANCH  18  19
ATOM     19  P   UNL     1      14.830  84.781 114.887  0.00  0.00    +0.219 P 
ATOM     20  O   UNL     1      15.413  84.070 116.087  0.00  0.00    -0.437 OA
ATOM     21  O   UNL     1      13.513  85.486 114.995  0.00  0.00    -0.517 OA
BRANCH  19  22
ATOM     22  O   UNL     1      15.903  85.749 114.166  0.00  0.00    -0.270 OA
BRANCH  22  23
ATOM     23  P   UNL     1      15.965  87.350 114.381  0.00  0.00    +0.219 P 
ATOM     24  O   UNL     1      15.380  87.656 115.728  0.00  0.00    -0.437 OA
ATOM     48  O   UNL     1      15.478  88.093 113.173  0.00  0.00    -0.517 OA
BRANCH  23  25
ATOM     25  O   UNL     1      17.540  87.596 114.461  0.00  0.00    -0.311 OA
BRANCH  25  26
ATOM     26  C   UNL     1      18.419  87.053 113.485  0.00  0.00    +0.181 C 
BRANCH  26  27
ATOM     27  C   UNL     1      19.734  87.792 113.610  0.00  0.00    +0.177 C 
ATOM     28  C   UNL     1      19.545  89.049 114.450  0.00  0.00    +0.190 C 
ATOM     34  C   UNL     1      19.148  90.057 113.410  0.00  0.00    +0.231 C 
ATOM     35  O   UNL     1      19.590  91.341 113.838  0.00  0.00    -0.216 OA
ATOM     36  C   UNL     1      19.889  89.576 112.176  0.00  0.00    +0.241 C 
ATOM     47  O   UNL     1      20.056  88.173 112.284  0.00  0.00    -0.331 OA
BRANCH  36  37
ATOM     37  N   UNL     1      19.115  89.878 110.974  0.00  0.00    -0.269 N 
ATOM     38  C   UNL     1      17.949  89.309 110.656  0.00  0.00    +0.182 A 
ATOM     39  N   UNL     1      17.509  89.804 109.475  0.00  0.00    -0.219 NA
ATOM     40  C   UNL     1      18.418  90.695 109.031  0.00  0.00    +0.152 A 
ATOM     41  C   UNL     1      18.596  91.584 107.860  0.00  0.00    +0.192 A 
ATOM     42  N   UNL     1      19.702  92.356 107.785  0.00  0.00    -0.204 NA
ATOM     43  C   UNL     1      20.636  92.337 108.740  0.00  0.00    +0.202 A 
ATOM     44  N   UNL     1      20.534  91.550 109.817  0.00  0.00    -0.205 NA
ATOM     45  N   UNL     1      17.672  91.631 106.876  0.00  0.00    -0.105 NA
ATOM     46  C   UNL     1      19.479  90.735 110.026  0.00  0.00    +0.169 A 
ENDBRANCH  36  37
BRANCH  28  29
ATOM     29  O   UNL     1      20.771  89.466 115.069  0.00  0.00    -0.267 OA
BRANCH  29  30
ATOM     30  P   UNL     1      20.920  90.301 116.452  0.00  0.00    +0.533 P 
ATOM     31  O   UNL     1      20.413  89.328 117.481  0.00  0.00    -0.115 OA
ATOM     32  O   UNL     1      22.393  90.606 116.630  0.00  0.00    -0.115 OA
ATOM     33  O   UNL     1      20.048  91.509 116.204  0.00  0.00    -0.222 OA
ENDBRANCH  29  30
ENDBRANCH  28  29
ENDBRANCH  26  27
ENDBRANCH  25  26
ENDBRANCH  23  25
ENDBRANCH  22  23
ENDBRANCH  19  22
ENDBRANCH  18  19
BRANCH  18  17
ATOM     17  C   UNL     1      13.591  83.974 112.830  0.00  0.00    +0.152 C 
BRANCH  17  16
ATOM     16  C   UNL     1      12.627  82.820 112.818  0.00  0.00    +0.065 C 
ATOM     49  C   UNL     1      13.406  81.544 112.551  0.00  0.00    +0.006 C 
ATOM     50  C   UNL     1      11.624  83.080 111.712  0.00  0.00    +0.006 C 
BRANCH  16  14
ATOM     14  C   UNL     1      11.932  82.825 114.166  0.00  0.00    +0.231 C 
ATOM     15  O   UNL     1      11.768  84.184 114.553  0.00  0.00    -0.213 OA
BRANCH  14  13
ATOM     12  N   UNL     1       9.507  82.805 114.352  0.00  0.00    -0.203 NA
ATOM     13  C   UNL     1      10.613  82.109 114.139  0.00  0.00    +0.272 C 
ATOM     51  O   UNL     1      10.568  80.905 113.958  0.00  0.00    -0.271 OA
BRANCH  12  11
ATOM     11  C   UNL     1       8.245  82.111 114.276  0.00  0.00    +0.125 C 
BRANCH  11  10
ATOM     10  C   UNL     1       7.894  81.826 112.833  0.00  0.00    +0.110 C 
BRANCH  10   8
ATOM      7  N   UNL     1       5.601  81.746 112.214  0.00  0.00    -0.204 NA
ATOM      8  C   UNL     1       6.576  81.125 112.862  0.00  0.00    +0.243 C 
ATOM      9  O   UNL     1       6.460  80.071 113.458  0.00  0.00    -0.273 OA
BRANCH   7   6
ATOM      6  C   UNL     1       4.205  81.398 112.352  0.00  0.00    +0.127 C 
BRANCH   6   5
ATOM      5  C   UNL     1       3.337  82.425 111.661  0.00  0.00    +0.088 C 
BRANCH   5   4
ATOM      4  S   UNL     1       1.676  81.899 111.653  0.00  0.00    -0.075 S 
BRANCH   4   3
ATOM      3  C   UNL     1       1.351  82.316 110.081  0.00  0.00    +0.199 C 
ATOM     52  O   UNL     1       2.226  82.824 109.409  0.00  0.00    -0.284 OA
BRANCH   3   2
ATOM      2  C   UNL     1      -0.012  82.058 109.498  0.00  0.00    +0.076 C 
BRANCH   2   1
ATOM      1  C   UNL     1      -0.125  82.587 108.069  0.00  0.00    +0.009 C 
BRANCH   1  53
ATOM     53  C   UNL     1      -1.517  82.239 107.559  0.00  0.00    +0.001 C 
BRANCH  53  54
ATOM     54  C   UNL     1      -1.904  82.974 106.286  0.00  0.00    +0.000 C 
BRANCH  54  55
ATOM     55  C   UNL     1      -2.787  82.056 105.457  0.00  0.00    +0.000 C 
BRANCH  55  56
ATOM     56  C   UNL     1      -1.967  80.816 105.156  0.00  0.00    +0.000 C 
BRANCH  56  57
ATOM     57  C   UNL     1      -2.363  80.196 103.834  0.00  0.00    +0.000 C 
BRANCH  57  58
ATOM     58  C   UNL     1      -3.422  79.143 104.069  0.00  0.00    +0.000 C 
BRANCH  58  59
ATOM     59  C   UNL     1      -3.687  78.395 102.779  0.00  0.00    +0.000 C 
BRANCH  59  60
ATOM     60  C   UNL     1      -5.184  78.309 102.520  0.00  0.00    +0.000 C 
ATOM     61  C   UNL     1      -5.435  77.482 101.282  0.00  0.00    +0.000 C 
ENDBRANCH  59  60
ENDBRANCH  58  59
ENDBRANCH  57  58
ENDBRANCH  56  57
ENDBRANCH  55  56
ENDBRANCH  54  55
ENDBRANCH  53  54
ENDBRANCH   1  53
ENDBRANCH   2   1
ENDBRANCH   3   2
ENDBRANCH   4   3
ENDBRANCH   5   4
ENDBRANCH   6   5
ENDBRANCH   7   6
ENDBRANCH  10   8
ENDBRANCH  11  10
ENDBRANCH  12  11
ENDBRANCH  14  13
ENDBRANCH  16  14
ENDBRANCH  17  16
ENDBRANCH  18  17
TORSDOF 30
