REMARK  Name = 1pxp_ligand
REMARK  7 active torsions:
REMARK  status: ('A' for Active; 'I' for Inactive)
REMARK    1  A    between atoms: C4_5  and  C5A_7
REMARK    2  A    between atoms: C1A_8  and  C6A_12
REMARK    3  A    between atoms: C3A_10  and  C7A_13
REMARK    4  A    between atoms: N7_14  and  C1B_15
REMARK    5  A    between atoms: C4B_18  and  N7B_21
REMARK    6  A    between atoms: N7B_21  and  C8B_22
REMARK    7  A    between atoms: N7B_21  and  C9B_23
REMARK                            x       y       z     vdW  Elec       q    Type
REMARK                         _______ _______ _______ _____ _____    ______ ____
ROOT
ATOM      1  C   UNL     1      25.840  38.933   7.693  0.00  0.00    +0.087 A 
ATOM      2  C   UNL     1      26.726  39.530   8.638  0.00  0.00    +0.031 A 
ATOM      3  C   UNL     1      26.458  40.912   8.987  0.00  0.00    +0.042 A 
ATOM     11  N   UNL     1      25.407  41.531   8.414  0.00  0.00    -0.266 NA
ATOM     12  C   UNL     1      24.634  40.889   7.540  0.00  0.00    +0.193 A 
ATOM     13  N   UNL     1      23.522  41.571   6.943  0.00  0.00    -0.251 N 
ATOM     14  H   UNL     1      23.015  40.972   6.276  0.00  0.00    +0.214 HD
ATOM     24  N   UNL     1      24.807  39.625   7.158  0.00  0.00    -0.266 NA
ENDROOT
BRANCH   3   4
ATOM      4  C   UNL     1      27.230  41.703   9.921  0.00  0.00    +0.067 A 
ATOM      5  S   UNL     1      26.520  43.212  10.451  0.00  0.00    -0.001 S 
ATOM      6  C   UNL     1      27.880  43.516  11.423  0.00  0.00    +0.097 A 
ATOM      7  C   UNL     1      27.950  44.781  12.254  0.00  0.00    +0.164 C 
ATOM      8  N   UNL     1      28.838  42.588  11.393  0.00  0.00    -0.296 NA
ATOM      9  C   UNL     1      28.488  41.558  10.551  0.00  0.00    +0.015 A 
ATOM     10  C   UNL     1      29.486  40.414  10.409  0.00  0.00    +0.102 C 
ENDBRANCH   3   4
BRANCH  13  15
ATOM     15  C   UNL     1      22.931  42.898   7.044  0.00  0.00    +0.053 A 
ATOM     16  C   UNL     1      21.807  43.183   6.225  0.00  0.00    +0.002 A 
ATOM     17  C   UNL     1      21.190  44.454   6.271  0.00  0.00    -0.004 A 
ATOM     18  C   UNL     1      21.676  45.489   7.147  0.00  0.00    +0.029 A 
ATOM     22  C   UNL     1      22.812  45.181   7.976  0.00  0.00    -0.004 A 
ATOM     23  C   UNL     1      23.427  43.911   7.925  0.00  0.00    +0.002 A 
BRANCH  18  19
ATOM     19  N   UNL     1      21.026  46.845   7.198  0.00  0.00    -0.321 N 
ATOM     20  C   UNL     1      21.513  47.936   8.096  0.00  0.00    +0.155 C 
ATOM     21  C   UNL     1      19.847  47.208   6.356  0.00  0.00    +0.155 C 
ENDBRANCH  18  19
ENDBRANCH  13  15
TORSDOF 3
