REMARK  Name = 1P4F
REMARK  0 active torsions:
REMARK  status: ('A' for Active; 'I' for Inactive)
REMARK                            x       y       z     vdW  Elec       q    Type
REMARK                         _______ _______ _______ _____ _____    ______ ____
ROOT
ATOM      1  C   UNL     1      25.512  30.207  12.314  0.00  0.00    +0.055 A 
ATOM      2  C   UNL     1      26.485  30.453  11.344  0.00  0.00    +0.139 A 
ATOM      3  N   UNL     1      27.510  31.302  11.600  0.00  0.00    -0.342 N 
ATOM      4  H   UNL     1      28.252  31.486  10.852  0.00  0.00    +0.144 HD
ATOM      5  H   UNL     1      27.577  31.789  12.551  0.00  0.00    +0.144 HD
ATOM      6  N   UNL     1      26.411  29.841  10.150  0.00  0.00    -0.134 NA
ATOM      7  N   UNL     1      25.361  28.959   9.871  0.00  0.00    -0.147 NA
ATOM      8  C   UNL     1      24.395  28.713  10.785  0.00  0.00    +0.101 A 
ATOM      9  C   UNL     1      23.278  27.776  10.462  0.00  0.00    +0.010 A 
ATOM     10  C   UNL     1      23.216  27.160   9.212  0.00  0.00    +0.010 A 
ATOM     11  C   UNL     1      22.173  26.292   8.904  0.00  0.00    +0.001 A 
ATOM     12  C   UNL     1      21.182  26.028   9.856  0.00  0.00    +0.001 A 
ATOM     13  C   UNL     1      21.242  26.642  11.105  0.00  0.00    +0.008 A 
ATOM     14  C   UNL     1      22.286  27.512  11.406  0.00  0.00    -0.016 A 
ATOM     15  C   UNL     1      22.294  28.142  12.776  0.00  0.00    +0.009 A 
ATOM     16  C   UNL     1      23.436  29.099  13.113  0.00  0.00    +0.011 A 
ATOM     17  C   UNL     1      24.463  29.332  12.031  0.00  0.00    +0.006 A 
ENDROOT
TORSDOF 0
