REMARK  Name = 2ayp_ligand
REMARK  5 active torsions:
REMARK  status: ('A' for Active; 'I' for Inactive)
REMARK    1  A    between atoms: C1_1  and  O7_7
REMARK    2  A    between atoms: C2_2  and  O8_8
REMARK    3  A    between atoms: C4_4  and  C10_10
REMARK    4  A    between atoms: O8_8  and  C9_9
REMARK    5  A    between atoms: C20_20  and  C21_21
REMARK                            x       y       z     vdW  Elec       q    Type
REMARK                         _______ _______ _______ _____ _____    ______ ____
ROOT
ATOM      7  C   UNL     1       7.780  -3.512  16.909  0.00  0.00    -0.044 A 
ATOM      8  C   UNL     1       6.804  -4.568  16.600  0.00  0.00    -0.026 A 
ATOM      9  C   UNL     1       5.464  -4.582  17.195  0.00  0.00    -0.017 A 
ATOM     10  C   UNL     1       5.102  -3.515  18.121  0.00  0.00    -0.001 A 
ATOM     11  C   UNL     1       3.821  -3.285  18.858  0.00  0.00    +0.043 C 
ATOM     12  C   UNL     1       2.712  -4.088  18.782  0.00  0.00    +0.048 C 
ATOM     19  C   UNL     1       4.191  -1.984  19.620  0.00  0.00    +0.218 C 
ATOM     20  O   UNL     1       3.473  -1.346  20.394  0.00  0.00    -0.381 OA
ATOM     21  N   UNL     1       5.465  -1.609  19.316  0.00  0.00    -0.238 N 
ATOM     22  H   UNL     1       5.921  -0.801  19.690  0.00  0.00    +0.225 HD
ATOM     23  C   UNL     1       6.034  -2.476  18.439  0.00  0.00    +0.068 A 
ATOM     24  C   UNL     1       7.370  -2.448  17.856  0.00  0.00    +0.009 A 
ENDROOT
BRANCH   7   6
ATOM      1  C   UNL     1      11.880  -3.481  15.087  0.00  0.00    +0.118 A 
ATOM      4  C   UNL     1      11.293  -4.711  15.596  0.00  0.00    +0.012 A 
ATOM      5  C   UNL     1       9.965  -4.712  16.183  0.00  0.00    -0.023 A 
ATOM      6  C   UNL     1       9.168  -3.493  16.288  0.00  0.00    -0.042 A 
ATOM     25  C   UNL     1       9.749  -2.252  15.776  0.00  0.00    +0.017 A 
ATOM     26  C   UNL     1      11.114  -2.209  15.165  0.00  0.00    +0.121 A 
BRANCH   1   2
ATOM      2  O   UNL     1      13.158  -3.513  14.532  0.00  0.00    -0.336 OA
ATOM      3  H   UNL     1      13.401  -2.640  14.247  0.00  0.00    +0.245 HD
ENDBRANCH   1   2
BRANCH  26  27
ATOM     27  O   UNL     1      11.788  -1.042  14.630  0.00  0.00    -0.325 OA
ATOM     28  C   UNL     1      11.710   0.222  15.286  0.00  0.00    +0.229 C 
ENDBRANCH  26  27
ENDBRANCH   7   6
BRANCH  12  13
ATOM     13  C   UNL     1       1.337  -3.740  19.233  0.00  0.00    +0.062 A 
ATOM     14  C   UNL     1       0.259  -4.528  19.089  0.00  0.00    -0.022 A 
ATOM     15  C   UNL     1      -0.887  -3.841  19.656  0.00  0.00    -0.033 A 
ATOM     16  C   UNL     1      -0.407  -2.686  20.099  0.00  0.00    +0.120 A 
ATOM     17  N   UNL     1       1.023  -2.719  19.780  0.00  0.00    -0.280 N 
ATOM     18  H   UNL     1       1.680  -1.957  19.999  0.00  0.00    +0.234 HD
ENDBRANCH  12  13
TORSDOF 4
