REMARK  Name = 5EOL
REMARK  2 active torsions:
REMARK  status: ('A' for Active; 'I' for Inactive)
REMARK    1  A    between atoms: C_14  and  C_15
REMARK    2  A    between atoms: C_26  and  C_27
REMARK                            x       y       z     vdW  Elec       q    Type
REMARK                         _______ _______ _______ _____ _____    ______ ____
ROOT
ATOM      1  C   UNL     1     -15.757 -34.270   2.060  0.00  0.00    +0.114 C 
ATOM      2  C   UNL     1     -17.264 -34.474   2.277  0.00  0.00    +0.059 C 
ATOM      3  C   UNL     1     -17.534 -35.205   3.606  0.00  0.00    +0.038 C 
ATOM      4  C   UNL     1     -18.830 -34.925   4.048  0.00  0.00    -0.029 C 
ATOM      5  C   UNL     1     -19.737 -35.898   4.470  0.00  0.00    -0.009 C 
ATOM      6  C   UNL     1     -19.411 -37.396   4.559  0.00  0.00    +0.091 C 
ATOM      7  N   UNL     1     -20.572 -38.198   4.127  0.00  0.00    -0.322 N 
ATOM      8  H   UNL     1     -21.259 -38.527   4.879  0.00  0.00    +0.148 HD
ATOM      9  C   UNL     1     -20.824 -38.542   2.857  0.00  0.00    +0.141 A 
ATOM     10  C   UNL     1     -21.749 -39.556   2.570  0.00  0.00    +0.079 A 
ATOM     11  C   UNL     1     -22.487 -40.291   3.691  0.00  0.00    +0.069 C 
ATOM     12  N   UNL     1     -22.000 -39.896   1.293  0.00  0.00    -0.247 NA
ATOM     13  C   UNL     1     -21.374 -39.271   0.280  0.00  0.00    +0.090 A 
ATOM     14  C   UNL     1     -21.638 -39.631  -1.041  0.00  0.00    +0.030 A 
ATOM     15  C   UNL     1     -20.978 -38.980  -2.081  0.00  0.00    +0.003 A 
ATOM     16  C   UNL     1     -20.060 -37.968  -1.810  0.00  0.00    +0.012 A 
ATOM     17  C   UNL     1     -19.802 -37.593  -0.490  0.00  0.00    +0.028 A 
ATOM     18  C   UNL     1     -18.867 -36.597  -0.209  0.00  0.00    +0.074 A 
ATOM     19  N   UNL     1     -18.741 -36.177   1.057  0.00  0.00    -0.250 NA
ATOM     20  C   UNL     1     -17.983 -35.943  -0.981  0.00  0.00    +0.043 A 
ATOM     21  C   UNL     1     -17.299 -35.097  -0.214  0.00  0.00    +0.060 A 
ATOM     22  C   UNL     1     -16.265 -34.186  -0.430  0.00  0.00    +0.246 C 
ATOM     23  O   UNL     1     -16.007 -33.778  -1.561  0.00  0.00    -0.270 OA
ATOM     24  C   UNL     1     -20.451 -38.258   0.557  0.00  0.00    +0.100 A 
ATOM     25  N   UNL     1     -20.202 -37.921   1.839  0.00  0.00    -0.228 NA
ATOM     26  C   UNL     1     -19.120 -37.730   6.022  0.00  0.00    +0.032 C 
ATOM     27  C   UNL     1     -17.788 -35.259   1.069  0.00  0.00    +0.059 A 
ATOM     28  N   UNL     1     -15.480 -33.775   0.675  0.00  0.00    -0.311 N 
ATOM     29  H   UNL     1     -14.670 -33.094   0.516  0.00  0.00    +0.149 HD
ENDROOT
TORSDOF 0
