REMARK  Name = 3AC5
REMARK  10 active torsions:
REMARK  status: ('A' for Active; 'I' for Inactive)
REMARK    1  A    between atoms: O_2  and  C_18
REMARK    2  A    between atoms: O_2  and  C_20
REMARK    3  A    between atoms: O_3  and  C_22
REMARK    4  A    between atoms: O_3  and  C_26
REMARK    5  A    between atoms: N_5  and  C_19
REMARK    6  A    between atoms: N_8  and  C_12
REMARK    7  A    between atoms: C_13  and  C_16
REMARK    8  A    between atoms: C_23  and  N_28
REMARK    9  A    between atoms: C_31  and  C_32
REMARK   10  A    between atoms: C_36  and  O_38
REMARK                            x       y       z     vdW  Elec       q    Type
REMARK                         _______ _______ _______ _____ _____    ______ ____
ROOT
ATOM      3  C   UNL     1      25.114  37.134   8.970  0.00  0.00    +0.125 A 
ATOM      4  C   UNL     1      26.512  36.684   8.811  0.00  0.00    +0.172 A 
ATOM     16  N   UNL     1      26.765  35.633   7.994  0.00  0.00    -0.194 NA
ATOM     17  C   UNL     1      25.757  35.009   7.321  0.00  0.00    +0.221 A 
ATOM     18  N   UNL     1      24.482  35.413   7.442  0.00  0.00    -0.181 N 
ATOM     19  N   UNL     1      23.425  34.808   6.782  0.00  0.00    -0.142 NA
ATOM     20  C   UNL     1      22.340  35.513   7.203  0.00  0.00    +0.183 A 
ATOM     29  N   UNL     1      22.746  36.492   8.062  0.00  0.00    -0.206 NA
ATOM     30  N   UNL     1      26.004  33.963   6.494  0.00  0.00    -0.309 N 
ATOM     31  H   UNL     1      25.228  33.652   5.826  0.00  0.00    +0.149 HD
ATOM     41  C   UNL     1      24.092  36.409   8.204  0.00  0.00    +0.176 A 
ENDROOT
BRANCH   4   5
ATOM      5  N   UNL     1      27.503  37.353   9.540  0.00  0.00    -0.231 NA
ATOM      6  C   UNL     1      28.798  36.981   9.585  0.00  0.00    +0.054 C 
ATOM      7  C   UNL     1      29.660  37.740  10.357  0.00  0.00    +0.069 C 
ATOM      8  C   UNL     1      31.003  37.414  10.428  0.00  0.00    +0.125 C 
ATOM      9  C   UNL     1      31.488  36.323   9.716  0.00  0.00    +0.087 C 
ATOM     10  C   UNL     1      30.624  35.557   8.934  0.00  0.00    +0.107 C 
ATOM     15  C   UNL     1      29.273  35.888   8.870  0.00  0.00    +0.129 C 
BRANCH  10  11
ATOM     11  O   UNL     1      31.094  34.474   8.236  0.00  0.00    -0.499 OA
ATOM     12  C   UNL     1      31.920  34.667   7.091  0.00  0.00    +0.276 C 
ENDBRANCH  10  11
BRANCH   8  13
ATOM     13  O   UNL     1      31.832  38.167  11.213  0.00  0.00    -0.495 OA
ATOM     14  C   UNL     1      32.862  37.529  11.975  0.00  0.00    +0.277 C 
ENDBRANCH   8  13
ENDBRANCH   4   5
BRANCH  20  21
ATOM     21  C   UNL     1      20.943  35.250   6.743  0.00  0.00    +0.024 A 
ATOM     22  C   UNL     1      20.129  36.298   6.330  0.00  0.00    +0.057 A 
ATOM     23  C   UNL     1      18.838  36.035   5.882  0.00  0.00    +0.117 A 
ATOM     26  C   UNL     1      18.361  34.728   5.834  0.00  0.00    +0.045 A 
ATOM     27  C   UNL     1      19.180  33.682   6.229  0.00  0.00    +0.004 A 
ATOM     28  C   UNL     1      20.469  33.945   6.679  0.00  0.00    +0.012 A 
BRANCH  23  24
ATOM     24  O   UNL     1      18.037  37.060   5.479  0.00  0.00    -0.507 OA
ATOM     25  H   UNL     1      17.898  37.730   6.275  0.00  0.00    +0.292 HD
ENDBRANCH  23  24
ENDBRANCH  20  21
BRANCH  30  32
ATOM     32  C   UNL     1      27.262  33.244   6.466  0.00  0.00    +0.090 C 
ATOM     33  C   UNL     1      27.332  32.316   7.671  0.00  0.00    +0.071 C 
ATOM     37  C   UNL     1      28.259  31.121   7.436  0.00  0.00    +0.020 C 
ATOM     38  C   UNL     1      29.315  31.418   6.382  0.00  0.00    +0.002 C 
ATOM     39  C   UNL     1      28.677  31.700   5.024  0.00  0.00    +0.002 C 
ATOM     40  C   UNL     1      27.357  32.458   5.158  0.00  0.00    +0.024 C 
BRANCH  33  34
ATOM     34  N   UNL     1      25.989  31.846   7.969  0.00  0.00    -0.326 NA
ATOM     35  H   UNL     1      25.358  32.682   8.188  0.00  0.00    +0.118 HD
ATOM     36  H   UNL     1      25.600  31.318   7.124  0.00  0.00    +0.118 HD
ENDBRANCH  33  34
ENDBRANCH  30  32
BRANCH   3   2
ATOM      1  O   UNL     1      25.621  38.964  10.344  0.00  0.00    -0.270 OA
ATOM      2  C   UNL     1      24.740  38.273   9.856  0.00  0.00    +0.249 C 
ATOM     42  N   UNL     1      23.444  38.490  10.064  0.00  0.00    -0.325 N 
ATOM     43  H   UNL     1      22.715  37.852   9.610  0.00  0.00    +0.145 HD
ATOM     44  H   UNL     1      23.131  39.303  10.685  0.00  0.00    +0.145 HD
ENDBRANCH   3   2
TORSDOF 8
