REMARK  Name = 3dt1_ligand
REMARK  7 active torsions:
REMARK  status: ('A' for Active; 'I' for Inactive)
REMARK    1  A    between atoms: C1_1  and  C2_2
REMARK    2  A    between atoms: C1_1  and  N31_31
REMARK    3  A    between atoms: C2_2  and  N3_19
REMARK    4  A    between atoms: C10_6  and  C13_9
REMARK    5  A    between atoms: C15_11  and  C19_13
REMARK    6  A    between atoms: C20_14  and  N32_32
REMARK    7  A    between atoms: C18_24  and  C23_25
REMARK                            x       y       z     vdW  Elec       q    Type
REMARK                         _______ _______ _______ _____ _____    ______ ____
ROOT
ATOM      2  N   UNL     1      25.913   8.129  30.574  0.00  0.00    -0.284 N 
ATOM      3  H   UNL     1      26.693   8.239  29.910  0.00  0.00    +0.187 HD
ATOM      4  C   UNL     1      24.592   8.453  30.179  0.00  0.00    +0.188 A 
ATOM      5  N   UNL     1      24.066   9.697  30.601  0.00  0.00    -0.267 NA
ATOM      6  C   UNL     1      22.787  10.150  30.194  0.00  0.00    +0.041 A 
ATOM      7  C   UNL     1      21.927   9.349  29.312  0.00  0.00    +0.022 A 
ATOM      8  C   UNL     1      22.504   8.074  28.913  0.00  0.00    +0.133 A 
ATOM      9  C   UNL     1      20.631   9.870  28.866  0.00  0.00    +0.029 A 
ATOM     10  C   UNL     1      20.094  11.178  29.248  0.00  0.00    -0.014 A 
ATOM     25  C   UNL     1      20.940  11.965  30.137  0.00  0.00    +0.018 A 
ATOM     26  C   UNL     1      22.238  11.455  30.575  0.00  0.00    +0.021 A 
ATOM     27  N   UNL     1      23.788   7.648  29.334  0.00  0.00    -0.243 NA
ENDROOT
BRANCH  10  11
ATOM     11  C   UNL     1      18.873  11.823  28.809  0.00  0.00    -0.009 A 
ATOM     12  C   UNL     1      17.575  11.684  29.449  0.00  0.00    -0.032 A 
ATOM     13  C   UNL     1      17.282  10.790  30.552  0.00  0.00    +0.094 C 
ATOM     14  C   UNL     1      16.447  12.496  29.031  0.00  0.00    +0.003 A 
ATOM     15  C   UNL     1      16.531  13.480  27.963  0.00  0.00    +0.017 A 
ATOM     16  C   UNL     1      17.816  13.631  27.309  0.00  0.00    +0.043 A 
ATOM     24  C   UNL     1      18.944  12.812  27.745  0.00  0.00    +0.025 A 
BRANCH  16  17
ATOM     17  C   UNL     1      17.929  14.591  26.138  0.00  0.00    +0.200 C 
ATOM     18  N   UNL     1      16.963  15.473  25.894  0.00  0.00    -0.284 N 
ATOM     19  H   UNL     1      16.173  15.542  26.503  0.00  0.00    +0.185 HD
ATOM     23  O   UNL     1      18.913  14.555  25.410  0.00  0.00    -0.388 OA
BRANCH  18  20
ATOM     20  C   UNL     1      17.072  16.314  24.757  0.00  0.00    +0.097 C 
ATOM     21  C   UNL     1      15.937  16.462  23.856  0.00  0.00    +0.030 C 
ATOM     22  C   UNL     1      17.093  15.690  23.447  0.00  0.00    +0.030 C 
ENDBRANCH  18  20
ENDBRANCH  16  17
ENDBRANCH  10  11
BRANCH   2   1
ATOM      1  C   UNL     1      26.157   7.653  31.885  0.00  0.00    +0.187 C 
BRANCH   1  28
ATOM     28  C   UNL     1      27.488   7.113  32.116  0.00  0.00    +0.156 C 
BRANCH  28  29
ATOM     29  N   UNL     1      28.371   8.074  32.663  0.00  0.00    +0.240 N 
ATOM     30  H   UNL     1      27.673   8.759  32.909  0.00  0.00    +0.204 HD
ATOM     31  C   UNL     1      28.794   7.814  33.993  0.00  0.00    +0.160 C 
ATOM     32  C   UNL     1      29.384   9.005  34.586  0.00  0.00    +0.210 C 
ATOM     33  O   UNL     1      30.092   9.685  33.665  0.00  0.00    -0.369 OA
ATOM     34  C   UNL     1      29.584  10.078  32.477  0.00  0.00    +0.210 C 
ATOM     35  C   UNL     1      29.072   8.917  31.760  0.00  0.00    +0.160 C 
ENDBRANCH  28  29
ENDBRANCH   1  28
ENDBRANCH   2   1
TORSDOF 6
