REMARK  Name = 22L
REMARK  1 active torsions:
REMARK  status: ('A' for Active; 'I' for Inactive)
REMARK    1  A    between atoms: C7_4  and  C4_10
REMARK                            x       y       z     vdW  Elec       q    Type
REMARK                         _______ _______ _______ _____ _____    ______ ____
ROOT
ATOM      6  C   UNL     1     -30.328   6.152 -36.843  0.00  0.00    +0.013 A 
ATOM      7  C   UNL     1     -29.693   4.886 -36.991  0.00  0.00    +0.082 A 
ATOM      8  C   UNL     1     -28.860   4.167 -36.053  0.00  0.00    +0.283 A 
ATOM      9  O   UNL     1     -28.518   4.555 -34.937  0.00  0.00    -0.265 OA
ATOM     10  N   UNL     1     -28.432   2.922 -36.529  0.00  0.00    -0.186 NA
ATOM     11  C   UNL     1     -28.776   2.401 -37.737  0.00  0.00    +0.202 A 
ATOM     12  N   UNL     1     -29.524   3.004 -38.637  0.00  0.00    -0.217 NA
ATOM     13  C   UNL     1     -29.956   4.280 -38.203  0.00  0.00    +0.117 A 
ATOM     14  S   UNL     1     -30.938   5.278 -39.216  0.00  0.00    -0.067 S 
ATOM     15  C   UNL     1     -30.997   6.473 -37.976  0.00  0.00    +0.037 A 
ENDROOT
BRANCH   6   4
ATOM      1  C   UNL     1     -30.733   8.850 -33.558  0.00  0.00    +0.000 A 
ATOM      2  C   UNL     1     -30.900   7.499 -33.364  0.00  0.00    +0.000 A 
ATOM      3  C   UNL     1     -30.718   6.611 -34.413  0.00  0.00    +0.000 A 
ATOM      4  C   UNL     1     -30.376   7.076 -35.680  0.00  0.00    +0.001 A 
ATOM      5  C   UNL     1     -30.186   8.443 -35.857  0.00  0.00    +0.000 A 
ATOM     16  C   UNL     1     -30.369   9.321 -34.802  0.00  0.00    +0.000 A 
ENDBRANCH   6   4
TORSDOF 1
