REMARK  Name = 2clx_ligand
REMARK  4 active torsions:
REMARK  status: ('A' for Active; 'I' for Inactive)
REMARK    1  A    between atoms: C3_1  and  O3_4
REMARK    2  A    between atoms: C5_5  and  N9_8
REMARK    3  A    between atoms: N13_9  and  C14_10
REMARK    4  A    between atoms: C15_15  and  N18_16
REMARK                            x       y       z     vdW  Elec       q    Type
REMARK                         _______ _______ _______ _____ _____    ______ ____
ROOT
ATOM      7  C   UNL     1      28.282  29.560   7.346  0.00  0.00    +0.138 A 
ATOM      8  C   UNL     1      29.431  29.164   6.685  0.00  0.00    +0.193 A 
ATOM     12  N   UNL     1      29.900  30.195   5.998  0.00  0.00    -0.207 N 
ATOM     13  H   UNL     1      30.737  30.191   5.398  0.00  0.00    +0.246 HD
ATOM     14  N   UNL     1      29.158  31.164   6.202  0.00  0.00    -0.235 NA
ATOM     15  C   UNL     1      28.135  30.903   6.992  0.00  0.00    +0.101 A 
ATOM     16  N   UNL     1      27.262  31.837   7.342  0.00  0.00    -0.336 N 
ATOM     17  H   UNL     1      26.506  31.613   8.005  0.00  0.00    +0.170 HD
ATOM     18  H   UNL     1      27.340  32.787   6.951  0.00  0.00    +0.170 HD
ENDROOT
BRANCH   8   9
ATOM      9  N   UNL     1      29.990  27.959   6.715  0.00  0.00    -0.297 N 
ATOM     10  H   UNL     1      30.850  27.777   6.178  0.00  0.00    +0.186 HD
ATOM     11  H   UNL     1      29.563  27.207   7.275  0.00  0.00    +0.186 HD
ENDBRANCH   8   9
BRANCH   7   6
ATOM      5  N   UNL     1      26.756  28.534   8.859  0.00  0.00    -0.223 NA
ATOM      6  N   UNL     1      27.696  28.612   8.075  0.00  0.00    -0.217 NA
BRANCH   5   4
ATOM      1  C   UNL     1      23.768  30.740  10.477  0.00  0.00    +0.090 A 
ATOM      2  C   UNL     1      24.015  29.440  10.880  0.00  0.00    +0.025 A 
ATOM      3  C   UNL     1      25.065  28.773  10.285  0.00  0.00    +0.012 A 
ATOM      4  C   UNL     1      25.846  29.376   9.307  0.00  0.00    +0.044 A 
ATOM     19  C   UNL     1      25.613  30.682   8.889  0.00  0.00    +0.012 A 
ATOM     22  C   UNL     1      24.563  31.344   9.507  0.00  0.00    +0.025 A 
BRANCH   1  20
ATOM     20  O   UNL     1      22.746  31.400  11.088  0.00  0.00    -0.332 OA
ATOM     21  H   UNL     1      22.326  30.823  11.715  0.00  0.00    +0.249 HD
ENDBRANCH   1  20
ENDBRANCH   5   4
ENDBRANCH   7   6
TORSDOF 4
