REMARK  Name = 5E8W
REMARK  5 active torsions:
REMARK  status: ('A' for Active; 'I' for Inactive)
REMARK    1  A    between atoms: C_4  and  N_34
REMARK    2  A    between atoms: C_5  and  O_32
REMARK    3  A    between atoms: C_6  and  C_7
REMARK    4  A    between atoms: O_32  and  C_33
REMARK    5  A    between atoms: N_34  and  C_35
REMARK                            x       y       z     vdW  Elec       q    Type
REMARK                         _______ _______ _______ _____ _____    ______ ____
ROOT
ATOM      1  O   UNL     1       1.078   8.846   7.606  0.00  0.00    -0.328 OA
ATOM      2  C   UNL     1       2.264   8.715   8.395  0.00  0.00    +0.174 C 
ATOM      3  N   UNL     1       3.418   8.823   7.480  0.00  0.00    -0.307 N 
ATOM      4  C   UNL     1       4.714   9.306   7.742  0.00  0.00    +0.053 A 
ATOM      5  C   UNL     1       5.300   9.724   8.938  0.00  0.00    +0.026 A 
ATOM      6  C   UNL     1       6.641  10.080   8.927  0.00  0.00    +0.002 A 
ATOM      7  C   UNL     1       7.382  10.031   7.758  0.00  0.00    +0.001 A 
ATOM      8  C   UNL     1       6.809   9.595   6.580  0.00  0.00    +0.010 A 
ATOM      9  C   UNL     1       5.472   9.211   6.561  0.00  0.00    +0.008 A 
ATOM     10  C   UNL     1       4.623   8.624   5.559  0.00  0.00    +0.015 A 
ATOM     11  C   UNL     1       4.828   8.256   4.235  0.00  0.00    -0.008 A 
ATOM     12  C   UNL     1       6.064   8.382   3.404  0.00  0.00    +0.141 C 
ATOM     13  N   UNL     1       5.633   7.771   2.157  0.00  0.00    -0.307 N 
ATOM     14  H   UNL     1       6.266   7.659   1.372  0.00  0.00    +0.149 HD
ATOM     15  C   UNL     1       4.344   7.374   2.157  0.00  0.00    +0.245 C 
ATOM     16  O   UNL     1       3.750   6.899   1.198  0.00  0.00    -0.270 OA
ATOM     17  C   UNL     1       3.821   7.666   3.486  0.00  0.00    +0.052 A 
ATOM     18  C   UNL     1       2.553   7.430   4.042  0.00  0.00    +0.022 A 
ATOM     19  C   UNL     1       1.318   6.834   3.573  0.00  0.00    +0.009 A 
ATOM     20  C   UNL     1       0.878   6.341   2.336  0.00  0.00    +0.010 A 
ATOM     21  C   UNL     1      -0.402   5.855   2.208  0.00  0.00    +0.001 A 
ATOM     22  C   UNL     1      -1.261   5.835   3.298  0.00  0.00    +0.002 A 
ATOM     23  C   UNL     1      -0.869   6.341   4.536  0.00  0.00    +0.026 A 
ATOM     24  C   UNL     1       0.419   6.840   4.665  0.00  0.00    +0.052 A 
ATOM     25  N   UNL     1       1.034   7.428   5.778  0.00  0.00    -0.312 N 
ATOM     26  C   UNL     1       2.331   7.787   5.398  0.00  0.00    +0.077 A 
ATOM     27  C   UNL     1       3.371   8.391   6.158  0.00  0.00    +0.077 A 
ATOM     28  C   UNL     1       2.104   9.895   9.334  0.00  0.00    +0.069 C 
ATOM     29  C   UNL     1       2.311   7.341   9.134  0.00  0.00    +0.187 C 
ATOM     32  C   UNL     1       0.861   6.945   9.392  0.00  0.00    +0.091 C 
ATOM     36  C   UNL     1       0.193   6.583   8.055  0.00  0.00    +0.076 C 
ATOM     37  C   UNL     1       0.408   7.712   7.057  0.00  0.00    +0.224 C 
ENDROOT
BRANCH  32  33
ATOM     33  N   UNL     1       0.792   5.932  10.445  0.00  0.00    -0.314 NA
ATOM     34  H   UNL     1      -0.077   5.406  10.459  0.00  0.00    +0.122 HD
ATOM     35  C   UNL     1       1.123   6.441  11.802  0.00  0.00    +0.101 C 
ENDBRANCH  32  33
BRANCH  29  30
ATOM     30  O   UNL     1       2.891   6.276   8.354  0.00  0.00    -0.374 OA
ATOM     31  C   UNL     1       4.281   6.014   8.557  0.00  0.00    +0.194 C 
ENDBRANCH  29  30
TORSDOF 2
