REMARK  Name = 2NO1
REMARK  4 active torsions:
REMARK  status: ('A' for Active; 'I' for Inactive)
REMARK    1  A    between atoms: N1_1  and  C1*_9
REMARK    2  A    between atoms: C3*_11  and  O3*_14
REMARK    3  A    between atoms: C4*_12  and  C5*_15
REMARK    4  A    between atoms: C5*_15  and  O5*_16
REMARK                            x       y       z     vdW  Elec       q    Type
REMARK                         _______ _______ _______ _____ _____    ______ ____
ROOT
ATOM      1  N1    C A   1      47.712  65.267 100.017  0.00  0.00    -0.273 N 
ATOM     12  C6    C A   1      46.548  64.710  99.921  0.00  0.00    +0.096 C 
ATOM     13  C5    C A   1      45.496  65.263 100.428  0.00  0.00    +0.061 C 
ATOM     14  C4    C A   1      45.561  66.379 101.076  0.00  0.00    +0.123 C 
ATOM     15  N4    C A   1      44.517  67.019 101.592  0.00  0.00    -0.343 N 
ATOM     16  H41   C A   1      43.541  66.585 101.533  0.00  0.00    +0.144 HD
ATOM     17  H42   C A   1      44.653  67.968 102.067  0.00  0.00    +0.144 HD
ATOM     18  N3    C A   1      46.725  66.983 101.192  0.00  0.00    -0.178 NA
ATOM     19  C2    C A   1      47.816  66.430 100.662  0.00  0.00    +0.352 C 
ATOM     20  O2    C A   1      48.961  67.026 100.827  0.00  0.00    -0.244 OA
ENDROOT
BRANCH   1   2
ATOM      2  C1*   C A   1      48.930  64.725  99.394  0.00  0.00    +0.226 C 
ATOM      3  O4*   C A   1      48.564  64.340  98.043  0.00  0.00    -0.348 OA
ATOM      4  C4*   C A   1      49.128  63.065  97.724  0.00  0.00    +0.175 C 
ATOM      8  C3*   C A   1      50.090  62.725  98.868  0.00  0.00    +0.150 C 
ATOM     11  C2*   C A   1      49.613  63.534 100.071  0.00  0.00    +0.088 C 
BRANCH   8   9
ATOM      9  O3*   C A   1      51.372  63.211  98.443  0.00  0.00    -0.389 OA
ATOM     10  H3*   C A   1      51.292  64.223  98.174  0.00  0.00    +0.210 HD
ENDBRANCH   8   9
BRANCH   4   5
ATOM      5  C5*   C A   1      48.038  62.022  97.453  0.00  0.00    +0.190 C 
BRANCH   5   6
ATOM      6  O5*   C A   1      47.466  61.488  98.650  0.00  0.00    -0.392 OA
ATOM      7  H5*   C A   1      48.216  61.024  99.220  0.00  0.00    +0.209 HD
ENDBRANCH   5   6
ENDBRANCH   4   5
ENDBRANCH   1   2
TORSDOF 4
