REMARK  Name = 6M8A
REMARK  1 active torsions:
REMARK  status: ('A' for Active; 'I' for Inactive)
REMARK    1  A    between atoms: C9_15  and  C10_16
REMARK                            x       y       z     vdW  Elec       q    Type
REMARK                         _______ _______ _______ _____ _____    ______ ____
ROOT
ATOM      1  C   UNL     1       7.398  25.087  24.703  0.00  0.00    -0.130 A 
ATOM      2  C   UNL     1       6.369  26.021  24.598  0.00  0.00    +0.185 A 
ATOM      3  C   UNL     1       5.799  26.328  23.279  0.00  0.00    +0.000 A 
ATOM      4  C   UNL     1       4.698  27.324  23.192  0.00  0.00    +0.550 A 
ATOM      5  C   UNL     1       4.245  27.948  24.357  0.00  0.00    -0.100 A 
ATOM      6  C   UNL     1       4.828  27.618  25.592  0.00  0.00    +0.000 A 
ATOM     15  O   UNL     1       4.197  27.569  22.083  0.00  0.00    -0.550 OA
ATOM     16  C   UNL     1       6.347  25.617  22.111  0.00  0.00    +0.250 A 
ATOM     17  C   UNL     1       7.376  24.701  22.288  0.00  0.00    -0.130 A 
ATOM     18  O   UNL     1       5.844  25.875  20.893  0.00  0.00    -0.650 OA
ATOM     19  O   UNL     1       5.862  26.691  25.674  0.00  0.00    -0.185 OA
ATOM     20  C   UNL     1       7.889  24.439  23.563  0.00  0.00    +0.250 A 
ATOM     21  O   UNL     1       8.892  23.520  23.684  0.00  0.00    -0.650 OA
ENDROOT
BRANCH   6   7
ATOM      7  C   UNL     1       4.413  28.240  26.880  0.00  0.00    +0.000 A 
ATOM      8  C   UNL     1       3.869  29.534  26.953  0.00  0.00    -0.130 A 
ATOM      9  C   UNL     1       3.515  30.094  28.186  0.00  0.00    -0.130 A 
ATOM     10  C   UNL     1       3.710  29.378  29.367  0.00  0.00    +0.250 A 
ATOM     11  C   UNL     1       4.288  28.015  29.288  0.00  0.00    +0.250 A 
ATOM     12  O   UNL     1       4.492  27.266  30.406  0.00  0.00    -0.650 OA
ATOM     13  O   UNL     1       3.363  29.902  30.577  0.00  0.00    -0.650 OA
ATOM     14  C   UNL     1       4.626  27.497  28.048  0.00  0.00    -0.130 A 
ENDBRANCH   6   7
TORSDOF 1
