REMARK  Name = 3PZE
REMARK  3 active torsions:
REMARK  status: ('A' for Active; 'I' for Inactive)
REMARK    1  A    between atoms: C_4  and  C_7
REMARK    2  A    between atoms: C_9  and  N_15
REMARK    3  A    between atoms: C_10  and  C_12
REMARK                            x       y       z     vdW  Elec       q    Type
REMARK                         _______ _______ _______ _____ _____    ______ ____
ROOT
ATOM      5  C   UNL     1      21.568  10.502  31.922  0.00  0.00    +0.022 A 
ATOM      6  S   UNL     1      20.024  10.285  32.731  0.00  0.00    -0.082 S 
ATOM      7  C   UNL     1      20.057   8.537  32.490  0.00  0.00    +0.095 A 
ATOM     13  C   UNL     1      21.226   8.203  31.823  0.00  0.00    +0.055 A 
ATOM     21  C   UNL     1      22.047   9.285  31.549  0.00  0.00    +0.040 A 
ENDROOT
BRANCH  13  14
ATOM     14  N   UNL     1      21.596   6.866  31.570  0.00  0.00    -0.268 N 
ATOM     15  H   UNL     1      21.087   6.116  32.139  0.00  0.00    +0.156 HD
ATOM     16  C   UNL     1      22.525   6.424  30.686  0.00  0.00    +0.301 C 
ATOM     17  N   UNL     1      22.773   5.101  30.628  0.00  0.00    -0.313 N 
ATOM     18  H   UNL     1      23.500   4.723  29.941  0.00  0.00    +0.146 HD
ATOM     19  H   UNL     1      22.243   4.429  31.269  0.00  0.00    +0.146 HD
ATOM     20  O   UNL     1      23.137   7.173  29.943  0.00  0.00    -0.253 OA
ENDBRANCH  13  14
BRANCH   5   4
ATOM      1  C   UNL     1      23.536  14.281  31.522  0.00  0.00    +0.000 A 
ATOM      2  C   UNL     1      24.281  13.105  31.438  0.00  0.00    +0.001 A 
ATOM      3  C   UNL     1      23.652  11.872  31.568  0.00  0.00    +0.009 A 
ATOM      4  C   UNL     1      22.254  11.810  31.758  0.00  0.00    -0.011 A 
ATOM     22  C   UNL     1      21.510  13.009  31.856  0.00  0.00    +0.009 A 
ATOM     23  C   UNL     1      22.155  14.238  31.738  0.00  0.00    +0.001 A 
ENDBRANCH   5   4
BRANCH   7   8
ATOM      8  C   UNL     1      19.025   7.641  32.903  0.00  0.00    +0.250 C 
ATOM      9  N   UNL     1      17.899   8.087  33.502  0.00  0.00    -0.325 N 
ATOM     10  H   UNL     1      17.142   7.393  33.801  0.00  0.00    +0.145 HD
ATOM     11  H   UNL     1      17.765   9.134  33.677  0.00  0.00    +0.145 HD
ATOM     12  O   UNL     1      19.119   6.450  32.692  0.00  0.00    -0.270 OA
ENDBRANCH   7   8
TORSDOF 3
