REMARK  Name = 3psd_ligand
REMARK  3 active torsions:
REMARK  status: ('A' for Active; 'I' for Inactive)
REMARK    1  A    between atoms: C1_1  and  C6_6
REMARK    2  A    between atoms: C2_2  and  C7_7
REMARK    3  A    between atoms: N4_4  and  C13_13
REMARK                            x       y       z     vdW  Elec       q    Type
REMARK                         _______ _______ _______ _____ _____    ______ ____
ROOT
ATOM      1  C   UNL     1      41.815  29.050  33.243  0.00  0.00    +0.010 A 
ATOM     15  C   UNL     1      42.369  30.319  33.330  0.00  0.00    +0.172 A 
ATOM     16  N   UNL     1      41.341  31.190  33.013  0.00  0.00    -0.195 N 
ATOM     25  N   UNL     1      40.190  30.528  32.743  0.00  0.00    -0.198 NA
ATOM     26  C   UNL     1      40.479  29.245  32.882  0.00  0.00    +0.060 A 
ENDROOT
BRANCH   1   2
ATOM      2  C   UNL     1      42.557  27.813  33.508  0.00  0.00    -0.041 A 
ATOM      3  C   UNL     1      42.490  26.699  32.634  0.00  0.00    -0.009 A 
ATOM      4  C   UNL     1      43.237  25.543  32.955  0.00  0.00    -0.033 A 
ATOM      5  C   UNL     1      43.288  24.229  32.120  0.00  0.00    +0.116 C 
ATOM      6  C   UNL     1      44.241  23.546  33.080  0.00  0.00    -0.012 A 
ATOM      7  C   UNL     1      44.865  22.312  33.163  0.00  0.00    +0.067 A 
ATOM      8  N   UNL     1      45.607  22.398  34.341  0.00  0.00    -0.224 NA
ATOM      9  N   UNL     1      45.485  23.597  34.987  0.00  0.00    -0.226 N 
ATOM     10  H   UNL     1      45.917  23.914  35.855  0.00  0.00    +0.247 HD
ATOM     11  C   UNL     1      44.655  24.233  34.180  0.00  0.00    +0.080 A 
ATOM     12  C   UNL     1      44.023  25.522  34.123  0.00  0.00    -0.000 A 
ATOM     13  C   UNL     1      44.112  26.611  35.011  0.00  0.00    -0.007 A 
ATOM     14  C   UNL     1      43.360  27.761  34.677  0.00  0.00    -0.017 A 
ENDBRANCH   1   2
BRANCH  16  17
ATOM     17  C   UNL     1      41.349  32.651  32.949  0.00  0.00    +0.163 C 
ATOM     18  C   UNL     1      40.149  33.242  33.733  0.00  0.00    +0.091 C 
ATOM     19  C   UNL     1      40.181  34.784  33.821  0.00  0.00    +0.132 C 
ATOM     20  N   UNL     1      41.503  35.281  34.276  0.00  0.00    +0.227 N 
ATOM     21  H   UNL     1      41.646  34.925  35.221  0.00  0.00    +0.201 HD
ATOM     22  H   UNL     1      41.479  36.298  34.205  0.00  0.00    +0.201 HD
ATOM     23  C   UNL     1      42.653  34.816  33.458  0.00  0.00    +0.132 C 
ATOM     24  C   UNL     1      42.706  33.274  33.363  0.00  0.00    +0.091 C 
ENDBRANCH  16  17
BRANCH  26  27
ATOM     27  C   UNL     1      39.466  28.215  32.670  0.00  0.00    +0.006 A 
ATOM     28  C   UNL     1      38.706  28.225  31.479  0.00  0.00    +0.042 A 
ATOM     29  C   UNL     1      37.717  27.235  31.298  0.00  0.00    +0.090 A 
ATOM     30  N   UNL     1      37.472  26.285  32.228  0.00  0.00    -0.300 NA
ATOM     31  C   UNL     1      38.190  26.277  33.375  0.00  0.00    +0.090 A 
ATOM     32  C   UNL     1      39.197  27.230  33.645  0.00  0.00    +0.042 A 
ENDBRANCH  26  27
TORSDOF 3
