REMARK  Name = WSH
REMARK  5 active torsions:
REMARK  status: ('A' for Active; 'I' for Inactive)
REMARK    1  A    between atoms: C14_15  and  C13_21
REMARK    2  A    between atoms: C7_17  and  C6_25
REMARK    3  A    between atoms: C5_22  and  O2_32
REMARK    4  A    between atoms: C4_23  and  N3_30
REMARK    5  A    between atoms: C6_25  and  O2_32
REMARK                            x       y       z     vdW  Elec       q    Type
REMARK                         _______ _______ _______ _____ _____    ______ ____
ROOT
ATOM      5  C   UNL     1      -6.002  -6.506 -18.761  0.00  0.00    +0.080 C 
ATOM      6  C   UNL     1      -5.829  -5.270 -17.947  0.00  0.00    +0.034 A 
ATOM      7  C   UNL     1      -6.657  -5.080 -16.843  0.00  0.00    +0.003 A 
ATOM      8  C   UNL     1      -6.517  -3.952 -16.067  0.00  0.00    +0.000 A 
ATOM      9  C   UNL     1      -5.559  -3.015 -16.368  0.00  0.00    +0.002 A 
ATOM     10  C   UNL     1      -4.741  -3.179 -17.459  0.00  0.00    +0.018 A 
ATOM     11  C   UNL     1      -4.864  -4.304 -18.264  0.00  0.00    +0.068 A 
ATOM     12  N   UNL     1      -4.024  -4.405 -19.425  0.00  0.00    -0.278 N 
ATOM     13  C   UNL     1      -3.328  -5.555 -19.775  0.00  0.00    +0.191 A 
ATOM     14  C   UNL     1      -3.665  -6.833 -19.035  0.00  0.00    +0.259 C 
ATOM     26  N   UNL     1      -2.481  -5.273 -20.737  0.00  0.00    -0.129 NA
ATOM     27  N   UNL     1      -2.611  -3.929 -21.041  0.00  0.00    -0.133 NA
ATOM     28  C   UNL     1      -3.537  -3.430 -20.261  0.00  0.00    +0.147 A 
ATOM     29  C   UNL     1      -4.002  -2.027 -20.247  0.00  0.00    +0.074 C 
ATOM     30  N   UNL     1      -5.061  -7.211 -19.266  0.00  0.00    -0.243 NA
ENDROOT
BRANCH   5   4
ATOM      1  C   UNL     1      -9.917  -7.980 -19.489  0.00  0.00    +0.000 A 
ATOM      2  C   UNL     1      -8.887  -8.853 -19.226  0.00  0.00    +0.000 A 
ATOM      3  C   UNL     1      -7.625  -8.353 -18.988  0.00  0.00    +0.002 A 
ATOM      4  C   UNL     1      -7.388  -6.993 -19.011  0.00  0.00    +0.017 A 
ATOM     31  C   UNL     1      -8.423  -6.125 -19.278  0.00  0.00    +0.002 A 
ATOM     32  C   UNL     1      -9.685  -6.620 -19.514  0.00  0.00    +0.000 A 
ENDBRANCH   5   4
BRANCH  14  15
ATOM     15  N   UNL     1      -2.835  -7.867 -19.618  0.00  0.00    -0.138 NA
ATOM     16  C   UNL     1      -2.701  -9.082 -19.049  0.00  0.00    +0.423 C 
ATOM     25  O   UNL     1      -2.018  -9.984 -19.517  0.00  0.00    -0.225 OA
BRANCH  16  17
ATOM     17  O   UNL     1      -3.398  -9.189 -17.905  0.00  0.00    -0.428 OA
BRANCH  17  18
ATOM     18  C   UNL     1      -3.429 -10.511 -17.297  0.00  0.00    +0.237 C 
BRANCH  18  19
ATOM     19  C   UNL     1      -4.744 -10.703 -16.611  0.00  0.00    +0.021 A 
ATOM     20  C   UNL     1      -4.929 -10.291 -15.309  0.00  0.00    -0.001 A 
ATOM     21  C   UNL     1      -6.138 -10.470 -14.680  0.00  0.00    -0.000 A 
ATOM     22  C   UNL     1      -7.179 -11.061 -15.358  0.00  0.00    -0.000 A 
ATOM     23  C   UNL     1      -7.011 -11.476 -16.658  0.00  0.00    -0.000 A 
ATOM     24  C   UNL     1      -5.795 -11.297 -17.274  0.00  0.00    -0.001 A 
ENDBRANCH  18  19
ENDBRANCH  17  18
ENDBRANCH  16  17
ENDBRANCH  14  15
TORSDOF 5
