REMARK  Name = 2vts_ligand
REMARK  7 active torsions:
REMARK  status: ('A' for Active; 'I' for Inactive)
REMARK    1  A    between atoms: C1_1  and  C2_2
REMARK    2  A    between atoms: C2_2  and  C3_3
REMARK    3  A    between atoms: C2_2  and  N4_4
REMARK    4  A    between atoms: N4_4  and  C5_5
REMARK    5  A    between atoms: N8_8  and  C9_9
REMARK    6  A    between atoms: C12_12  and  N13_13
REMARK    7  A    between atoms: C18_18  and  C19_19
REMARK                            x       y       z     vdW  Elec       q    Type
REMARK                         _______ _______ _______ _____ _____    ______ ____
ROOT
ATOM      5  C   UNL     1      28.956   7.059  65.207  0.00  0.00    +0.225 A 
ATOM      6  N   UNL     1      28.241   5.904  65.012  0.00  0.00    -0.102 N 
ATOM      7  N   UNL     1      28.505   4.676  65.563  0.00  0.00    -0.201 NA
ATOM      8  C   UNL     1      27.581   3.863  65.032  0.00  0.00    +0.086 A 
ATOM      9  C   UNL     1      26.731   4.564  64.172  0.00  0.00    +0.107 A 
ATOM     12  C   UNL     1      27.159   5.864  64.177  0.00  0.00    +0.179 A 
ATOM     13  N   UNL     1      26.724   6.959  63.552  0.00  0.00    -0.274 NA
ATOM     14  C   UNL     1      27.409   8.109  63.726  0.00  0.00    +0.098 A 
ATOM     15  N   UNL     1      26.910   9.187  63.036  0.00  0.00    -0.300 N 
ATOM     16  H   UNL     1      27.244  10.128  63.288  0.00  0.00    +0.186 HD
ATOM     27  C   UNL     1      28.519   8.204  64.556  0.00  0.00    +0.087 A 
ENDROOT
BRANCH  15  17
ATOM     17  C   UNL     1      25.933   9.063  61.968  0.00  0.00    +0.097 C 
ATOM     18  C   UNL     1      26.555   8.346  60.754  0.00  0.00    +0.033 C 
ATOM     19  C   UNL     1      25.662   8.389  59.512  0.00  0.00    +0.056 C 
ATOM     20  C   UNL     1      25.166   9.809  59.220  0.00  0.00    +0.061 C 
ATOM     25  C   UNL     1      24.452  10.392  60.419  0.00  0.00    +0.056 C 
ATOM     26  C   UNL     1      25.409  10.449  61.590  0.00  0.00    +0.033 C 
BRANCH  20  21
ATOM     21  N   UNL     1      24.251   9.818  58.028  0.00  0.00    +0.221 N 
ATOM     22  H   UNL     1      23.432   9.266  58.229  0.00  0.00    +0.200 HD
ATOM     23  H   UNL     1      23.975  10.766  57.823  0.00  0.00    +0.200 HD
ATOM     24  H   UNL     1      24.732   9.428  57.232  0.00  0.00    +0.200 HD
ENDBRANCH  20  21
ENDBRANCH  15  17
BRANCH   5   3
ATOM      3  N   UNL     1      30.056   7.005  66.051  0.00  0.00    -0.267 N 
ATOM      4  H   UNL     1      30.202   6.160  66.621  0.00  0.00    +0.195 HD
BRANCH   3   2
ATOM      1  C   UNL     1      31.724   8.041  67.511  0.00  0.00    +0.035 C 
ATOM      2  C   UNL     1      31.010   8.097  66.160  0.00  0.00    +0.098 C 
ATOM     28  C   UNL     1      31.989   8.038  64.987  0.00  0.00    +0.035 C 
ENDBRANCH   3   2
ENDBRANCH   5   3
BRANCH   9  10
ATOM     10  C   UNL     1      25.612   4.078  63.454  0.00  0.00    +0.041 C 
ATOM     11  N   UNL     1      24.704   3.687  62.863  0.00  0.00    -0.384 NA
ENDBRANCH   9  10
TORSDOF 5
