REMARK  Name = 3iop_ligand
REMARK  12 active torsions:
REMARK  status: ('A' for Active; 'I' for Inactive)
REMARK    1  A    between atoms: C1_1  and  O1_3
REMARK    2  A    between atoms: O1_3  and  C2_4
REMARK    3  A    between atoms: O2_6  and  C13_21
REMARK    4  A    between atoms: O2_6  and  C14_22
REMARK    5  A    between atoms: N3_8  and  C8_16
REMARK    6  A    between atoms: O3_9  and  C17_25
REMARK    7  A    between atoms: O3_9  and  C20_28
REMARK    8  A    between atoms: N5_13  and  C21_29
REMARK    9  A    between atoms: C7_15  and  C15_23
REMARK   10  A    between atoms: C20_28  and  C21_29
REMARK   11  A    between atoms: C21_29  and  C22_30
REMARK   12  A    between atoms: C22_30  and  C23_31
REMARK                            x       y       z     vdW  Elec       q    Type
REMARK                         _______ _______ _______ _____ _____    ______ ____
ROOT
ATOM      3  C   UNL     1     -32.985 -23.456   5.808  0.00  0.00    +0.130 A 
ATOM      4  C   UNL     1     -31.582 -23.409   5.929  0.00  0.00    +0.130 A 
ATOM      5  C   UNL     1     -30.830 -24.526   5.534  0.00  0.00    +0.034 A 
ATOM      6  C   UNL     1     -31.419 -25.682   5.025  0.00  0.00    +0.027 A 
ATOM      7  C   UNL     1     -32.826 -25.758   4.896  0.00  0.00    -0.007 A 
ATOM      8  C   UNL     1     -33.389 -26.977   4.365  0.00  0.00    -0.000 A 
ATOM      9  C   UNL     1     -32.524 -28.038   4.002  0.00  0.00    +0.054 A 
ATOM     10  C   UNL     1     -31.154 -27.816   4.184  0.00  0.00    +0.105 A 
ATOM     11  C   UNL     1     -33.072 -29.233   3.473  0.00  0.00    +0.127 A 
ATOM     15  N   UNL     1     -34.409 -29.392   3.312  0.00  0.00    -0.279 NA
ATOM     16  C   UNL     1     -35.259 -28.394   3.653  0.00  0.00    +0.038 A 
ATOM     37  C   UNL     1     -34.777 -27.191   4.174  0.00  0.00    +0.026 A 
ATOM     38  N   UNL     1     -30.607 -26.687   4.676  0.00  0.00    -0.306 NA
ATOM     41  C   UNL     1     -33.582 -24.621   5.301  0.00  0.00    +0.030 A 
ENDROOT
BRANCH  16  17
ATOM     17  C   UNL     1     -36.698 -28.663   3.447  0.00  0.00    +0.013 A 
ATOM     18  C   UNL     1     -37.257 -29.947   3.384  0.00  0.00    +0.086 A 
ATOM     19  N   UNL     1     -38.583 -30.210   3.200  0.00  0.00    -0.304 NA
ATOM     20  C   UNL     1     -39.416 -29.143   3.080  0.00  0.00    +0.117 A 
ATOM     21  C   UNL     1     -38.986 -27.822   3.125  0.00  0.00    +0.121 A 
ATOM     36  C   UNL     1     -37.617 -27.606   3.314  0.00  0.00    +0.064 A 
BRANCH  21  22
ATOM     22  O   UNL     1     -39.720 -26.670   3.014  0.00  0.00    -0.304 OA
BRANCH  22  23
ATOM     23  C   UNL     1     -41.108 -26.713   2.662  0.00  0.00    +0.251 C 
BRANCH  23  24
ATOM     24  C   UNL     1     -41.777 -25.390   3.076  0.00  0.00    +0.104 C 
BRANCH  24  32
ATOM     32  N   UNL     1     -40.992 -24.277   2.459  0.00  0.00    +0.224 N 
ATOM     33  H   UNL     1     -41.467 -23.402   2.619  0.00  0.00    +0.200 HD
ATOM     34  H   UNL     1     -40.074 -24.242   2.875  0.00  0.00    +0.200 HD
ATOM     35  H   UNL     1     -40.906 -24.436   1.467  0.00  0.00    +0.200 HD
ENDBRANCH  24  32
BRANCH  24  25
ATOM     25  C   UNL     1     -41.884 -25.104   4.596  0.00  0.00    +0.123 C 
BRANCH  25  26
ATOM     26  C   UNL     1     -41.394 -26.209   5.504  0.00  0.00    -0.038 A 
ATOM     27  C   UNL     1     -42.234 -27.294   5.827  0.00  0.00    -0.004 A 
ATOM     28  C   UNL     1     -41.768 -28.322   6.656  0.00  0.00    -0.009 A 
ATOM     29  C   UNL     1     -40.469 -28.274   7.171  0.00  0.00    -0.013 A 
ATOM     30  C   UNL     1     -39.629 -27.203   6.855  0.00  0.00    -0.009 A 
ATOM     31  C   UNL     1     -40.087 -26.172   6.030  0.00  0.00    -0.004 A 
ENDBRANCH  25  26
ENDBRANCH  24  25
ENDBRANCH  23  24
ENDBRANCH  22  23
ENDBRANCH  21  22
ENDBRANCH  16  17
BRANCH  11  12
ATOM     12  N   UNL     1     -32.264 -30.304   3.092  0.00  0.00    -0.315 N 
ATOM     13  H   UNL     1     -32.690 -31.160   2.710  0.00  0.00    +0.182 HD
ATOM     14  H   UNL     1     -31.241 -30.238   3.192  0.00  0.00    +0.182 HD
ENDBRANCH  11  12
BRANCH   3   2
ATOM      1  C   UNL     1     -35.016 -22.117   5.778  0.00  0.00    +0.232 C 
ATOM      2  O   UNL     1     -33.673 -22.333   6.213  0.00  0.00    -0.319 OA
ENDBRANCH   3   2
BRANCH   4  39
ATOM     39  O   UNL     1     -31.053 -22.243   6.438  0.00  0.00    -0.319 OA
ATOM     40  C   UNL     1     -29.656 -22.147   6.709  0.00  0.00    +0.232 C 
ENDBRANCH   4  39
TORSDOF 10
