REMARK  Name = 8FX
REMARK  2 active torsions:
REMARK  status: ('A' for Active; 'I' for Inactive)
REMARK    1  A    between atoms: C2_6  and  CAR_15
REMARK    2  A    between atoms: CAN_13  and  CAQ_14
REMARK                            x       y       z     vdW  Elec       q    Type
REMARK                         _______ _______ _______ _____ _____    ______ ____
ROOT
ATOM      1  C   UNL     1      -7.013 -12.251  18.935  0.00  0.00    +0.157 A 
ATOM      2  N   UNL     1      -7.790 -11.796  20.045  0.00  0.00    -0.174 NA
ATOM      3  C   UNL     1      -7.667 -10.475  20.630  0.00  0.00    +0.176 A 
ATOM      4  N   UNL     1      -8.308 -10.132  21.792  0.00  0.00    -0.131 NA
ATOM      5  N   UNL     1      -8.017  -8.797  22.080  0.00  0.00    -0.151 NA
ATOM      6  C   UNL     1      -7.171  -8.301  21.089  0.00  0.00    +0.083 A 
ATOM     10  C   UNL     1      -6.951  -9.324  20.180  0.00  0.00    +0.054 A 
ATOM     11  C   UNL     1      -7.072 -13.640  18.472  0.00  0.00    +0.052 A 
ATOM     12  C   UNL     1      -7.884 -14.539  19.091  0.00  0.00    +0.016 A 
ATOM     13  C   UNL     1      -7.918 -15.958  18.599  0.00  0.00    +0.058 A 
ATOM     14 CL   UNL     1      -8.953 -17.072  19.419  0.00  0.00    -0.082 Cl
ATOM     15  C   UNL     1      -7.195 -16.361  17.559  0.00  0.00    +0.013 A 
ATOM     16  C   UNL     1      -6.306 -15.364  16.872  0.00  0.00    +0.020 A 
ATOM     17  C   UNL     1      -6.271 -14.076  17.332  0.00  0.00    +0.086 A 
ATOM     18  N   UNL     1      -5.444 -13.159  16.689  0.00  0.00    -0.223 NA
ATOM     19  C   UNL     1      -5.414 -11.864  17.137  0.00  0.00    +0.218 A 
ATOM     29  N   UNL     1      -6.229 -11.395  18.310  0.00  0.00    -0.206 NA
ENDROOT
BRANCH  19  20
ATOM     20  C   UNL     1      -4.503 -10.885  16.449  0.00  0.00    +0.285 C 
ATOM     21  O   UNL     1      -3.304 -11.035  16.553  0.00  0.00    -0.267 OA
ATOM     22  N   UNL     1      -5.052  -9.810  15.691  0.00  0.00    -0.271 N 
ATOM     23  C   UNL     1      -6.480  -9.644  15.582  0.00  0.00    +0.113 C 
ATOM     24  C   UNL     1      -6.798  -8.161  15.784  0.00  0.00    +0.110 C 
ATOM     25  N   UNL     1      -5.987  -7.344  14.907  0.00  0.00    -0.216 NA
ATOM     26  C   UNL     1      -4.599  -7.468  15.233  0.00  0.00    +0.093 C 
ATOM     27  C   UNL     1      -3.763  -6.589  14.322  0.00  0.00    +0.021 C 
ATOM     28  C   UNL     1      -4.136  -8.902  15.059  0.00  0.00    +0.111 C 
ENDBRANCH  19  20
BRANCH   6   7
ATOM      7  C   UNL     1      -6.569  -6.737  21.071  0.00  0.00    +0.042 C 
ATOM      8  C   UNL     1      -5.254  -6.716  21.330  0.00  0.00    +0.006 C 
ATOM      9  C   UNL     1      -6.479  -6.211  19.841  0.00  0.00    +0.006 C 
ENDBRANCH   6   7
TORSDOF 2
