REMARK  Name = 3TJP
REMARK  6 active torsions:
REMARK  status: ('A' for Active; 'I' for Inactive)
REMARK    1  A    between atoms: C_7  and  C_8
REMARK    2  A    between atoms: N_20  and  C_21
REMARK    3  A    between atoms: C_25  and  O_26
REMARK    4  A    between atoms: O_26  and  C_27
REMARK    5  A    between atoms: C_28  and  O_29
REMARK    6  A    between atoms: O_29  and  C_30
REMARK                            x       y       z     vdW  Elec       q    Type
REMARK                         _______ _______ _______ _____ _____    ______ ____
ROOT
ATOM      8  C   UNL     1      22.324  13.474  20.991  0.00  0.00    +0.081 A 
ATOM      9  N   UNL     1      21.488  12.651  21.668  0.00  0.00    -0.214 NA
ATOM     10  C   UNL     1      20.208  13.033  21.881  0.00  0.00    +0.220 A 
ATOM     11  N   UNL     1      19.747  14.224  21.428  0.00  0.00    -0.199 NA
ATOM     12  C   UNL     1      20.572  15.059  20.749  0.00  0.00    +0.129 A 
ATOM     13  N   UNL     1      20.037  16.282  20.309  0.00  0.00    -0.299 N 
ATOM     14  H   UNL     1      20.652  16.760  19.575  0.00  0.00    +0.154 HD
ATOM     25  N   UNL     1      19.344  12.186  22.568  0.00  0.00    -0.295 N 
ATOM     26  C   UNL     1      19.815  10.943  23.178  0.00  0.00    +0.136 C 
ATOM     27  C   UNL     1      19.200  10.774  24.562  0.00  0.00    +0.178 C 
ATOM     28  O   UNL     1      17.778  10.877  24.483  0.00  0.00    -0.377 OA
ATOM     29  C   UNL     1      17.409  12.199  24.088  0.00  0.00    +0.178 C 
ATOM     30  C   UNL     1      17.919  12.494  22.682  0.00  0.00    +0.136 C 
ATOM     31  C   UNL     1      21.888  14.701  20.513  0.00  0.00    +0.072 A 
ENDROOT
BRANCH   8   7
ATOM      1  N   UNL     1      27.555  11.549  20.298  0.00  0.00    -0.328 N 
ATOM      2  H   UNL     1      27.886  10.693  20.848  0.00  0.00    +0.145 HD
ATOM      3  H   UNL     1      28.220  12.038  19.617  0.00  0.00    +0.145 HD
ATOM      4  C   UNL     1      26.265  12.025  20.468  0.00  0.00    +0.212 A 
ATOM      5  N   UNL     1      25.452  11.385  21.336  0.00  0.00    -0.222 NA
ATOM      6  C   UNL     1      24.198  11.875  21.477  0.00  0.00    +0.126 A 
ATOM      7  C   UNL     1      23.696  12.979  20.803  0.00  0.00    +0.037 A 
ATOM     32  C   UNL     1      24.620  13.552  19.943  0.00  0.00    +0.126 A 
ATOM     33  N   UNL     1      25.884  13.107  19.757  0.00  0.00    -0.222 NA
ENDBRANCH   8   7
BRANCH  13  15
ATOM     15  C   UNL     1      18.880  17.023  20.611  0.00  0.00    +0.036 A 
ATOM     16  C   UNL     1      18.711  18.269  19.980  0.00  0.00    +0.072 A 
ATOM     17  C   UNL     1      17.588  19.069  20.230  0.00  0.00    +0.163 A 
ATOM     18  C   UNL     1      16.605  18.622  21.129  0.00  0.00    +0.162 A 
ATOM     21  C   UNL     1      16.765  17.386  21.759  0.00  0.00    +0.051 A 
ATOM     24  C   UNL     1      17.891  16.599  21.502  0.00  0.00    +0.027 A 
BRANCH  18  19
ATOM     19  O   UNL     1      15.537  19.464  21.316  0.00  0.00    -0.491 OA
ATOM     20  C   UNL     1      14.461  18.987  22.115  0.00  0.00    +0.277 C 
ENDBRANCH  18  19
BRANCH  17  22
ATOM     22  O   UNL     1      17.355  20.294  19.651  0.00  0.00    -0.491 OA
ATOM     23  C   UNL     1      18.277  20.742  18.665  0.00  0.00    +0.277 C 
ENDBRANCH  17  22
ENDBRANCH  13  15
TORSDOF 4
