REMARK  Name = 6QA4
REMARK  0 active torsions:
REMARK  status: ('A' for Active; 'I' for Inactive)
REMARK                            x       y       z     vdW  Elec       q    Type
REMARK                         _______ _______ _______ _____ _____    ______ ____
ROOT
ATOM      1  C   UNL     1      12.173   6.891  44.076  0.00  0.00    +0.600 A 
ATOM      2  N   UNL     1      11.859   5.667  44.596  0.00  0.00    -0.300 NA
ATOM      3  C   UNL     1      10.608   5.324  44.989  0.00  0.00    -0.100 A 
ATOM      4  C   UNL     1       9.589   6.215  44.887  0.00  0.00    -0.100 A 
ATOM      5  C   UNL     1       9.837   7.478  44.380  0.00  0.00    -0.100 A 
ATOM      6  O   UNL     1      13.353   7.124  43.731  0.00  0.00    -0.550 OA
ATOM      7  C   UNL     1      11.089   7.811  43.978  0.00  0.00    -0.100 A 
ENDROOT
TORSDOF 0
