REMARK  Name = 1YXX
REMARK  2 active torsions:
REMARK  status: ('A' for Active; 'I' for Inactive)
REMARK    1  A    between atoms: C_8  and  N_13
REMARK    2  A    between atoms: N_13  and  C_14
REMARK                            x       y       z     vdW  Elec       q    Type
REMARK                         _______ _______ _______ _____ _____    ______ ____
ROOT
ATOM      1  C   UNL     1      73.977  36.320   2.649  0.00  0.00    +0.008 C 
ATOM      2  C   UNL     1      73.788  37.174   3.732  0.00  0.00    -0.022 C 
ATOM      3  C   UNL     1      73.404  38.515   3.530  0.00  0.00    +0.056 C 
ATOM      4  C   UNL     1      73.195  39.050   2.241  0.00  0.00    +0.001 C 
ATOM      5  C   UNL     1      73.365  38.240   1.102  0.00  0.00    +0.039 C 
ATOM      6  N   UNL     1      73.224  38.485  -0.277  0.00  0.00    -0.280 N 
ATOM      7  H   UNL     1      72.935  39.408  -0.734  0.00  0.00    +0.155 HD
ATOM      8  C   UNL     1      73.527  37.320  -0.920  0.00  0.00    +0.263 C 
ATOM      9  C   UNL     1      73.879  36.220   0.058  0.00  0.00    +0.100 C 
ATOM     19  O   UNL     1      73.478  37.238  -2.210  0.00  0.00    -0.269 OA
ATOM     20  C   UNL     1      73.770  36.852   1.379  0.00  0.00    +0.022 C 
ENDROOT
BRANCH   9  10
ATOM     10  N   UNL     1      74.301  34.922  -0.034  0.00  0.00    -0.325 N 
ATOM     11  H   UNL     1      74.615  34.501   0.898  0.00  0.00    +0.147 HD
BRANCH  10  12
ATOM     12  C   UNL     1      74.400  34.040  -1.117  0.00  0.00    +0.099 C 
ATOM     13  C   UNL     1      73.935  34.391  -2.384  0.00  0.00    +0.009 C 
ATOM     14  C   UNL     1      73.961  33.455  -3.408  0.00  0.00    +0.049 C 
ATOM     15  C   UNL     1      74.422  32.163  -3.196  0.00  0.00    +0.178 C 
ATOM     16  O   UNL     1      74.395  31.352  -4.230  0.00  0.00    -0.288 OA
ATOM     17  C   UNL     1      74.872  31.776  -1.922  0.00  0.00    +0.049 C 
ATOM     18  C   UNL     1      74.838  32.722  -0.878  0.00  0.00    +0.009 C 
ENDBRANCH  10  12
ENDBRANCH   9  10
TORSDOF 2
