REMARK  Name = 3qar_ligand
REMARK  2 active torsions:
REMARK  status: ('A' for Active; 'I' for Inactive)
REMARK    1  A    between atoms: C12_13  and  N6_14
REMARK    2  A    between atoms: C3_20  and  C11_21
REMARK                            x       y       z     vdW  Elec       q    Type
REMARK                         _______ _______ _______ _____ _____    ______ ____
ROOT
ATOM      1  N   UNL     1      19.680  12.281  24.259  0.00  0.00    -0.242 NA
ATOM      2  C   UNL     1      19.079  13.246  23.551  0.00  0.00    +0.182 A 
ATOM      3  N   UNL     1      17.764  13.365  23.638  0.00  0.00    -0.301 N 
ATOM      4  H   UNL     1      17.233  12.733  24.237  0.00  0.00    +0.186 HD
ATOM      5  H   UNL     1      17.281  14.089  23.106  0.00  0.00    +0.186 HD
ATOM      6  N   UNL     1      19.801  14.072  22.765  0.00  0.00    -0.212 NA
ATOM      7  C   UNL     1      21.138  13.939  22.685  0.00  0.00    +0.237 A 
ATOM      8  N   UNL     1      21.891  14.740  21.913  0.00  0.00    -0.131 N 
ATOM      9  C   UNL     1      23.124  14.451  21.478  0.00  0.00    +0.266 A 
ATOM     10  N   UNL     1      23.579  15.457  20.738  0.00  0.00    -0.299 NA
ATOM     11  C   UNL     1      22.637  16.397  20.701  0.00  0.00    +0.021 A 
ATOM     12  C   UNL     1      22.592  17.650  20.084  0.00  0.00    -0.014 A 
ATOM     13  C   UNL     1      21.456  18.452  20.211  0.00  0.00    -0.027 A 
ATOM     14  C   UNL     1      20.361  18.001  20.960  0.00  0.00    -0.025 A 
ATOM     15  C   UNL     1      20.410  16.749  21.580  0.00  0.00    +0.016 A 
ATOM     16  N   UNL     1      23.777  13.310  21.759  0.00  0.00    -0.195 N 
ATOM     17  H   UNL     1      23.226  12.583  22.215  0.00  0.00    +0.228 HD
ATOM     24  C   UNL     1      21.551  15.945  21.452  0.00  0.00    +0.105 A 
ATOM     25  N   UNL     1      21.733  12.974  23.402  0.00  0.00    -0.232 NA
ATOM     26  C   UNL     1      21.008  12.155  24.179  0.00  0.00    +0.088 A 
ATOM     27  C   UNL     1      21.699  11.071  24.981  0.00  0.00    +0.148 C 
ENDROOT
BRANCH  16  18
ATOM     18  C   UNL     1      25.065  13.004  21.516  0.00  0.00    +0.182 A 
ATOM     19  N   UNL     1      25.904  13.598  20.670  0.00  0.00    -0.202 N 
ATOM     20  H   UNL     1      25.684  14.400  20.080  0.00  0.00    +0.252 HD
ATOM     21  N   UNL     1      26.994  13.017  20.718  0.00  0.00    -0.243 NA
ATOM     22  C   UNL     1      26.930  12.011  21.591  0.00  0.00    +0.035 A 
ATOM     23  C   UNL     1      25.704  11.997  22.102  0.00  0.00    -0.009 A 
ENDBRANCH  16  18
TORSDOF 1
