REMARK  Name = 2rg5_ligand
REMARK  9 active torsions:
REMARK  status: ('A' for Active; 'I' for Inactive)
REMARK    1  A    between atoms: C5_5  and  C13_13
REMARK    2  A    between atoms: C6_6  and  C14_14
REMARK    3  A    between atoms: C7_7  and  C15_15
REMARK    4  A    between atoms: C8_8  and  C16_16
REMARK    5  A    between atoms: C9_9  and  N23_23
REMARK    6  A    between atoms: C17_17  and  C19_19
REMARK    7  A    between atoms: C18_18  and  O28_28
REMARK    8  A    between atoms: C19_19  and  N24_24
REMARK    9  A    between atoms: N25_25  and  O28_28
REMARK                            x       y       z     vdW  Elec       q    Type
REMARK                         _______ _______ _______ _____ _____    ______ ____
ROOT
ATOM     11  N   UNL     1      -2.903  -2.466  17.327  0.00  0.00    -0.248 N 
ATOM     12  H   UNL     1      -2.911  -3.488  17.196  0.00  0.00    +0.219 HD
ATOM     13  C   UNL     1      -2.532  -1.959  18.548  0.00  0.00    +0.167 A 
ATOM     14  N   UNL     1      -2.492  -0.670  18.805  0.00  0.00    -0.278 NA
ATOM     15  C   UNL     1      -2.130  -0.214  20.054  0.00  0.00    +0.179 A 
ATOM     16  N   UNL     1      -1.794  -0.958  21.064  0.00  0.00    -0.169 NA
ATOM     17  N   UNL     1      -1.818  -2.302  20.800  0.00  0.00    -0.165 N 
ATOM     18  C   UNL     1      -1.486  -3.300  21.671  0.00  0.00    +0.163 A 
ATOM     19  C   UNL     1      -1.632  -4.517  21.030  0.00  0.00    +0.043 A 
ATOM     26  C   UNL     1      -2.056  -4.237  19.685  0.00  0.00    -0.021 A 
ATOM     27  C   UNL     1      -2.350  -5.238  18.619  0.00  0.00    +0.059 C 
ATOM     28  C   UNL     1      -2.159  -2.857  19.599  0.00  0.00    +0.154 A 
ENDROOT
BRANCH  11  10
ATOM      1  C   UNL     1      -3.885  -0.019  14.080  0.00  0.00    -0.004 A 
ATOM      2  C   UNL     1      -2.543  -0.352  14.335  0.00  0.00    +0.035 A 
ATOM      9  C   UNL     1      -2.260  -1.168  15.419  0.00  0.00    +0.033 A 
ATOM     10  C   UNL     1      -3.270  -1.646  16.255  0.00  0.00    +0.075 A 
ATOM     29  C   UNL     1      -4.609  -1.315  16.019  0.00  0.00    -0.016 A 
ATOM     30  C   UNL     1      -5.680  -1.845  16.927  0.00  0.00    +0.083 C 
ATOM     31  C   UNL     1      -4.914  -0.495  14.919  0.00  0.00    -0.009 A 
BRANCH   2   3
ATOM      3  C   UNL     1      -1.357   0.070  13.529  0.00  0.00    +0.220 C 
ATOM      4  O   UNL     1      -0.285  -0.487  13.761  0.00  0.00    -0.388 OA
ATOM      5  N   UNL     1      -1.508   1.053  12.564  0.00  0.00    -0.162 N 
ATOM      6  H   UNL     1      -2.365   1.246  12.086  0.00  0.00    +0.221 HD
BRANCH   5   7
ATOM      7  O   UNL     1      -0.281   1.759  12.337  0.00  0.00    -0.260 OA
ATOM      8  C   UNL     1       0.278   1.367  11.085  0.00  0.00    +0.234 C 
ENDBRANCH   5   7
ENDBRANCH   2   3
ENDBRANCH  11  10
BRANCH  19  20
ATOM     20  C   UNL     1      -1.353  -5.808  21.640  0.00  0.00    +0.180 C 
ATOM     21  O   UNL     1      -1.767  -6.869  21.184  0.00  0.00    -0.399 OA
ATOM     22  N   UNL     1      -0.561  -5.708  22.764  0.00  0.00    -0.291 N 
ATOM     23  H   UNL     1      -0.258  -4.804  23.065  0.00  0.00    +0.184 HD
BRANCH  22  24
ATOM     24  C   UNL     1      -0.157  -6.867  23.518  0.00  0.00    +0.130 C 
ATOM     25  C   UNL     1       1.125  -7.427  22.923  0.00  0.00    +0.030 C 
ENDBRANCH  22  24
ENDBRANCH  19  20
TORSDOF 5
