REMARK  Name = 2IWI
REMARK  1 active torsions:
REMARK  status: ('A' for Active; 'I' for Inactive)
REMARK    1  A    between atoms: C_2  and  RU_3
REMARK                            x       y       z     vdW  Elec       q    Type
REMARK                         _______ _______ _______ _____ _____    ______ ____
ROOT
ATOM      3 RU   UNL     1      -6.120  58.385  -0.889  0.00  0.00    +0.000 Ru
ATOM      4  N   UNL     1      -7.273  59.936  -1.657  0.00  0.00    +0.000 N 
ATOM      5  C   UNL     1      -7.909  60.584  -0.691  0.00  0.00    +0.000 A 
ATOM      6  C   UNL     1      -7.781  60.216   0.653  0.00  0.00    +0.000 A 
ATOM      7  C   UNL     1      -8.461  60.923   1.656  0.00  0.00    +0.000 A 
ATOM      8  C   UNL     1      -8.281  60.492   2.983  0.00  0.00    +0.000 C 
ATOM      9  C   UNL     1      -7.453  59.416   3.212  0.00  0.00    +0.000 C 
ATOM     10  C   UNL     1      -6.802  58.765   2.155  0.00  0.00    +0.000 C 
ATOM     11  C   UNL     1      -9.255  61.999   1.196  0.00  0.00    +0.000 A 
ATOM     12  C   UNL     1     -10.069  62.912   1.988  0.00  0.00    +0.000 A 
ATOM     13  O   UNL     1     -10.231  62.936   3.188  0.00  0.00    +0.000 OA
ATOM     14  N   UNL     1     -10.659  63.796   1.085  0.00  0.00    +0.000 N 
ATOM     15  H   UNL     1     -11.319  64.590   1.366  0.00  0.00    +0.000 HD
ATOM     16  C   UNL     1     -10.285  63.519  -0.228  0.00  0.00    +0.000 A 
ATOM     17  O   UNL     1     -10.638  64.115  -1.208  0.00  0.00    +0.000 OA
ATOM     18  C   UNL     1      -9.368  62.345  -0.147  0.00  0.00    +0.000 A 
ATOM     19  C   UNL     1      -8.695  61.653  -1.149  0.00  0.00    +0.000 A 
ATOM     20  C   UNL     1      -8.509  61.639  -2.569  0.00  0.00    +0.000 A 
ATOM     21  C   UNL     1      -8.991  62.410  -3.630  0.00  0.00    +0.000 A 
ATOM     22  C   UNL     1      -8.578  62.075  -4.911  0.00  0.00    +0.000 A 
ATOM     23  C   UNL     1      -7.694  60.998  -5.145  0.00  0.00    +0.000 A 
ATOM     24  C   UNL     1      -7.198  60.220  -4.113  0.00  0.00    +0.000 A 
ATOM     25  C   UNL     1      -7.618  60.550  -2.827  0.00  0.00    +0.000 A 
ATOM     26  N   UNL     1      -6.975  59.153   0.886  0.00  0.00    +0.000 N 
ATOM     27  C   UNL     1      -4.291  57.476  -0.135  0.00  0.00    +0.000 C 
ATOM     28  C   UNL     1      -4.026  58.874  -0.291  0.00  0.00    +0.000 C 
ATOM     29  C   UNL     1      -4.190  59.172  -1.662  0.00  0.00    +0.000 C 
ATOM     30  C   UNL     1      -4.552  57.988  -2.352  0.00  0.00    +0.000 C 
ATOM     31  C   UNL     1      -4.596  56.951  -1.397  0.00  0.00    +0.000 C 
ENDROOT
BRANCH   3   2
ATOM      1  O   UNL     1      -8.250  56.380  -1.489  0.00  0.00    +0.000 OA
ATOM      2  C   UNL     1      -7.471  57.169  -1.203  0.00  0.00    +0.000 C 
ENDBRANCH   3   2
TORSDOF 1
