REMARK  Name = 5KZ0
REMARK  11 active torsions:
REMARK  status: ('A' for Active; 'I' for Inactive)
REMARK    1  A    between atoms: C_7  and  C_8
REMARK    2  A    between atoms: C_9  and  C_15
REMARK    3  A    between atoms: C_10  and  C_21
REMARK    4  A    between atoms: C_11  and  O_28
REMARK    5  A    between atoms: C_13  and  C_16
REMARK    6  A    between atoms: C_14  and  N_25
REMARK    7  A    between atoms: C_17  and  C_21
REMARK    8  A    between atoms: C_18  and  N_24
REMARK    9  A    between atoms: C_19  and  N_26
REMARK   10  A    between atoms: C_20  and  N_26
REMARK   11  A    between atoms: C_21  and  O_28
REMARK                            x       y       z     vdW  Elec       q    Type
REMARK                         _______ _______ _______ _____ _____    ______ ____
ROOT
ATOM     11  C   UNL     1      29.951  44.262   9.060  0.00  0.00    +0.161 A 
ATOM     12  C   UNL     1      28.874  43.965   9.937  0.00  0.00    +0.158 A 
ATOM     16  N   UNL     1      27.789  44.816  10.059  0.00  0.00    -0.236 NA
ATOM     17  C   UNL     1      27.753  45.974   9.315  0.00  0.00    +0.121 A 
ATOM     18  C   UNL     1      28.761  46.371   8.413  0.00  0.00    +0.003 A 
ATOM     27  C   UNL     1      29.866  45.472   8.311  0.00  0.00    +0.059 A 
ENDROOT
BRANCH  18  19
ATOM     19  C   UNL     1      28.699  47.626   7.627  0.00  0.00    -0.005 C 
ATOM     20  C   UNL     1      27.642  48.551   7.253  0.00  0.00    +0.021 C 
ATOM     21  N   UNL     1      28.106  49.566   6.517  0.00  0.00    -0.282 N 
ATOM     22  H   UNL     1      27.554  50.387   6.108  0.00  0.00    +0.166 HD
ATOM     23  N   UNL     1      29.419  49.322   6.408  0.00  0.00    -0.228 NA
ATOM     24  C   UNL     1      30.259  50.233   5.663  0.00  0.00    +0.128 C 
ATOM     25  C   UNL     1      26.186  48.544   7.552  0.00  0.00    +0.062 C 
ATOM     26  C   UNL     1      29.821  48.196   7.041  0.00  0.00    +0.142 C 
ENDBRANCH  18  19
BRANCH  12  13
ATOM     13  N   UNL     1      28.899  42.781  10.709  0.00  0.00    -0.340 N 
ATOM     14  H   UNL     1      28.088  42.556  11.370  0.00  0.00    +0.144 HD
ATOM     15  H   UNL     1      29.729  42.110  10.632  0.00  0.00    +0.144 HD
ENDBRANCH  12  13
BRANCH  11  10
ATOM     10  O   UNL     1      30.977  43.330   9.040  0.00  0.00    -0.481 OA
BRANCH  10   9
ATOM      9  C   UNL     1      32.167  43.455   8.223  0.00  0.00    +0.202 C 
ATOM     28  C   UNL     1      32.738  42.031   8.153  0.00  0.00    +0.057 C 
BRANCH   9   8
ATOM      1  C   UNL     1      34.782  46.375   8.759  0.00  0.00    +0.016 A 
ATOM      2  C   UNL     1      33.862  45.497   8.102  0.00  0.00    +0.044 A 
ATOM      8  C   UNL     1      33.181  44.444   8.836  0.00  0.00    +0.007 A 
ATOM     29  C   UNL     1      33.482  44.336  10.236  0.00  0.00    +0.046 A 
ATOM     30  C   UNL     1      34.393  45.211  10.858  0.00  0.00    +0.124 A 
ATOM     31  F   UNL     1      34.639  45.070  12.156  0.00  0.00    -0.205 F 
ATOM     32  C   UNL     1      35.042  46.226  10.136  0.00  0.00    +0.039 A 
BRANCH   2   3
ATOM      3  C   UNL     1      33.687  45.774   6.643  0.00  0.00    +0.247 C 
ATOM      4  O   UNL     1      32.826  46.608   6.355  0.00  0.00    -0.270 OA
ATOM      5  N   UNL     1      34.506  45.089   5.699  0.00  0.00    -0.304 N 
ATOM      6  C   UNL     1      35.544  44.091   5.994  0.00  0.00    +0.132 C 
ATOM      7  C   UNL     1      34.341  45.381   4.279  0.00  0.00    +0.132 C 
ENDBRANCH   2   3
ENDBRANCH   9   8
ENDBRANCH  10   9
ENDBRANCH  11  10
TORSDOF 6
