REMARK  Name = 2xp4_ligand
REMARK  2 active torsions:
REMARK  status: ('A' for Active; 'I' for Inactive)
REMARK    1  A    between atoms: C12_2  and  C10_4
REMARK    2  A    between atoms: C7_7  and  C6_9
REMARK                            x       y       z     vdW  Elec       q    Type
REMARK                         _______ _______ _______ _____ _____    ______ ____
ROOT
ATOM      3  CA  UNL     1     -36.867  27.021  25.503  0.00  0.00    +0.108 A 
ATOM      4  N   UNL     1     -35.666  26.629  25.947  0.00  0.00    -0.251 N 
ATOM      5  H   UNL     1     -35.203  26.882  26.831  0.00  0.00    +0.238 HD
ATOM      6  C   UNL     1     -35.199  25.818  24.958  0.00  0.00    +0.140 A 
ATOM     13  N   UNL     1     -36.091  25.804  23.948  0.00  0.00    -0.317 NA
ATOM     14  C   UNL     1     -37.127  26.582  24.241  0.00  0.00    +0.052 A 
ENDROOT
BRANCH   6   7
ATOM      7  C   UNL     1     -34.009  25.107  24.958  0.00  0.00    +0.028 A 
ATOM      8  C   UNL     1     -33.409  24.717  26.175  0.00  0.00    +0.016 A 
ATOM      9  C   UNL     1     -32.184  24.012  26.146  0.00  0.00    +0.003 A 
ATOM     10  C   UNL     1     -31.592  23.685  24.906  0.00  0.00    +0.002 A 
ATOM     11  C   UNL     1     -32.204  24.069  23.692  0.00  0.00    +0.003 A 
ATOM     12  C   UNL     1     -33.400  24.821  23.731  0.00  0.00    +0.016 A 
ENDBRANCH   6   7
BRANCH   3   2
ATOM      1  O   UNL     1     -38.661  28.581  25.662  0.00  0.00    -0.561 OA
ATOM      2  C   UNL     1     -37.774  28.039  26.279  0.00  0.00    +0.085 C 
ATOM     15  OXT UNL     1     -37.626  28.296  27.492  0.00  0.00    -0.561 OA
ENDBRANCH   3   2
TORSDOF 2
