REMARK  Name = G4Y
REMARK  3 active torsions:
REMARK  status: ('A' for Active; 'I' for Inactive)
REMARK    1  A    between atoms: C9_6  and  N4_26
REMARK    2  A    between atoms: C16_13  and  C15_24
REMARK    3  A    between atoms: C1_15  and  C10_19
REMARK                            x       y       z     vdW  Elec       q    Type
REMARK                         _______ _______ _______ _____ _____    ______ ____
ROOT
ATOM      1  N   UNL     1       1.257  12.154  -3.569  0.00  0.00    -0.034 NA
ATOM      2  C   UNL     1       1.494  13.496  -3.591  0.00  0.00    +0.363 C 
ATOM      3  N   UNL     1       2.644  14.119  -3.256  0.00  0.00    -0.012 NA
ATOM      4  C   UNL     1       2.598  15.445  -3.411  0.00  0.00    +0.339 C 
ATOM      5  N   UNL     1       1.569  16.200  -3.815  0.00  0.00    -0.203 NA
ATOM      6  C   UNL     1       0.415  15.589  -4.135  0.00  0.00    +0.079 C 
ATOM     19  C   UNL     1       0.306  14.182  -4.100  0.00  0.00    +0.178 C 
ATOM     20  C   UNL     1      -0.632  13.105  -4.425  0.00  0.00    +0.042 C 
ATOM     27  C   UNL     1       0.000  11.907  -4.071  0.00  0.00    +0.232 C 
ENDROOT
BRANCH   6   7
ATOM      7  C   UNL     1      -0.715  16.494  -4.478  0.00  0.00    +0.014 A 
ATOM      8  C   UNL     1      -2.013  16.238  -4.027  0.00  0.00    +0.001 A 
ATOM      9  C   UNL     1      -3.079  17.018  -4.438  0.00  0.00    -0.004 A 
ATOM     10  C   UNL     1      -2.867  18.106  -5.292  0.00  0.00    -0.025 A 
ATOM     11  C   UNL     1      -1.563  18.428  -5.707  0.00  0.00    -0.006 A 
ATOM     12  C   UNL     1      -1.576  19.713  -6.437  0.00  0.00    +0.116 C 
ATOM     13  C   UNL     1      -3.074  19.881  -6.692  0.00  0.00    +0.031 C 
ATOM     17  C   UNL     1      -3.768  18.997  -5.980  0.00  0.00    +0.028 C 
ATOM     18  C   UNL     1      -0.507  17.608  -5.298  0.00  0.00    -0.002 A 
BRANCH  12  14
ATOM     14  N   UNL     1      -0.646  19.723  -7.562  0.00  0.00    -0.214 NA
ATOM     15  C   UNL     1       0.038  20.916  -7.873  0.00  0.00    +0.204 C 
ATOM     16  N   UNL     1      -0.029  22.104  -7.283  0.00  0.00    -0.127 NA
ENDBRANCH  12  14
ENDBRANCH   6   7
BRANCH  20  21
ATOM     21  C   UNL     1      -1.961  13.209  -5.093  0.00  0.00    +0.001 A 
ATOM     22  C   UNL     1      -3.068  12.512  -4.594  0.00  0.00    -0.000 A 
ATOM     23  C   UNL     1      -4.310  12.634  -5.206  0.00  0.00    -0.000 A 
ATOM     24  C   UNL     1      -4.468  13.453  -6.302  0.00  0.00    -0.000 A 
ATOM     25  C   UNL     1      -3.383  14.143  -6.809  0.00  0.00    -0.000 A 
ATOM     26  C   UNL     1      -2.130  14.016  -6.216  0.00  0.00    -0.000 A 
ENDBRANCH  20  21
TORSDOF 3
