REMARK  Name = 5OPR
REMARK  8 active torsions:
REMARK  status: ('A' for Active; 'I' for Inactive)
REMARK    1  A    between atoms: C_2  and  C_4
REMARK    2  A    between atoms: N_3  and  C_4
REMARK    3  A    between atoms: C_4  and  C_6
REMARK    4  A    between atoms: C_10  and  C_12
REMARK    5  A    between atoms: N_11  and  C_17
REMARK    6  A    between atoms: N_13  and  C_24
REMARK    7  A    between atoms: C_15  and  C_18
REMARK    8  A    between atoms: C_21  and  C_24
REMARK                            x       y       z     vdW  Elec       q    Type
REMARK                         _______ _______ _______ _____ _____    ______ ____
ROOT
ATOM     12  C   UNL     1       2.463  -3.198  19.773  0.00  0.00    +0.001 A 
ATOM     13  C   UNL     1       2.892  -2.084  20.454  0.00  0.00    +0.121 A 
ATOM     14  N   UNL     1       4.152  -1.644  20.314  0.00  0.00    -0.239 NA
ATOM     15  C   UNL     1       5.019  -2.268  19.523  0.00  0.00    +0.126 A 
ATOM     16  C   UNL     1       4.641  -3.425  18.808  0.00  0.00    +0.044 A 
ATOM     28  C   UNL     1       3.349  -3.887  18.937  0.00  0.00    +0.023 A 
ENDROOT
BRANCH  12  10
ATOM      7  C   UNL     1      -1.602  -4.472  20.304  0.00  0.00    -0.033 A 
ATOM      8  C   UNL     1      -1.134  -3.300  20.899  0.00  0.00    +0.005 A 
ATOM      9  C   UNL     1       0.177  -2.886  20.725  0.00  0.00    +0.009 A 
ATOM     10  C   UNL     1       1.057  -3.644  19.953  0.00  0.00    -0.016 A 
ATOM     11  C   UNL     1       0.584  -4.817  19.320  0.00  0.00    +0.009 A 
ATOM     29  C   UNL     1      -0.743  -5.231  19.516  0.00  0.00    +0.005 A 
BRANCH   7   6
ATOM      6  C   UNL     1      -3.052  -4.913  20.500  0.00  0.00    +0.119 C 
BRANCH   6   4
ATOM      1  O   UNL     1      -3.520  -8.959  19.324  0.00  0.00    -0.377 OA
ATOM      2  C   UNL     1      -3.709  -7.946  18.309  0.00  0.00    +0.175 C 
ATOM      3  C   UNL     1      -4.080  -6.606  18.954  0.00  0.00    +0.113 C 
ATOM      4  N   UNL     1      -3.113  -6.304  20.020  0.00  0.00    -0.294 NA
ATOM      5  C   UNL     1      -3.022  -7.345  21.047  0.00  0.00    +0.113 C 
ATOM     30  C   UNL     1      -2.530  -8.589  20.319  0.00  0.00    +0.175 C 
ENDBRANCH   6   4
ENDBRANCH   7   6
ENDBRANCH  12  10
BRANCH  16  17
ATOM     17  C   UNL     1       5.525  -4.105  17.838  0.00  0.00    +0.116 A 
ATOM     18  C   UNL     1       5.110  -5.055  16.939  0.00  0.00    +0.139 A 
ATOM     19  N   UNL     1       6.171  -5.396  16.212  0.00  0.00    -0.249 N 
ATOM     20  N   UNL     1       7.193  -4.633  16.547  0.00  0.00    -0.065 NA
ATOM     24  N   UNL     1       6.779  -3.827  17.512  0.00  0.00    -0.129 NA
BRANCH  19  21
ATOM     21  C   UNL     1       6.160  -6.413  15.101  0.00  0.00    +0.103 C 
ATOM     22  C   UNL     1       6.080  -5.599  13.812  0.00  0.00    +0.032 C 
ATOM     23  C   UNL     1       4.833  -7.216  15.062  0.00  0.00    +0.032 C 
ENDBRANCH  19  21
ENDBRANCH  16  17
BRANCH  15  25
ATOM     25  N   UNL     1       6.250  -1.693  19.455  0.00  0.00    -0.343 N 
ATOM     26  H   UNL     1       7.011  -2.129  18.842  0.00  0.00    +0.144 HD
ATOM     27  H   UNL     1       6.457  -0.805  20.015  0.00  0.00    +0.144 HD
ENDBRANCH  15  25
TORSDOF 6
