REMARK  Name = 6Q48
REMARK  0 active torsions:
REMARK  status: ('A' for Active; 'I' for Inactive)
REMARK                            x       y       z     vdW  Elec       q    Type
REMARK                         _______ _______ _______ _____ _____    ______ ____
ROOT
ATOM      1  C   UNL     1       2.844  -6.815 -27.647  0.00  0.00    -0.100 A 
ATOM      2  C   UNL     1       1.624  -6.341 -27.161  0.00  0.00    +0.000 A 
ATOM      3  I   UNL     1       0.362  -7.576 -26.054  0.00  0.00    +0.000 I 
ATOM      4  C   UNL     1       1.213  -5.064 -27.457  0.00  0.00    -0.100 A 
ATOM      5  C   UNL     1       2.078  -4.185 -28.156  0.00  0.00    +0.600 A 
ATOM      6  O   UNL     1       1.838  -3.033 -28.370  0.00  0.00    -0.550 OA
ATOM      7  N   UNL     1       3.263  -4.706 -28.597  0.00  0.00    -0.400 NA
ATOM      8  C   UNL     1       3.662  -5.969 -28.317  0.00  0.00    +0.000 A 
ENDROOT
TORSDOF 0
