REMARK  Name = A9O
REMARK  2 active torsions:
REMARK  status: ('A' for Active; 'I' for Inactive)
REMARK    1  A    between atoms: C6_5  and  C7_9
REMARK    2  A    between atoms: C3_6  and  C2_7
REMARK                            x       y       z     vdW  Elec       q    Type
REMARK                         _______ _______ _______ _____ _____    ______ ____
ROOT
ATOM      1  C   UNL     1      18.659   9.062  -6.901  0.00  0.00    +0.056 C 
ATOM      2  C   UNL     1      19.640   8.964  -8.024  0.00  0.00    +0.101 A 
ATOM      3  N   UNL     1      20.787   8.380  -7.809  0.00  0.00    -0.082 NA
ATOM      4  O   UNL     1      21.490   8.442  -9.048  0.00  0.00    -0.358 OA
ATOM      5  C   UNL     1      20.701   9.069  -9.941  0.00  0.00    +0.154 A 
ATOM      8  C   UNL     1      19.536   9.417  -9.353  0.00  0.00    +0.050 A 
ENDROOT
BRANCH   8   9
ATOM      9  C   UNL     1      18.403  10.126 -10.001  0.00  0.00    +0.004 A 
ATOM     10  C   UNL     1      17.113   9.600  -9.927  0.00  0.00    +0.000 A 
ATOM     11  C   UNL     1      16.052  10.224 -10.576  0.00  0.00    +0.000 A 
ATOM     12  C   UNL     1      16.278  11.380 -11.309  0.00  0.00    +0.000 A 
ATOM     13  C   UNL     1      17.560  11.907 -11.391  0.00  0.00    +0.000 A 
ATOM     14  C   UNL     1      18.618  11.289 -10.735  0.00  0.00    +0.000 A 
ENDBRANCH   8   9
BRANCH   5   6
ATOM      6  C   UNL     1      21.269   9.240 -11.309  0.00  0.00    +0.067 C 
ATOM      7  C   UNL     1      22.013   8.020 -11.801  0.00  0.00    +0.009 C 
ENDBRANCH   5   6
TORSDOF 2
