REMARK  Name = 2jdt_ligand
REMARK  10 active torsions:
REMARK  status: ('A' for Active; 'I' for Inactive)
REMARK    1  A    between atoms: C5_5  and  C6_6
REMARK    2  A    between atoms: C6_6  and  O7_7
REMARK    3  A    between atoms: O7_7  and  C8_8
REMARK    4  A    between atoms: C8_8  and  C9_9
REMARK    5  A    between atoms: C9_9  and  N10_10
REMARK    6  A    between atoms: N10_10  and  C13_11
REMARK    7  A    between atoms: C13_11  and  C14_12
REMARK    8  A    between atoms: C14_12  and  N15_13
REMARK    9  A    between atoms: N15_13  and  S16_14
REMARK   10  A    between atoms: S16_14  and  C19_17
REMARK                            x       y       z     vdW  Elec       q    Type
REMARK                         _______ _______ _______ _____ _____    ______ ____
ROOT
ATOM     14  C   UNL     1       9.555   8.025   3.514  0.00  0.00    +0.172 C 
ENDROOT
BRANCH  14  15
ATOM     15  N   UNL     1       9.051   9.062   4.361  0.00  0.00    -0.242 NA
ATOM     16  H   UNL     1       8.841   8.891   5.324  0.00  0.00    +0.168 HD
BRANCH  15  17
ATOM     17  S   UNL     1       8.833  10.526   3.698  0.00  0.00    +0.071 S 
ATOM     28  O   UNL     1       9.854  10.737   2.746  0.00  0.00    -0.150 OA
ATOM     29  O   UNL     1       8.697  11.380   4.817  0.00  0.00    -0.150 OA
BRANCH  17  18
ATOM     18  C   UNL     1       7.316  10.378   2.845  0.00  0.00    +0.123 A 
ATOM     19  C   UNL     1       6.096  10.320   3.537  0.00  0.00    +0.024 A 
ATOM     20  C   UNL     1       5.980  10.392   4.946  0.00  0.00    +0.042 A 
ATOM     21  C   UNL     1       4.742  10.304   5.525  0.00  0.00    +0.085 A 
ATOM     22  N   UNL     1       3.629  10.170   4.812  0.00  0.00    -0.297 NA
ATOM     23  C   UNL     1       3.665  10.083   3.486  0.00  0.00    +0.107 A 
ATOM     24  C   UNL     1       4.897  10.148   2.796  0.00  0.00    +0.011 A 
ATOM     25  C   UNL     1       4.944  10.072   1.388  0.00  0.00    +0.021 A 
ATOM     26  C   UNL     1       6.146  10.150   0.751  0.00  0.00    +0.011 A 
ATOM     27  C   UNL     1       7.318  10.284   1.477  0.00  0.00    +0.039 A 
ENDBRANCH  17  18
ENDBRANCH  15  17
ENDBRANCH  14  15
BRANCH  14  13
ATOM     13  C   UNL     1      11.007   7.929   3.885  0.00  0.00    +0.150 C 
BRANCH  13  10
ATOM     10  N   UNL     1      11.683   7.323   2.847  0.00  0.00    +0.230 N 
ATOM     11  H   UNL     1      11.848   7.996   2.115  0.00  0.00    +0.202 HD
ATOM     12  H   UNL     1      11.131   6.561   2.485  0.00  0.00    +0.202 HD
BRANCH  10   9
ATOM      9  C   UNL     1      13.010   6.791   3.355  0.00  0.00    +0.158 C 
BRANCH   9   8
ATOM      8  C   UNL     1      14.299   7.697   3.198  0.00  0.00    +0.213 C 
BRANCH   8   7
ATOM      7  O   UNL     1      13.983   9.034   2.751  0.00  0.00    -0.362 OA
BRANCH   7   6
ATOM      6  C   UNL     1      14.832  10.116   3.314  0.00  0.00    +0.227 C 
BRANCH   6   5
ATOM      1 CL   UNL     1      13.231  14.597  -0.226  0.00  0.00    -0.077 Cl
ATOM      2  C   UNL     1      13.697  13.309   0.780  0.00  0.00    +0.033 A 
ATOM      3  C   UNL     1      14.701  12.464   0.353  0.00  0.00    +0.006 A 
ATOM      4  C   UNL     1      15.088  11.422   1.180  0.00  0.00    -0.002 A 
ATOM      5  C   UNL     1      14.457  11.271   2.413  0.00  0.00    -0.017 A 
ATOM     30  C   UNL     1      13.440  12.109   2.811  0.00  0.00    -0.002 A 
ATOM     31  C   UNL     1      13.056  13.147   1.991  0.00  0.00    +0.006 A 
ENDBRANCH   6   5
ENDBRANCH   7   6
ENDBRANCH   8   7
ENDBRANCH   9   8
ENDBRANCH  10   9
ENDBRANCH  13  10
ENDBRANCH  14  13
TORSDOF 10
