REMARK  Name = 54G
REMARK  1 active torsions:
REMARK  status: ('A' for Active; 'I' for Inactive)
REMARK    1  A    between atoms: C6_3  and  C5_4
REMARK                            x       y       z     vdW  Elec       q    Type
REMARK                         _______ _______ _______ _____ _____    ______ ____
ROOT
ATOM      1  C   UNL     1      93.024  16.156 131.504  0.00  0.00    -0.001 A 
ATOM      2  C   UNL     1      92.924  15.843 132.849  0.00  0.00    +0.042 A 
ATOM      3  C   UNL     1      92.739  14.527 133.248  0.00  0.00    +0.202 A 
ATOM      4  O   UNL     1      92.618  14.275 134.583  0.00  0.00    -0.286 OA
ATOM      5  C   UNL     1      92.618  13.515 132.279  0.00  0.00    +0.118 A 
ATOM      9  C   UNL     1      92.740  13.861 130.927  0.00  0.00    +0.006 A 
ATOM     10  C   UNL     1      92.952  15.173 130.524  0.00  0.00    -0.021 A 
ATOM     11  C   UNL     1      93.177  15.506 129.075  0.00  0.00    +0.031 C 
ENDROOT
BRANCH   5   6
ATOM      6  C   UNL     1      92.356  12.102 132.696  0.00  0.00    +0.391 C 
ATOM      7  O   UNL     1      92.344  11.779 133.872  0.00  0.00    -0.240 OA
ATOM      8  O   UNL     1      92.164  11.264 131.724  0.00  0.00    -0.240 OA
ENDBRANCH   5   6
TORSDOF 1
