REMARK  Name = 4FKO
REMARK  7 active torsions:
REMARK  status: ('A' for Active; 'I' for Inactive)
REMARK    1  A    between atoms: C_3  and  C_5
REMARK    2  A    between atoms: C_7  and  C_9
REMARK    3  A    between atoms: N_8  and  C_17
REMARK    4  A    between atoms: N_10  and  C_20
REMARK    5  A    between atoms: N_10  and  C_21
REMARK    6  A    between atoms: N_10  and  C_22
REMARK    7  A    between atoms: C_11  and  C_13
REMARK                            x       y       z     vdW  Elec       q    Type
REMARK                         _______ _______ _______ _____ _____    ______ ____
ROOT
ATOM      3  C   UNL     1      -0.382  -4.920  26.538  0.00  0.00    +0.084 A 
ATOM      4  C   UNL     1      -0.096  -3.573  26.714  0.00  0.00    +0.049 A 
ATOM      5  C   UNL     1      -0.956  -2.890  27.554  0.00  0.00    +0.116 A 
ATOM      6  N   UNL     1      -1.987  -3.455  28.199  0.00  0.00    -0.223 NA
ATOM      7  C   UNL     1      -2.177  -4.756  27.957  0.00  0.00    +0.220 A 
ATOM      8  N   UNL     1      -3.234  -5.319  28.581  0.00  0.00    -0.284 N 
ATOM      9  H   UNL     1      -3.715  -4.673  29.286  0.00  0.00    +0.155 HD
ATOM     20  N   UNL     1      -1.407  -5.530  27.153  0.00  0.00    -0.214 NA
ENDROOT
BRANCH   3   2
ATOM      1  S   UNL     1      -0.382  -7.321  25.236  0.00  0.00    -0.071 S 
ATOM      2  C   UNL     1       0.379  -5.807  25.638  0.00  0.00    +0.060 A 
ATOM     21  C   UNL     1       1.568  -5.670  24.916  0.00  0.00    +0.055 A 
ATOM     22  C   UNL     1       2.579  -4.580  25.041  0.00  0.00    +0.067 C 
ATOM     23  N   UNL     1       1.819  -6.725  24.054  0.00  0.00    -0.249 NA
ATOM     24  C   UNL     1       0.906  -7.652  24.118  0.00  0.00    +0.076 A 
ATOM     25  C   UNL     1       0.948  -8.927  23.344  0.00  0.00    +0.074 C 
ENDBRANCH   3   2
BRANCH   8  10
ATOM     10  C   UNL     1      -3.823  -6.593  28.481  0.00  0.00    +0.035 A 
ATOM     11  C   UNL     1      -4.716  -6.950  29.482  0.00  0.00    +0.045 A 
ATOM     12  C   UNL     1      -5.251  -8.219  29.490  0.00  0.00    +0.064 A 
ATOM     13  C   UNL     1      -4.972  -9.133  28.500  0.00  0.00    +0.048 A 
ATOM     14  C   UNL     1      -4.104  -8.768  27.483  0.00  0.00    +0.026 A 
ATOM     18 CL   UNL     1      -6.225  -8.668  30.843  0.00  0.00    -0.082 Cl
ATOM     19  C   UNL     1      -3.530  -7.509  27.477  0.00  0.00    +0.025 A 
BRANCH  13  15
ATOM     15  N   UNL     1      -5.659 -10.450  28.449  0.00  0.00    -0.335 N 
ATOM     16  C   UNL     1      -7.086 -10.330  28.032  0.00  0.00    +0.129 C 
ATOM     17  C   UNL     1      -4.941 -11.469  27.631  0.00  0.00    +0.129 C 
ENDBRANCH  13  15
ENDBRANCH   8  10
TORSDOF 3
