REMARK  Name = 6JE
REMARK  4 active torsions:
REMARK  status: ('A' for Active; 'I' for Inactive)
REMARK    1  A    between atoms: C29_16  and  C52_30
REMARK    2  A    between atoms: C42_24  and  N43_25
REMARK    3  A    between atoms: C45_26  and  C46_27
REMARK    4  A    between atoms: C46_27  and  C49_28
REMARK                            x       y       z     vdW  Elec       q    Type
REMARK                         _______ _______ _______ _____ _____    ______ ____
ROOT
ATOM      1  C   UNL     1      11.395  -3.422   1.595  0.00  0.00    +0.074 C 
ATOM      2  C   UNL     1      12.061  -4.278   0.572  0.00  0.00    +0.148 A 
ATOM      3  N   UNL     1      13.318  -4.189   0.212  0.00  0.00    -0.133 NA
ATOM      4  N   UNL     1      13.584  -5.121  -0.757  0.00  0.00    -0.131 NA
ATOM      5  C   UNL     1      12.470  -5.793  -0.945  0.00  0.00    +0.170 A 
ATOM      6  C   UNL     1      12.172  -6.890  -1.919  0.00  0.00    +0.171 C 
ATOM     18  N   UNL     1      11.214  -6.334  -2.897  0.00  0.00    -0.264 NA
ATOM     19  C   UNL     1       9.978  -6.177  -2.571  0.00  0.00    +0.078 C 
ATOM     20  C   UNL     1       9.489  -6.328  -1.190  0.00  0.00    +0.036 A 
ATOM     21  C   UNL     1      10.159  -5.841  -0.092  0.00  0.00    +0.097 A 
ATOM     22  S   UNL     1       9.308  -6.048   1.372  0.00  0.00    -0.074 S 
ATOM     23  C   UNL     1       7.996  -6.766   0.525  0.00  0.00    +0.005 A 
ATOM     24  C   UNL     1       6.779  -7.209   1.276  0.00  0.00    +0.038 C 
ATOM     25  C   UNL     1       8.212  -6.877  -0.834  0.00  0.00    -0.017 A 
ATOM     26  C   UNL     1       7.242  -7.522  -1.770  0.00  0.00    +0.031 C 
ATOM     34  N   UNL     1      11.468  -5.309  -0.124  0.00  0.00    -0.274 N 
ENDROOT
BRANCH  19  27
ATOM     27  C   UNL     1       9.084  -5.626  -3.616  0.00  0.00    +0.017 A 
ATOM     28  C   UNL     1       7.943  -4.898  -3.268  0.00  0.00    +0.002 A 
ATOM     29  C   UNL     1       7.137  -4.357  -4.255  0.00  0.00    +0.011 A 
ATOM     30  C   UNL     1       7.466  -4.543  -5.596  0.00  0.00    +0.058 A 
ATOM     31  C   UNL     1       8.603  -5.254  -5.954  0.00  0.00    +0.011 A 
ATOM     32 CL   UNL     1       6.442  -3.855  -6.810  0.00  0.00    -0.082 Cl
ATOM     33  C   UNL     1       9.418  -5.788  -4.964  0.00  0.00    +0.002 A 
ENDBRANCH  19  27
BRANCH   6   7
ATOM      7  C   UNL     1      13.387  -7.377  -2.713  0.00  0.00    +0.119 C 
BRANCH   7   8
ATOM      8  C   UNL     1      12.918  -8.497  -3.656  0.00  0.00    +0.248 C 
ATOM      9  O   UNL     1      12.110  -9.316  -3.311  0.00  0.00    -0.273 OA
ATOM     10  N   UNL     1      13.463  -8.471  -4.914  0.00  0.00    -0.179 NA
BRANCH  10  11
ATOM     11  C   UNL     1      13.182  -9.422  -5.924  0.00  0.00    +0.074 A 
ATOM     12  C   UNL     1      13.702 -10.711  -5.868  0.00  0.00    +0.020 A 
ATOM     13  C   UNL     1      13.401 -11.668  -6.848  0.00  0.00    +0.043 A 
ATOM     14  C   UNL     1      12.565 -11.307  -7.895  0.00  0.00    +0.196 A 
ATOM     15  C   UNL     1      12.042 -10.019  -7.988  0.00  0.00    +0.043 A 
ATOM     16  O   UNL     1      12.244 -12.193  -8.881  0.00  0.00    -0.287 OA
ATOM     17  C   UNL     1      12.342  -9.069  -6.993  0.00  0.00    +0.020 A 
ENDBRANCH  10  11
ENDBRANCH   7   8
ENDBRANCH   6   7
TORSDOF 4
