REMARK  Name = 4FX3
REMARK  6 active torsions:
REMARK  status: ('A' for Active; 'I' for Inactive)
REMARK    1  A    between atoms: S_1  and  C_2
REMARK    2  A    between atoms: S_1  and  N_3
REMARK    3  A    between atoms: N_6  and  C_11
REMARK    4  A    between atoms: N_9  and  C_14
REMARK    5  A    between atoms: O_15  and  C_21
REMARK    6  A    between atoms: C_20  and  C_21
REMARK                            x       y       z     vdW  Elec       q    Type
REMARK                         _______ _______ _______ _____ _____    ______ ____
ROOT
ATOM     12  N   UNL     1     -10.097   2.338  38.180  0.00  0.00    -0.098 N 
ATOM     13  H   UNL     1      -9.915   1.406  38.540  0.00  0.00    +0.490 HD
ATOM     14  N   UNL     1      -9.521   2.835  37.059  0.00  0.00    +0.006 NA
ENDROOT
BRANCH  14  15
ATOM     15  C   UNL     1      -8.621   2.124  36.449  0.00  0.00    +0.197 C 
ATOM     16  C   UNL     1      -7.878   2.589  35.263  0.00  0.00    +0.019 C 
ATOM     17  C   UNL     1      -8.006   3.708  34.426  0.00  0.00    +0.023 C 
ATOM     18  C   UNL     1      -7.069   3.832  33.356  0.00  0.00    +0.059 C 
ATOM     23  C   UNL     1      -6.054   2.878  33.172  0.00  0.00    +0.013 C 
ATOM     24  C   UNL     1      -5.931   1.780  34.007  0.00  0.00    +0.007 C 
ATOM     25  C   UNL     1      -6.837   1.627  35.027  0.00  0.00    +0.110 C 
ATOM     26  N   UNL     1      -6.912   0.592  35.957  0.00  0.00    -0.294 N 
ATOM     27  H   UNL     1      -6.291  -0.210  35.976  0.00  0.00    +0.150 HD
ATOM     28  C   UNL     1      -7.981   0.818  36.840  0.00  0.00    +0.270 C 
ATOM     29  O   UNL     1      -8.310   0.040  37.740  0.00  0.00    -0.268 OA
BRANCH  18  19
ATOM     19  C   UNL     1      -7.121   4.974  32.384  0.00  0.00    +0.337 C 
ATOM     22  O   UNL     1      -6.329   5.122  31.449  0.00  0.00    -0.245 OA
BRANCH  19  20
ATOM     20  O   UNL     1      -8.094   5.937  32.505  0.00  0.00    -0.477 OA
ATOM     21  H   UNL     1      -8.011   6.631  31.800  0.00  0.00    +0.295 HD
ENDBRANCH  19  20
ENDBRANCH  18  19
ENDBRANCH  14  15
BRANCH  12  10
ATOM      7  C   UNL     1     -12.817   4.532  40.644  0.00  0.00    +0.105 A 
ATOM      8  C   UNL     1     -12.611   3.141  40.789  0.00  0.00    +0.035 A 
ATOM      9  C   UNL     1     -11.717   2.434  39.982  0.00  0.00    +0.082 A 
ATOM     10  C   UNL     1     -11.015   3.116  38.939  0.00  0.00    +0.232 A 
ATOM     11  C   UNL     1     -11.257   4.496  38.718  0.00  0.00    +0.082 A 
ATOM     30  C   UNL     1     -12.131   5.170  39.570  0.00  0.00    +0.035 A 
BRANCH   7   1
ATOM      1  S   UNL     1     -13.739   5.440  41.699  0.00  0.00    +0.056 S 
ATOM      2  O   UNL     1     -12.921   6.322  42.420  0.00  0.00    -0.153 OA
ATOM      3  O   UNL     1     -14.616   4.585  42.411  0.00  0.00    -0.153 OA
BRANCH   1   4
ATOM      4  N   UNL     1     -14.643   6.305  40.631  0.00  0.00    -0.203 NA
ATOM      5  H   UNL     1     -14.790   7.309  40.654  0.00  0.00    +0.144 HD
ATOM      6  H   UNL     1     -15.144   5.911  39.841  0.00  0.00    +0.144 HD
ENDBRANCH   1   4
ENDBRANCH   7   1
ENDBRANCH  12  10
TORSDOF 6
