REMARK  Name = 2w1d_ligand
REMARK  1 active torsions:
REMARK  status: ('A' for Active; 'I' for Inactive)
REMARK    1  A    between atoms: C3_3  and  C7_6
REMARK                            x       y       z     vdW  Elec       q    Type
REMARK                         _______ _______ _______ _____ _____    ______ ____
ROOT
ATOM      6  C   UNL     1       3.486  32.479   6.307  0.00  0.00    +0.146 A 
ATOM      7  N   UNL     1       2.693  33.570   6.386  0.00  0.00    -0.249 N 
ATOM      8  H   UNL     1       2.350  33.994   7.260  0.00  0.00    +0.231 HD
ATOM      9  C   UNL     1       2.418  34.022   5.133  0.00  0.00    +0.082 A 
ATOM     10  C   UNL     1       1.683  35.073   4.604  0.00  0.00    +0.015 A 
ATOM     11  C   UNL     1       1.616  35.249   3.244  0.00  0.00    -0.020 A 
ATOM     12  C   UNL     1       2.279  34.383   2.399  0.00  0.00    -0.024 A 
ATOM     13  C   UNL     1       3.010  33.336   2.913  0.00  0.00    -0.006 A 
ATOM     14  C   UNL     1       3.086  33.148   4.284  0.00  0.00    +0.032 A 
ATOM     15  N   UNL     1       3.728  32.212   5.039  0.00  0.00    -0.306 NA
ENDROOT
BRANCH   6   5
ATOM      1  C   UNL     1       4.908  30.252   8.738  0.00  0.00    +0.151 A 
ATOM      2  N   UNL     1       4.283  31.183   9.474  0.00  0.00    -0.215 N 
ATOM      3  H   UNL     1       4.259  31.190  10.504  0.00  0.00    +0.262 HD
ATOM      4  N   UNL     1       3.690  32.109   8.691  0.00  0.00    -0.196 NA
ATOM      5  C   UNL     1       3.971  31.724   7.442  0.00  0.00    +0.092 A 
ATOM     16  C   UNL     1       4.716  30.582   7.453  0.00  0.00    +0.006 A 
ENDBRANCH   6   5
TORSDOF 1
