REMARK  Name = 3ej1_ligand
REMARK  2 active torsions:
REMARK  status: ('A' for Active; 'I' for Inactive)
REMARK    1  A    between atoms: C10_6  and  C3_10
REMARK    2  A    between atoms: C17_8  and  N16_17
REMARK                            x       y       z     vdW  Elec       q    Type
REMARK                         _______ _______ _______ _____ _____    ______ ____
ROOT
ATOM      9  C   UNL     1     -13.546 205.791 111.178  0.00  0.00    +0.026 A 
ATOM     10  N   UNL     1     -12.273 205.931 111.563  0.00  0.00    -0.270 NA
ATOM     11  C   UNL     1     -11.420 206.445 110.669  0.00  0.00    +0.175 A 
ATOM     12  N   UNL     1     -10.085 206.609 111.034  0.00  0.00    -0.289 N 
ATOM     13  H   UNL     1      -9.312 206.193 110.495  0.00  0.00    +0.186 HD
ATOM     17  N   UNL     1     -11.747 206.821 109.430  0.00  0.00    -0.269 NA
ATOM     18  C   UNL     1     -13.029 206.659 109.093  0.00  0.00    +0.086 A 
ATOM     19  C   UNL     1     -13.990 206.141 109.927  0.00  0.00    +0.027 A 
ENDROOT
BRANCH   9   8
ATOM      1  N   UNL     1     -16.245 204.128 113.059  0.00  0.00    -0.181 NA
ATOM      2  N   UNL     1     -15.435 204.629 114.008  0.00  0.00    -0.071 N 
ATOM      3  N   UNL     1     -15.711 204.442 115.308  0.00  0.00    -0.121 NA
ATOM      4  C   UNL     1     -14.839 204.986 116.098  0.00  0.00    +0.157 A 
ATOM      5  C   UNL     1     -13.634 205.748 115.720  0.00  0.00    +0.051 A 
ATOM      6  C   UNL     1     -13.445 205.870 114.404  0.00  0.00    +0.077 A 
ATOM      7  C   UNL     1     -14.358 205.301 113.497  0.00  0.00    +0.150 A 
ATOM      8  C   UNL     1     -14.476 205.233 112.126  0.00  0.00    +0.029 A 
ATOM     20  C   UNL     1     -15.665 204.495 111.913  0.00  0.00    +0.080 A 
ENDBRANCH   9   8
BRANCH  12  14
ATOM     14  C   UNL     1      -9.857 207.410 112.230  0.00  0.00    +0.098 C 
ATOM     15  C   UNL     1      -8.476 207.823 112.628  0.00  0.00    +0.030 C 
ATOM     16  C   UNL     1      -9.216 206.808 113.442  0.00  0.00    +0.030 C 
ENDBRANCH  12  14
TORSDOF 2
