REMARK  Name = 2IVV
REMARK  6 active torsions:
REMARK  status: ('A' for Active; 'I' for Inactive)
REMARK    1  A    between atoms: N_1  and  C_18
REMARK    2  A    between atoms: C_9  and  C_11
REMARK    3  A    between atoms: C_14  and  C_17
REMARK    4  A    between atoms: C_18  and  C_19
REMARK    5  A    between atoms: C_18  and  C_20
REMARK    6  A    between atoms: C_18  and  C_21
REMARK                            x       y       z     vdW  Elec       q    Type
REMARK                         _______ _______ _______ _____ _____    ______ ____
ROOT
ATOM      1  N   UNL     1      25.850   8.239  10.209  0.00  0.00    -0.240 N 
ATOM      6  N   UNL     1      25.555   7.111   9.782  0.00  0.00    -0.168 NA
ATOM      7  C   UNL     1      24.309   6.780  10.144  0.00  0.00    +0.105 A 
ATOM     15  C   UNL     1      23.774   7.879  10.847  0.00  0.00    +0.086 A 
ATOM     16  C   UNL     1      22.576   8.229  11.510  0.00  0.00    +0.131 A 
ATOM     17  N   UNL     1      21.516   7.432  11.605  0.00  0.00    -0.343 N 
ATOM     18  H   UNL     1      20.641   7.765  12.124  0.00  0.00    +0.144 HD
ATOM     19  H   UNL     1      21.538   6.458  11.163  0.00  0.00    +0.144 HD
ATOM     20  N   UNL     1      22.493   9.427  12.085  0.00  0.00    -0.220 NA
ATOM     21  C   UNL     1      23.511  10.296  12.065  0.00  0.00    +0.225 A 
ATOM     22  N   UNL     1      24.656  10.017  11.468  0.00  0.00    -0.216 NA
ATOM     23  C   UNL     1      24.817   8.815  10.853  0.00  0.00    +0.164 A 
ENDROOT
BRANCH   7   8
ATOM      8  C   UNL     1      23.670   5.588   9.768  0.00  0.00    +0.003 A 
ATOM      9  C   UNL     1      22.521   5.703   8.972  0.00  0.00    +0.010 A 
ATOM     10  C   UNL     1      21.847   4.579   8.491  0.00  0.00    +0.004 A 
ATOM     11  C   UNL     1      22.355   3.308   8.803  0.00  0.00    -0.050 A 
ATOM     12  C   UNL     1      21.642   2.023   8.305  0.00  0.00    +0.044 C 
ATOM     13  C   UNL     1      23.516   3.203   9.577  0.00  0.00    +0.004 A 
ATOM     14  C   UNL     1      24.189   4.341  10.027  0.00  0.00    +0.010 A 
ENDBRANCH   7   8
BRANCH   1   2
ATOM      2  C   UNL     1      27.201   8.878   9.954  0.00  0.00    +0.058 C 
ATOM      3  C   UNL     1      27.066   9.975   8.894  0.00  0.00    +0.036 C 
ATOM      4  C   UNL     1      28.161   7.746   9.482  0.00  0.00    +0.036 C 
ATOM      5  C   UNL     1      27.759   9.486  11.259  0.00  0.00    +0.036 C 
ENDBRANCH   1   2
TORSDOF 2
