REMARK  Name = 3qaq_ligand
REMARK  4 active torsions:
REMARK  status: ('A' for Active; 'I' for Inactive)
REMARK    1  A    between atoms: C13_9  and  N6_23
REMARK    2  A    between atoms: C17_11  and  O1_27
REMARK    3  A    between atoms: C12_13  and  C11_14
REMARK    4  A    between atoms: C11_14  and  N7_15
REMARK                            x       y       z     vdW  Elec       q    Type
REMARK                         _______ _______ _______ _____ _____    ______ ____
ROOT
ATOM      1  N   UNL     1      20.397  14.049  23.047  0.00  0.00    -0.201 NA
ATOM      2  C   UNL     1      21.702  13.788  22.839  0.00  0.00    +0.247 A 
ATOM      3  N   UNL     1      22.477  14.575  22.071  0.00  0.00    -0.129 N 
ATOM      4  C   UNL     1      23.707  14.260  21.647  0.00  0.00    +0.262 A 
ATOM      5  N   UNL     1      24.337  13.106  21.927  0.00  0.00    -0.225 N 
ATOM      6  H   UNL     1      23.769  12.360  22.329  0.00  0.00    +0.222 HD
ATOM     15  N   UNL     1      24.199  15.253  20.910  0.00  0.00    -0.300 NA
ATOM     16  C   UNL     1      23.283  16.214  20.861  0.00  0.00    +0.021 A 
ATOM     17  C   UNL     1      23.280  17.461  20.238  0.00  0.00    -0.014 A 
ATOM     18  C   UNL     1      22.167  18.294  20.349  0.00  0.00    -0.027 A 
ATOM     19  C   UNL     1      21.054  17.881  21.084  0.00  0.00    -0.025 A 
ATOM     20  C   UNL     1      21.060  16.629  21.710  0.00  0.00    +0.016 A 
ATOM     21  C   UNL     1      22.176  15.790  21.601  0.00  0.00    +0.105 A 
ATOM     22  N   UNL     1      22.239  12.700  23.418  0.00  0.00    -0.229 NA
ATOM     23  C   UNL     1      21.512  11.901  24.173  0.00  0.00    +0.193 A 
ATOM     24  N   UNL     1      20.234  12.155  24.375  0.00  0.00    -0.237 NA
ATOM     25  C   UNL     1      19.659  13.229  23.819  0.00  0.00    +0.196 A 
ATOM     26  N   UNL     1      18.361  13.440  24.053  0.00  0.00    -0.261 N 
ATOM     27  H   UNL     1      17.823  12.699  24.503  0.00  0.00    +0.192 HD
ENDROOT
BRANCH   5   7
ATOM      7  C   UNL     1      25.635  12.834  21.733  0.00  0.00    +0.060 A 
ATOM      8  C   UNL     1      26.316  13.231  20.579  0.00  0.00    -0.004 A 
ATOM      9  C   UNL     1      27.663  12.922  20.402  0.00  0.00    -0.024 A 
ATOM     10  C   UNL     1      28.336  12.195  21.378  0.00  0.00    +0.000 A 
ATOM     11  C   UNL     1      27.660  11.785  22.525  0.00  0.00    +0.078 A 
ATOM     14  C   UNL     1      26.314  12.102  22.702  0.00  0.00    +0.035 A 
BRANCH  11  12
ATOM     12  O   UNL     1      28.321  11.080  23.480  0.00  0.00    -0.336 OA
ATOM     13  H   UNL     1      27.719  10.876  24.199  0.00  0.00    +0.248 HD
ENDBRANCH  11  12
ENDBRANCH   5   7
BRANCH  26  28
ATOM     28  C   UNL     1      17.666  14.693  23.693  0.00  0.00    +0.324 C 
BRANCH  28  29
ATOM     29  C   UNL     1      16.213  14.580  23.976  0.00  0.00    +0.116 C 
ATOM     30  N   UNL     1      15.074  14.629  24.158  0.00  0.00    -0.301 NA
ENDBRANCH  28  29
ENDBRANCH  26  28
TORSDOF 4
