REMARK  Name = 4XV1
REMARK  10 active torsions:
REMARK  status: ('A' for Active; 'I' for Inactive)
REMARK    1  A    between atoms: S_1  and  N_6
REMARK    2  A    between atoms: S_1  and  N_19
REMARK    3  A    between atoms: C_2  and  C_3
REMARK    4  A    between atoms: C_3  and  C_4
REMARK    5  A    between atoms: N_6  and  C_8
REMARK    6  A    between atoms: C_12  and  C_17
REMARK    7  A    between atoms: C_18  and  C_22
REMARK    8  A    between atoms: N_19  and  C_34
REMARK    9  A    between atoms: N_19  and  C_35
REMARK   10  A    between atoms: C_34  and  C_36
REMARK                            x       y       z     vdW  Elec       q    Type
REMARK                         _______ _______ _______ _____ _____    ______ ____
ROOT
ATOM     16  C   UNL     1       1.460  -2.091 -20.742  0.00  0.00    +0.201 C 
ATOM     17  O   UNL     1       1.960  -2.603 -21.733  0.00  0.00    -0.286 OA
ENDROOT
BRANCH  16  18
ATOM     18  C   UNL     1       2.240  -1.697 -19.581  0.00  0.00    +0.051 A 
ATOM     19  C   UNL     1       1.736  -1.191 -18.399  0.00  0.00    +0.125 A 
ATOM     20  N   UNL     1       2.777  -0.943 -17.549  0.00  0.00    -0.235 NA
ATOM     21  C   UNL     1       3.951  -1.278 -18.152  0.00  0.00    +0.161 A 
ATOM     22  N   UNL     1       5.155  -1.153 -17.581  0.00  0.00    -0.235 NA
ATOM     23  C   UNL     1       6.163  -1.556 -18.386  0.00  0.00    +0.121 A 
ATOM     24  C   UNL     1       6.055  -2.059 -19.684  0.00  0.00    +0.004 A 
ATOM     34  C   UNL     1       4.757  -2.157 -20.208  0.00  0.00    +0.022 A 
ATOM     35  C   UNL     1       3.661  -1.754 -19.421  0.00  0.00    +0.032 A 
BRANCH  24  25
ATOM     25  C   UNL     1       7.242  -2.458 -20.449  0.00  0.00    +0.020 A 
ATOM     26  C   UNL     1       8.416  -1.728 -20.449  0.00  0.00    +0.123 A 
ATOM     27  N   UNL     1       9.531  -2.058 -21.136  0.00  0.00    -0.239 NA
ATOM     28  C   UNL     1       9.484  -3.188 -21.871  0.00  0.00    +0.132 A 
ATOM     32  N   UNL     1       8.391  -3.979 -21.945  0.00  0.00    -0.239 NA
ATOM     33  C   UNL     1       7.307  -3.595 -21.235  0.00  0.00    +0.123 A 
BRANCH  28  29
ATOM     29  C   UNL     1      10.712  -3.578 -22.646  0.00  0.00    +0.057 C 
ATOM     30  C   UNL     1      11.830  -2.580 -22.819  0.00  0.00    +0.012 C 
ATOM     31  C   UNL     1      12.025  -3.767 -21.928  0.00  0.00    +0.012 C 
ENDBRANCH  28  29
ENDBRANCH  24  25
ENDBRANCH  16  18
BRANCH  16  15
ATOM     10  C   UNL     1      -2.237  -2.790 -20.671  0.00  0.00    +0.085 A 
ATOM     11  C   UNL     1      -2.754  -1.496 -20.740  0.00  0.00    +0.030 A 
ATOM     12  C   UNL     1      -1.894  -0.399 -20.809  0.00  0.00    +0.041 A 
ATOM     13  C   UNL     1      -0.521  -0.599 -20.809  0.00  0.00    +0.137 A 
ATOM     14  F   UNL     1       0.287   0.463 -20.876  0.00  0.00    -0.205 F 
ATOM     15  C   UNL     1       0.005  -1.884 -20.742  0.00  0.00    +0.094 A 
ATOM     36  C   UNL     1      -0.858  -2.971 -20.674  0.00  0.00    +0.159 A 
ATOM     37  F   UNL     1      -0.359  -4.208 -20.609  0.00  0.00    -0.203 F 
BRANCH  10   8
ATOM      8  N   UNL     1      -3.072  -3.953 -20.599  0.00  0.00    -0.204 N 
ATOM      9  H   UNL     1      -2.639  -4.930 -20.651  0.00  0.00    +0.175 HD
BRANCH   8   1
ATOM      1  S   UNL     1      -4.763  -3.770 -20.429  0.00  0.00    +0.112 S 
ATOM      2  O   UNL     1      -5.272  -2.865 -21.433  0.00  0.00    -0.138 OA
ATOM      3  O   UNL     1      -5.325  -5.102 -20.343  0.00  0.00    -0.138 OA
BRANCH   1   4
ATOM      4  N   UNL     1      -4.913  -3.028 -18.896  0.00  0.00    -0.167 NA
ATOM      5  C   UNL     1      -5.988  -2.047 -18.638  0.00  0.00    +0.133 C 
BRANCH   4   6
ATOM      6  C   UNL     1      -4.366  -3.671 -17.674  0.00  0.00    +0.107 C 
ATOM      7  C   UNL     1      -4.154  -2.685 -16.544  0.00  0.00    +0.022 C 
ENDBRANCH   4   6
ENDBRANCH   1   4
ENDBRANCH   8   1
ENDBRANCH  10   8
ENDBRANCH  16  15
TORSDOF 8
