REMARK  Name = NVX
REMARK  3 active torsions:
REMARK  status: ('A' for Active; 'I' for Inactive)
REMARK    1  A    between atoms: CAT_11  and  CAY_12
REMARK    2  A    between atoms: CAX_16  and  CAQ_17
REMARK    3  A    between atoms: CAQ_17  and  CAS_19
REMARK                            x       y       z     vdW  Elec       q    Type
REMARK                         _______ _______ _______ _____ _____    ______ ____
ROOT
ATOM     11  C   UNL     1     -25.085  -8.030  22.472  0.00  0.00    +0.048 C 
ATOM     12  C   UNL     1     -23.539  -7.945  22.489  0.00  0.00    +0.094 C 
ATOM     13  N   UNL     1     -23.173  -6.584  22.081  0.00  0.00    -0.217 NA
ATOM     14  C   UNL     1     -24.331  -6.028  21.363  0.00  0.00    +0.097 C 
ATOM     15  C   UNL     1     -25.434  -7.101  21.275  0.00  0.00    +0.085 C 
ENDROOT
BRANCH  11   2
ATOM      1  C   UNL     1     -25.567 -10.161  21.191  0.00  0.00    +0.015 A 
ATOM      2  C   UNL     1     -25.590  -9.456  22.395  0.00  0.00    -0.019 A 
ATOM      3  C   UNL     1     -25.919 -10.125  23.563  0.00  0.00    -0.004 A 
ATOM      4  C   UNL     1     -26.147 -11.487  23.569  0.00  0.00    +0.006 A 
ATOM      5  C   UNL     1     -26.058 -12.210  22.382  0.00  0.00    +0.075 A 
ATOM      6  C   UNL     1     -26.186 -13.674  22.362  0.00  0.00    +0.282 A 
ATOM      7  O   UNL     1     -26.357 -14.348  23.374  0.00  0.00    -0.265 OA
ATOM      8  N   UNL     1     -26.057 -14.248  21.111  0.00  0.00    -0.186 NA
ATOM      9  C   UNL     1     -25.852 -13.521  19.991  0.00  0.00    +0.202 A 
ATOM     10  N   UNL     1     -25.723 -12.210  19.955  0.00  0.00    -0.224 NA
ATOM     25  C   UNL     1     -25.800 -11.541  21.179  0.00  0.00    +0.087 A 
ENDBRANCH  11   2
BRANCH  15  16
ATOM     16  C   UNL     1     -26.828  -6.500  21.330  0.00  0.00    +0.174 C 
ATOM     17  O   UNL     1     -27.520  -6.644  22.326  0.00  0.00    -0.291 OA
BRANCH  16  18
ATOM     18  C   UNL     1     -27.320  -5.720  20.158  0.00  0.00    +0.036 A 
ATOM     19  C   UNL     1     -28.549  -5.060  20.133  0.00  0.00    +0.014 A 
ATOM     20  C   UNL     1     -28.907  -4.353  19.001  0.00  0.00    +0.058 A 
ATOM     21 CL   UNL     1     -30.472  -3.608  18.930  0.00  0.00    -0.082 Cl
ATOM     22  C   UNL     1     -28.076  -4.252  17.906  0.00  0.00    +0.011 A 
ATOM     23  C   UNL     1     -26.864  -4.916  17.932  0.00  0.00    +0.001 A 
ATOM     24  C   UNL     1     -26.491  -5.649  19.043  0.00  0.00    +0.003 A 
ENDBRANCH  16  18
ENDBRANCH  15  16
TORSDOF 3
