REMARK  Name = 5IDP
REMARK  4 active torsions:
REMARK  status: ('A' for Active; 'I' for Inactive)
REMARK    1  A    between atoms: C_4  and  C_7
REMARK    2  A    between atoms: C_10  and  C_11
REMARK    3  A    between atoms: C_45  and  O_47
REMARK    4  A    between atoms: C_50  and  O_52
REMARK                            x       y       z     vdW  Elec       q    Type
REMARK                         _______ _______ _______ _____ _____    ______ ____
ROOT
ATOM      6  C   UNL     1      -3.466 -12.811  10.630  0.00  0.00    +0.106 C 
ATOM      7  N   UNL     1      -4.198 -13.974  11.245  0.00  0.00    -0.290 N 
ATOM      8  C   UNL     1      -3.459 -15.263  11.201  0.00  0.00    +0.109 C 
ATOM      9  C   UNL     1      -2.091 -15.115  11.878  0.00  0.00    +0.019 C 
ATOM     10  C   UNL     1      -1.926 -13.687  12.396  0.00  0.00    +0.004 C 
ATOM     11  C   UNL     1      -5.439 -13.904  11.854  0.00  0.00    +0.247 C 
ATOM     12  O   UNL     1      -5.945 -14.896  12.353  0.00  0.00    -0.270 OA
ATOM     26  C   UNL     1      -2.062 -12.711  11.258  0.00  0.00    +0.027 C 
ENDROOT
BRANCH  11  13
ATOM     13  C   UNL     1      -6.239 -12.654  11.939  0.00  0.00    +0.038 A 
ATOM     14  C   UNL     1      -6.842 -12.212  13.139  0.00  0.00    +0.015 A 
ATOM     15  C   UNL     1      -7.572 -11.046  13.166  0.00  0.00    +0.028 A 
ATOM     16  C   UNL     1      -7.726 -10.274  12.000  0.00  0.00    +0.068 A 
ATOM     17  N   UNL     1      -8.353  -9.098  11.683  0.00  0.00    -0.275 N 
ATOM     18  H   UNL     1      -8.911  -8.491  12.365  0.00  0.00    +0.189 HD
ATOM     19  N   UNL     1      -8.149  -8.813  10.323  0.00  0.00    -0.158 NA
ATOM     20  C   UNL     1      -7.440  -9.756   9.764  0.00  0.00    +0.146 A 
ATOM     21  N   UNL     1      -7.018  -9.848   8.437  0.00  0.00    -0.341 N 
ATOM     22  H   UNL     1      -7.292  -9.089   7.734  0.00  0.00    +0.144 HD
ATOM     23  H   UNL     1      -6.420 -10.678   8.122  0.00  0.00    +0.144 HD
ATOM     24  C   UNL     1      -7.131 -10.722  10.803  0.00  0.00    +0.042 A 
ATOM     25  C   UNL     1      -6.415 -11.901  10.781  0.00  0.00    +0.026 A 
ENDBRANCH  11  13
BRANCH   6   5
ATOM      1  C   UNL     1      -3.121 -12.853   6.303  0.00  0.00    +0.123 A 
ATOM      2  F   UNL     1      -3.003 -12.861   4.959  0.00  0.00    -0.205 F 
ATOM      3  C   UNL     1      -2.245 -12.097   7.064  0.00  0.00    +0.038 A 
ATOM      4  C   UNL     1      -2.367 -12.086   8.444  0.00  0.00    +0.008 A 
ATOM      5  C   UNL     1      -3.350 -12.841   9.103  0.00  0.00    -0.027 A 
ATOM     27  C   UNL     1      -4.228 -13.591   8.323  0.00  0.00    +0.008 A 
ATOM     28  C   UNL     1      -4.111 -13.598   6.936  0.00  0.00    +0.038 A 
ENDBRANCH   6   5
TORSDOF 2
