REMARK  Name = 2QRO
REMARK  8 active torsions:
REMARK  status: ('A' for Active; 'I' for Inactive)
REMARK    1  A    between atoms: N_1  and  C_9
REMARK    2  A    between atoms: C_10  and  O_11
REMARK    3  A    between atoms: C_12  and  O_15
REMARK    4  A    between atoms: C_13  and  C_16
REMARK    5  A    between atoms: C_16  and  O_17
REMARK    6  A    between atoms: O_17  and  P_18
REMARK    7  A    between atoms: P_18  and  O_21
REMARK    8  A    between atoms: O_21  and  P_22
REMARK                            x       y       z     vdW  Elec       q    Type
REMARK                         _______ _______ _______ _____ _____    ______ ____
ROOT
ATOM      2  C   UNL     1      18.959  74.600  11.743  0.00  0.00    +0.255 C 
ATOM      3  O   UNL     1      20.350  74.420  11.536  0.00  0.00    -0.346 OA
ATOM      4  C   UNL     1      20.998  74.726  12.793  0.00  0.00    +0.178 C 
ATOM     15  C   UNL     1      20.037  74.232  13.885  0.00  0.00    +0.178 C 
ATOM     18  C   UNL     1      18.692  74.132  13.197  0.00  0.00    +0.195 C 
ENDROOT
BRANCH   2   1
ATOM      1  N   UNL     1      18.201  73.764  10.791  0.00  0.00    -0.272 N 
ATOM     21  C   UNL     1      18.815  72.640  10.216  0.00  0.00    +0.098 C 
ATOM     22  C   UNL     1      18.123  71.865   9.329  0.00  0.00    +0.088 C 
ATOM     23  C   UNL     1      16.781  72.214   9.000  0.00  0.00    +0.254 C 
ATOM     24  O   UNL     1      16.149  71.542   8.212  0.00  0.00    -0.268 OA
ATOM     25  N   UNL     1      16.204  73.332   9.590  0.00  0.00    -0.275 N 
ATOM     26  H   UNL     1      15.196  73.601   9.350  0.00  0.00    +0.173 HD
ATOM     27  C   UNL     1      16.917  74.089  10.474  0.00  0.00    +0.331 C 
ATOM     28  O   UNL     1      16.397  75.073  10.986  0.00  0.00    -0.246 OA
ENDBRANCH   2   1
BRANCH  15  16
ATOM     16  O   UNL     1      19.980  75.172  14.970  0.00  0.00    -0.386 OA
ATOM     17  H   UNL     1      19.716  76.118  14.600  0.00  0.00    +0.210 HD
ENDBRANCH  15  16
BRANCH  18  19
ATOM     19  O   UNL     1      17.724  74.991  13.840  0.00  0.00    -0.385 OA
ATOM     20  H   UNL     1      18.089  75.975  13.862  0.00  0.00    +0.210 HD
ENDBRANCH  18  19
BRANCH   4   5
ATOM      5  C   UNL     1      22.289  74.001  12.876  0.00  0.00    +0.202 C 
BRANCH   5   6
ATOM      6  O   UNL     1      23.083  74.373  11.821  0.00  0.00    -0.325 OA
BRANCH   6   7
ATOM      7  P   UNL     1      24.380  73.433  11.851  0.00  0.00    +0.215 P 
ATOM     13  O   UNL     1      23.926  71.883  11.751  0.00  0.00    -0.437 OA
ATOM     14  O   UNL     1      25.127  73.651  13.129  0.00  0.00    -0.517 OA
BRANCH   7   8
ATOM      8  O   UNL     1      25.358  73.817  10.554  0.00  0.00    -0.314 OA
BRANCH   8   9
ATOM      9  P   UNL     1      26.683  72.823  10.621  0.00  0.00    -0.007 P 
ATOM     10  O   UNL     1      26.188  71.318  10.541  0.00  0.00    -0.577 OA
ATOM     11  O   UNL     1      27.586  73.073   9.493  0.00  0.00    -0.637 OA
ATOM     12  O   UNL     1      27.408  73.030  11.971  0.00  0.00    -0.577 OA
ENDBRANCH   8   9
ENDBRANCH   7   8
ENDBRANCH   6   7
ENDBRANCH   5   6
ENDBRANCH   4   5
TORSDOF 8
