REMARK  Name = 2rl5_ligand
REMARK  7 active torsions:
REMARK  status: ('A' for Active; 'I' for Inactive)
REMARK    1  A    between atoms: C1_1  and  O34_23
REMARK    2  A    between atoms: C6_6  and  O33_22
REMARK    3  A    between atoms: C10_10  and  O11_11
REMARK    4  A    between atoms: O11_11  and  C12_12
REMARK    5  A    between atoms: O33_22  and  C49_34
REMARK    6  A    between atoms: O34_23  and  C53_35
REMARK    7  A    between atoms: N37_26  and  C38_27
REMARK                            x       y       z     vdW  Elec       q    Type
REMARK                         _______ _______ _______ _____ _____    ______ ____
ROOT
ATOM     11  C   UNL     1      60.487  49.501  17.569  0.00  0.00    +0.099 A 
ATOM     12  C   UNL     1      60.612  48.172  17.106  0.00  0.00    -0.008 A 
ATOM     13  C   UNL     1      61.363  47.238  17.842  0.00  0.00    -0.011 A 
ATOM     14  C   UNL     1      62.017  47.601  19.070  0.00  0.00    +0.091 A 
ATOM     15  N   UNL     1      62.792  46.714  19.865  0.00  0.00    -0.206 N 
ATOM     16  C   UNL     1      63.562  45.670  19.308  0.00  0.00    +0.315 C 
ATOM     17  N   UNL     1      64.304  44.910  20.186  0.00  0.00    -0.215 N 
ATOM     18  H   UNL     1      64.272  45.181  21.148  0.00  0.00    +0.226 HD
ATOM     26  O   UNL     1      63.588  45.442  18.097  0.00  0.00    -0.382 OA
ATOM     27  C   UNL     1      63.114  47.151  21.248  0.00  0.00    +0.200 C 
ATOM     28  C   UNL     1      63.519  48.628  21.251  0.00  0.00    +0.218 C 
ATOM     29  O   UNL     1      62.457  49.449  20.728  0.00  0.00    -0.324 OA
ATOM     30  C   UNL     1      61.870  48.967  19.527  0.00  0.00    +0.107 A 
ATOM     31  C   UNL     1      61.117  49.887  18.780  0.00  0.00    +0.033 A 
ENDROOT
BRANCH  17  19
ATOM     19  C   UNL     1      65.093  43.805  19.878  0.00  0.00    +0.068 A 
ATOM     20  C   UNL     1      65.063  42.644  20.705  0.00  0.00    +0.009 A 
ATOM     21  C   UNL     1      65.869  41.512  20.394  0.00  0.00    -0.004 A 
ATOM     22  C   UNL     1      66.702  41.550  19.253  0.00  0.00    +0.024 A 
ATOM     23 CL   UNL     1      67.674  40.175  18.871  0.00  0.00    -0.085 Cl
ATOM     24  C   UNL     1      66.754  42.689  18.416  0.00  0.00    -0.004 A 
ATOM     25  C   UNL     1      65.950  43.816  18.730  0.00  0.00    +0.009 A 
ENDBRANCH  17  19
BRANCH  11  10
ATOM     10  O   UNL     1      59.734  50.422  16.835  0.00  0.00    -0.257 OA
BRANCH  10   9
ATOM      1  C   UNL     1      57.749  52.350  12.516  0.00  0.00    +0.128 A 
ATOM      4  C   UNL     1      57.194  51.676  13.670  0.00  0.00    +0.128 A 
ATOM      7  C   UNL     1      58.063  51.256  14.726  0.00  0.00    +0.030 A 
ATOM      8  C   UNL     1      59.474  51.491  14.653  0.00  0.00    +0.027 A 
ATOM      9  C   UNL     1      60.330  51.067  15.721  0.00  0.00    +0.135 A 
ATOM     32  C   UNL     1      61.742  51.324  15.610  0.00  0.00    +0.045 A 
ATOM     33  C   UNL     1      62.228  51.981  14.460  0.00  0.00    +0.063 A 
ATOM     34  N   UNL     1      61.400  52.380  13.454  0.00  0.00    -0.329 NA
ATOM     35  C   UNL     1      60.030  52.164  13.498  0.00  0.00    +0.017 A 
ATOM     36  C   UNL     1      59.167  52.581  12.452  0.00  0.00    +0.027 A 
BRANCH   1   2
ATOM      2  O   UNL     1      56.894  52.764  11.474  0.00  0.00    -0.318 OA
ATOM      3  C   UNL     1      57.169  54.030  10.875  0.00  0.00    +0.233 C 
ENDBRANCH   1   2
BRANCH   4   5
ATOM      5  O   UNL     1      55.818  51.385  13.869  0.00  0.00    -0.321 OA
ATOM      6  C   UNL     1      55.393  50.049  14.136  0.00  0.00    +0.231 C 
ENDBRANCH   4   5
ENDBRANCH  10   9
ENDBRANCH  11  10
TORSDOF 5
