REMARK  Name = 2zoq_ligand
REMARK  6 active torsions:
REMARK  status: ('A' for Active; 'I' for Inactive)
REMARK    1  A    between atoms: O5'_1  and  C5'_2
REMARK    2  A    between atoms: C5'_2  and  C4'_3
REMARK    3  A    between atoms: C1'_5  and  N9_6
REMARK    4  A    between atoms: C6_10  and  N6_15
REMARK    5  A    between atoms: C2'_16  and  O2'_17
REMARK    6  A    between atoms: C3'_18  and  O3'_19
REMARK                            x       y       z     vdW  Elec       q    Type
REMARK                         _______ _______ _______ _____ _____    ______ ____
ROOT
ATOM     12  N   UNL     1      29.021   7.331  18.493  0.00  0.00    -0.219 N 
ATOM     13  C   UNL     1      29.431   6.881  19.672  0.00  0.00    +0.142 A 
ATOM     14  N   UNL     1      30.587   7.312  20.231  0.00  0.00    -0.277 NA
ATOM     15  C   UNL     1      30.873   6.762  21.410  0.00  0.00    +0.148 A 
ATOM     16  N   UNL     1      30.081   5.862  21.988  0.00  0.00    -0.273 NA
ATOM     17  C   UNL     1      28.910   5.423  21.447  0.00  0.00    +0.117 A 
ATOM     21  C   UNL     1      28.547   5.944  20.241  0.00  0.00    +0.053 A 
ATOM     22  C   UNL     1      27.457   5.855  19.265  0.00  0.00    +0.017 A 
ATOM     23  I   UNL     1      25.751   4.720  19.330  0.00  0.00    -0.080 I 
ATOM     24  C   UNL     1      27.839   6.736  18.218  0.00  0.00    +0.143 A 
ENDROOT
BRANCH  12  11
ATOM      4  C4* UNL     1      28.961   9.189  15.723  0.00  0.00    +0.178 C 
ATOM      5  C3* UNL     1      29.454   7.825  15.297  0.00  0.00    +0.179 C 
ATOM      8  C2* UNL     1      30.411   7.634  16.465  0.00  0.00    +0.206 C 
ATOM     11  C1* UNL     1      29.736   8.305  17.681  0.00  0.00    +0.296 C 
ATOM     25  O4* UNL     1      28.808   9.205  17.141  0.00  0.00    -0.337 OA
BRANCH   5   6
ATOM      6  O3* UNL     1      30.194   7.896  14.061  0.00  0.00    -0.386 OA
ATOM      7  H3* UNL     1      30.797   8.630  14.096  0.00  0.00    +0.210 HD
ENDBRANCH   5   6
BRANCH   8   9
ATOM      9  O2* UNL     1      31.480   8.524  16.175  0.00  0.00    -0.384 OA
ATOM     10  H2* UNL     1      31.968   8.198  15.428  0.00  0.00    +0.210 HD
ENDBRANCH   8   9
BRANCH   4   3
ATOM      3  C5* UNL     1      27.645   9.494  15.045  0.00  0.00    +0.190 C 
BRANCH   3   1
ATOM      1  O5* UNL     1      26.755   8.429  14.983  0.00  0.00    -0.392 OA
ATOM      2  H5* UNL     1      25.960   8.707  14.544  0.00  0.00    +0.209 HD
ENDBRANCH   3   1
ENDBRANCH   4   3
ENDBRANCH  12  11
BRANCH  17  18
ATOM     18  N   UNL     1      28.177   4.512  22.114  0.00  0.00    -0.316 N 
ATOM     19  H   UNL     1      27.290   4.173  21.715  0.00  0.00    +0.183 HD
ATOM     20  H   UNL     1      28.503   4.154  23.023  0.00  0.00    +0.183 HD
ENDBRANCH  17  18
TORSDOF 6
