REMARK  Name = A4Q
REMARK  6 active torsions:
REMARK  status: ('A' for Active; 'I' for Inactive)
REMARK    1  A    between atoms: C7_1  and  C8_2
REMARK    2  A    between atoms: C12_3  and  C11_4
REMARK    3  A    between atoms: C2_8  and  C1_13
REMARK    4  A    between atoms: C7_18  and  C8_19
REMARK    5  A    between atoms: C12_20  and  C11_21
REMARK    6  A    between atoms: C2_25  and  C1_30
REMARK                            x       y       z     vdW  Elec       q    Type
REMARK                         _______ _______ _______ _____ _____    ______ ____
ROOT
ATOM      2  C   UNL     1      14.525 120.001 370.676  0.00  0.00    +0.010 A 
ATOM      3  C   UNL     1      14.758 118.706 371.150  0.00  0.00    +0.001 A 
ATOM      4  C   UNL     1      13.783 118.023 371.856  0.00  0.00    -0.003 A 
ATOM      5  C   UNL     1      12.545 118.597 372.109  0.00  0.00    -0.002 A 
ATOM      8  C   UNL     1      12.307 119.889 371.651  0.00  0.00    +0.009 A 
ATOM      9  C   UNL     1      13.284 120.574 370.952  0.00  0.00    +0.057 A 
ATOM     10 CL   UNL     1      12.934 122.194 370.439  0.00  0.00    -0.082 Cl
ENDROOT
BRANCH   2   1
ATOM      1  C   UNL     1      15.592 120.691 369.885  0.00  0.00    -0.003 A 
ATOM     11  C   UNL     1      16.316 121.715 370.509  0.00  0.00    -0.000 A 
ATOM     12  C   UNL     1      17.424 122.271 369.889  0.00  0.00    -0.000 A 
ATOM     13  C   UNL     1      17.811 121.833 368.636  0.00  0.00    -0.000 A 
ATOM     14  C   UNL     1      17.087 120.843 367.994  0.00  0.00    -0.004 A 
ATOM     15  C   UNL     1      15.966 120.271 368.596  0.00  0.00    -0.022 A 
BRANCH  15  16
ATOM     16  C   UNL     1      15.150 119.260 367.816  0.00  0.00    +0.026 C 
ATOM     17  C   UNL     1      15.739 117.873 367.740  0.00  0.00    +0.005 C 
ENDBRANCH  15  16
ENDBRANCH   2   1
BRANCH   5   6
ATOM      6  C   UNL     1      11.483 117.819 372.834  0.00  0.00    +0.136 C 
ATOM      7  N   UNL     1      11.072 118.419 374.090  0.00  0.00    -0.126 NA
ENDBRANCH   5   6
TORSDOF 3
