REMARK  Name = 4YPD
REMARK  0 active torsions:
REMARK  status: ('A' for Active; 'I' for Inactive)
REMARK                            x       y       z     vdW  Elec       q    Type
REMARK                         _______ _______ _______ _____ _____    ______ ____
ROOT
ATOM      1  C   UNL     1      23.987   5.176   8.518  0.00  0.00    +0.033 C 
ATOM      2  C   UNL     1      25.002   5.115   9.629  0.00  0.00    +0.001 A 
ATOM      3  C   UNL     1      26.039   6.040   9.647  0.00  0.00    +0.118 A 
ATOM      4  N   UNL     1      26.970   6.021  10.609  0.00  0.00    -0.147 NA
ATOM      5  N   UNL     1      26.893   5.059  11.619  0.00  0.00    -0.146 NA
ATOM      6  C   UNL     1      25.907   4.151  11.620  0.00  0.00    +0.122 A 
ATOM      7  C   UNL     1      24.934   4.156  10.623  0.00  0.00    +0.020 A 
ENDROOT
TORSDOF 0
