REMARK  Name = 4FKS
REMARK  5 active torsions:
REMARK  status: ('A' for Active; 'I' for Inactive)
REMARK    1  A    between atoms: C_1  and  C_5
REMARK    2  A    between atoms: N_2  and  S_4
REMARK    3  A    between atoms: S_4  and  C_9
REMARK    4  A    between atoms: N_6  and  C_16
REMARK    5  A    between atoms: N_6  and  C_17
REMARK                            x       y       z     vdW  Elec       q    Type
REMARK                         _______ _______ _______ _____ _____    ______ ____
ROOT
ATOM     13  N   UNL     1       2.714  -6.787 -28.805  0.00  0.00    -0.320 N 
ATOM     14  H   UNL     1       2.856  -6.061 -29.501  0.00  0.00    +0.152 HD
ENDROOT
BRANCH  13  15
ATOM     15  C   UNL     1       1.666  -6.681 -27.932  0.00  0.00    +0.085 C 
ATOM     16  C   UNL     1       0.830  -5.662 -27.926  0.00  0.00    +0.061 C 
ATOM     17  C   UNL     1      -0.346  -5.470 -27.090  0.00  0.00    +0.025 A 
ATOM     18  C   UNL     1      -1.026  -6.186 -26.139  0.00  0.00    +0.049 A 
ATOM     19  C   UNL     1      -2.171  -5.622 -25.537  0.00  0.00    +0.079 A 
ATOM     20  C   UNL     1      -2.636  -4.361 -25.807  0.00  0.00    +0.031 A 
ATOM     21  C   UNL     1      -1.923  -3.599 -26.760  0.00  0.00    +0.026 A 
ATOM     22  N   UNL     1      -2.781  -6.472 -24.586  0.00  0.00    -0.247 NA
ATOM     23  C   UNL     1      -2.088  -7.560 -24.493  0.00  0.00    +0.157 A 
ATOM     24  S   UNL     1      -0.668  -7.750 -25.503  0.00  0.00    -0.075 S 
ATOM     25  C   UNL     1      -0.851  -4.169 -27.387  0.00  0.00    +0.043 A 
ATOM     26  N   UNL     1      -0.038  -3.582 -28.381  0.00  0.00    -0.281 N 
ATOM     27  H   UNL     1      -0.176  -2.648 -28.755  0.00  0.00    +0.155 HD
ATOM     28  C   UNL     1       0.964  -4.455 -28.741  0.00  0.00    +0.250 C 
ATOM     29  O   UNL     1       1.834  -4.294 -29.592  0.00  0.00    -0.270 OA
ENDBRANCH  13  15
BRANCH  13  11
ATOM      8  C   UNL     1       5.678  -9.795 -28.758  0.00  0.00    +0.109 A 
ATOM      9  C   UNL     1       4.790  -9.643 -27.708  0.00  0.00    +0.030 A 
ATOM     10  C   UNL     1       3.816  -8.664 -27.703  0.00  0.00    +0.025 A 
ATOM     11  C   UNL     1       3.681  -7.811 -28.829  0.00  0.00    +0.031 A 
ATOM     12  C   UNL     1       4.578  -7.944 -29.898  0.00  0.00    +0.025 A 
ATOM     30  C   UNL     1       5.557  -8.929 -29.880  0.00  0.00    +0.030 A 
BRANCH   8   6
ATOM      6  S   UNL     1       6.945 -10.883 -28.666  0.00  0.00    +0.074 S 
ATOM      7  O   UNL     1       7.746 -10.427 -27.577  0.00  0.00    -0.150 OA
ATOM     31  O   UNL     1       7.560 -10.949 -29.958  0.00  0.00    -0.150 OA
BRANCH   6   4
ATOM      1  C   UNL     1       4.896 -12.529 -30.437  0.00  0.00    +0.111 C 
ATOM      2  C   UNL     1       5.225 -13.037 -29.055  0.00  0.00    +0.229 C 
ATOM      3  O   UNL     1       4.734 -14.063 -28.583  0.00  0.00    -0.275 OA
ATOM      4  N   UNL     1       6.169 -12.304 -28.247  0.00  0.00    -0.186 N 
ATOM      5  H   UNL     1       6.337 -12.744 -27.347  0.00  0.00    +0.176 HD
ENDBRANCH   6   4
ENDBRANCH   8   6
ENDBRANCH  13  11
TORSDOF 4
