REMARK  Name = 9T6
REMARK  3 active torsions:
REMARK  status: ('A' for Active; 'I' for Inactive)
REMARK    1  A    between atoms: C2_5  and  C10_8
REMARK    2  A    between atoms: C1_6  and  N13_22
REMARK    3  A    between atoms: C18_17  and  N13_22
REMARK                            x       y       z     vdW  Elec       q    Type
REMARK                         _______ _______ _______ _____ _____    ______ ____
ROOT
ATOM      1  C   UNL     1      14.983   4.259  40.907  0.00  0.00    +0.056 C 
ATOM      2  C   UNL     1      13.699   3.672  40.740  0.00  0.00    +0.090 C 
ATOM      3  C   UNL     1      12.560   3.491  41.524  0.00  0.00    +0.133 C 
ATOM     16  C   UNL     1      11.516   2.823  40.910  0.00  0.00    +0.101 C 
ATOM     20  C   UNL     1      11.567   2.371  39.607  0.00  0.00    +0.238 C 
ATOM     21  N   UNL     1      12.651   2.527  38.839  0.00  0.00    -0.031 NA
ATOM     22  C   UNL     1      13.669   3.174  39.442  0.00  0.00    +0.373 C 
ATOM     23  N   UNL     1      14.873   3.446  38.847  0.00  0.00    -0.031 NA
ATOM     24  C   UNL     1      15.685   4.105  39.726  0.00  0.00    +0.236 C 
ENDROOT
BRANCH  16  17
ATOM     17  C   UNL     1      10.276   2.591  41.614  0.00  0.00    +0.286 C 
ATOM     18  O   UNL     1      10.166   2.796  42.813  0.00  0.00    -0.267 OA
ATOM     19  N   UNL     1       9.318   2.153  40.753  0.00  0.00    -0.084 NA
ENDBRANCH  16  17
BRANCH   3   4
ATOM      4  N   UNL     1      12.400   3.933  42.866  0.00  0.00    -0.211 NA
BRANCH   4   5
ATOM      5  C   UNL     1      13.556   4.682  43.362  0.00  0.00    +0.073 C 
ATOM      6  C   UNL     1      13.834   4.565  44.849  0.00  0.00    +0.018 C 
ATOM      7  C   UNL     1      12.726   5.194  45.687  0.00  0.00    +0.002 C 
ATOM      8  C   UNL     1      12.571   6.678  45.358  0.00  0.00    +0.003 C 
ATOM      9  C   UNL     1      13.887   7.424  45.554  0.00  0.00    +0.030 C 
ATOM     10  C   UNL     1      14.961   6.795  44.690  0.00  0.00    +0.127 C 
ATOM     11  O   UNL     1      16.157   7.537  44.776  0.00  0.00    -0.226 OA
ATOM     12  C   UNL     1      14.583   6.909  43.243  0.00  0.00    +0.032 C 
ATOM     13  C   UNL     1      12.207   6.817  43.897  0.00  0.00    +0.002 C 
ATOM     14  C   UNL     1      15.129   5.330  45.102  0.00  0.00    +0.032 C 
ATOM     15  C   UNL     1      13.287   6.161  43.043  0.00  0.00    +0.018 C 
ENDBRANCH   4   5
ENDBRANCH   3   4
TORSDOF 3
