REMARK  Name = 6Q4E
REMARK  0 active torsions:
REMARK  status: ('A' for Active; 'I' for Inactive)
REMARK                            x       y       z     vdW  Elec       q    Type
REMARK                         _______ _______ _______ _____ _____    ______ ____
ROOT
ATOM      1  C   UNL     1      -1.095  -2.368 -26.048  0.00  0.00    +0.100 A 
ATOM      2  N   UNL     1      -0.161  -2.183 -27.037  0.00  0.00    -0.600 NA
ATOM      3  C   UNL     1       0.362  -3.417 -27.280  0.00  0.00    +0.550 A 
ATOM      4  N   UNL     1       1.333  -3.755 -28.157  0.00  0.00    -0.730 NA
ATOM      5  C   UNL     1       1.596  -5.083 -28.118  0.00  0.00    +0.810 A 
ATOM      6  N   UNL     1       1.037  -6.019 -27.287  0.00  0.00    -0.760 NA
ATOM      7  C   UNL     1       0.127  -5.613 -26.405  0.00  0.00    +0.380 A 
ATOM      8  I   UNL     1      -0.613  -6.978 -25.009  0.00  0.00    +0.000 I 
ATOM      9  N   UNL     1       2.485  -5.507 -29.035  0.00  0.00    -0.750 NA
ATOM     10  C   UNL     1      -0.247  -4.298 -26.371  0.00  0.00    +0.200 A 
ATOM     11  N   UNL     1      -1.178  -3.610 -25.601  0.00  0.00    -0.300 NA
ENDROOT
TORSDOF 0
