REMARK  Name = 9J5
REMARK  6 active torsions:
REMARK  status: ('A' for Active; 'I' for Inactive)
REMARK    1  A    between atoms: OBA_2  and  CAX_3
REMARK    2  A    between atoms: CAX_3  and  CAW_5
REMARK    3  A    between atoms: CAW_5  and  CAY_6
REMARK    4  A    between atoms: CAW_5  and  CAJ_8
REMARK    5  A    between atoms: CAP_18  and  OBD_19
REMARK    6  A    between atoms: CAH_24  and  CAE_25
REMARK                            x       y       z     vdW  Elec       q    Type
REMARK                         _______ _______ _______ _____ _____    ______ ____
ROOT
ATOM      6  C   UNL     1      17.206  65.005   8.313  0.00  0.00    +0.172 C 
ATOM      7  N   UNL     1      17.265  65.587   9.701  0.00  0.00    -0.264 NA
ATOM      8  C   UNL     1      17.790  66.720   9.926  0.00  0.00    +0.078 C 
ATOM     16  C   UNL     1      18.359  67.577   8.822  0.00  0.00    +0.034 A 
ATOM     17  C   UNL     1      19.536  68.274   9.111  0.00  0.00    +0.006 A 
ATOM     18  C   UNL     1      20.215  69.126   8.201  0.00  0.00    +0.037 A 
ATOM     19  C   UNL     1      19.733  69.330   6.922  0.00  0.00    +0.140 A 
ATOM     20  C   UNL     1      18.530  68.631   6.596  0.00  0.00    +0.055 A 
ATOM     23  C   UNL     1      17.829  67.777   7.519  0.00  0.00    +0.071 A 
ATOM     24  N   UNL     1      16.583  67.088   7.072  0.00  0.00    -0.279 N 
ATOM     25  C   UNL     1      15.431  67.457   6.247  0.00  0.00    +0.147 A 
ATOM     26  N   UNL     1      14.605  66.413   6.191  0.00  0.00    -0.133 NA
ATOM     27  N   UNL     1      15.101  65.391   6.904  0.00  0.00    -0.131 NA
ATOM     28  C   UNL     1      15.200  68.717   5.563  0.00  0.00    +0.074 C 
ATOM     29  C   UNL     1      16.287  65.751   7.448  0.00  0.00    +0.170 A 
ENDROOT
BRANCH   8   9
ATOM      9  C   UNL     1      17.522  67.297  11.361  0.00  0.00    +0.017 A 
ATOM     10  C   UNL     1      17.630  66.509  12.504  0.00  0.00    +0.002 A 
ATOM     11  C   UNL     1      17.406  67.020  13.798  0.00  0.00    +0.011 A 
ATOM     12  C   UNL     1      17.076  68.349  13.908  0.00  0.00    +0.058 A 
ATOM     13 CL   UNL     1      16.795  68.985  15.528  0.00  0.00    -0.082 Cl
ATOM     14  C   UNL     1      16.963  69.155  12.832  0.00  0.00    +0.011 A 
ATOM     15  C   UNL     1      17.195  68.612  11.562  0.00  0.00    +0.002 A 
ENDBRANCH   8   9
BRANCH  19  21
ATOM     21  O   UNL     1      20.382  70.154   6.031  0.00  0.00    -0.471 OA
ATOM     22  C   UNL     1      21.602  70.831   6.408  0.00  0.00    +0.253 C 
ENDBRANCH  19  21
BRANCH   6   5
ATOM      5  C   UNL     1      17.055  63.437   8.286  0.00  0.00    +0.129 C 
BRANCH   5   3
ATOM      3  C   UNL     1      18.185  62.768   9.107  0.00  0.00    +0.319 C 
ATOM      4  O   UNL     1      17.947  61.709   9.694  0.00  0.00    -0.250 OA
BRANCH   3   2
ATOM      1  C   UNL     1      20.402  62.590  10.026  0.00  0.00    +0.256 C 
ATOM      2  O   UNL     1      19.421  63.267   9.239  0.00  0.00    -0.444 OA
ENDBRANCH   3   2
ENDBRANCH   5   3
BRANCH   5  30
ATOM     30  C   UNL     1      17.041  62.950   6.839  0.00  0.00    +0.014 C 
ATOM     31  C   UNL     1      18.002  63.608   5.898  0.00  0.00    +0.001 C 
ENDBRANCH   5  30
ENDBRANCH   6   5
TORSDOF 6
