REMARK  Name = 5NJZ
REMARK  12 active torsions:
REMARK  status: ('A' for Active; 'I' for Inactive)
REMARK    1  A    between atoms: C_6  and  N_7
REMARK    2  A    between atoms: C_8  and  C_10
REMARK    3  A    between atoms: C_15  and  N_16
REMARK    4  A    between atoms: C_21  and  C_22
REMARK    5  A    between atoms: N_24  and  C_25
REMARK    6  A    between atoms: C_31  and  C_32
REMARK    7  A    between atoms: C_38  and  N_39
REMARK    8  A    between atoms: C_40  and  C_42
REMARK    9  A    between atoms: C_47  and  N_48
REMARK   10  A    between atoms: C_53  and  C_54
REMARK   11  A    between atoms: N_56  and  C_57
REMARK   12  A    between atoms: C_63  and  C_64
REMARK                            x       y       z     vdW  Elec       q    Type
REMARK                         _______ _______ _______ _____ _____    ______ ____
ROOT
ATOM     11  N   UNL     1     -99.378 -18.340  43.597  0.00  0.00    -0.294 N 
ATOM     12  H   UNL     1     -99.592 -17.899  42.646  0.00  0.00    +0.154 HD
ATOM     13  C   UNL     1    -100.415 -18.853  44.284  0.00  0.00    +0.163 A 
ATOM     14  N   UNL     1    -101.676 -18.838  43.806  0.00  0.00    -0.232 NA
ATOM     15  C   UNL     1    -102.601 -19.404  44.626  0.00  0.00    +0.133 A 
ATOM     16  C   UNL     1    -102.102 -19.898  45.773  0.00  0.00    +0.095 A 
ATOM     29  S   UNL     1    -100.436 -19.619  45.783  0.00  0.00    -0.048 S 
ENDROOT
BRANCH  11  10
ATOM      6  C   UNL     1     -95.768 -18.204  43.373  0.00  0.00    +0.039 A 
ATOM      7  C   UNL     1     -95.371 -18.271  44.703  0.00  0.00    +0.013 A 
ATOM      8  C   UNL     1     -96.333 -18.372  45.691  0.00  0.00    +0.003 A 
ATOM      9  C   UNL     1     -97.672 -18.397  45.332  0.00  0.00    +0.023 A 
ATOM     10  C   UNL     1     -98.090 -18.334  44.005  0.00  0.00    +0.034 A 
ATOM     30  C   UNL     1     -97.112 -18.222  43.024  0.00  0.00    +0.036 A 
BRANCH   6   5
ATOM      3  N   UNL     1     -93.777 -17.304  42.817  0.00  0.00    -0.308 N 
ATOM      4  H   UNL     1     -93.831 -16.942  43.823  0.00  0.00    +0.149 HD
ATOM      5  C   UNL     1     -94.791 -18.073  42.398  0.00  0.00    +0.244 C 
ATOM     31  O   UNL     1     -94.913 -18.575  41.280  0.00  0.00    -0.270 OA
BRANCH   3   2
ATOM      1  C   UNL     1     -93.010 -16.030  40.872  0.00  0.00    +0.037 C 
ATOM      2  C   UNL     1     -92.598 -16.907  42.035  0.00  0.00    +0.076 C 
ATOM     32  C   UNL     1     -91.818 -18.111  41.519  0.00  0.00    +0.037 C 
ATOM     33  C   UNL     1     -90.797 -17.613  40.498  0.00  0.00    +0.083 C 
ATOM     34  N   UNL     1     -90.544 -16.171  40.671  0.00  0.00    -0.316 NA
ATOM     35  H   UNL     1     -90.282 -15.980  41.691  0.00  0.00    +0.122 HD
ATOM     36  C   UNL     1     -91.746 -15.388  40.324  0.00  0.00    +0.083 C 
ENDBRANCH   3   2
ENDBRANCH   6   5
ENDBRANCH  11  10
BRANCH  16  17
ATOM     17  C   UNL     1    -102.769 -20.522  46.772  0.00  0.00    +0.257 C 
ATOM     18  N   UNL     1    -104.056 -20.888  46.550  0.00  0.00    -0.280 N 
ATOM     19  H   UNL     1    -104.525 -20.682  45.611  0.00  0.00    +0.155 HD
ATOM     28  O   UNL     1    -102.179 -20.777  47.822  0.00  0.00    -0.269 OA
BRANCH  18  20
ATOM     20  C   UNL     1    -104.741 -21.521  47.541  0.00  0.00    +0.055 A 
ATOM     21  C   UNL     1    -104.964 -22.898  47.465  0.00  0.00    -0.028 A 
ATOM     22  C   UNL     1    -104.482 -23.646  46.395  0.00  0.00    +0.045 C 
ATOM     23  C   UNL     1    -105.673 -23.535  48.483  0.00  0.00    +0.005 A 
ATOM     24  C   UNL     1    -106.161 -22.811  49.567  0.00  0.00    +0.002 A 
ATOM     25  C   UNL     1    -105.942 -21.432  49.629  0.00  0.00    +0.022 A 
ATOM     26  C   UNL     1    -105.233 -20.784  48.617  0.00  0.00    +0.062 A 
ATOM     27 CL   UNL     1    -104.965 -19.063  48.715  0.00  0.00    -0.082 Cl
ENDBRANCH  18  20
ENDBRANCH  16  17
TORSDOF 5
