REMARK  Name = 1SNU
REMARK  5 active torsions:
REMARK  status: ('A' for Active; 'I' for Inactive)
REMARK    1  A    between atoms: C_4  and  N_34
REMARK    2  A    between atoms: C_5  and  O_32
REMARK    3  A    between atoms: C_6  and  C_7
REMARK    4  A    between atoms: O_32  and  C_33
REMARK    5  A    between atoms: N_34  and  C_35
REMARK                            x       y       z     vdW  Elec       q    Type
REMARK                         _______ _______ _______ _____ _____    ______ ____
ROOT
ATOM      1  O   UNL     1      22.533 -11.407   7.699  0.00  0.00    -0.328 OA
ATOM      2  C   UNL     1      21.541 -10.402   8.123  0.00  0.00    +0.174 C 
ATOM      3  N   UNL     1      21.088  -9.631   6.883  0.00  0.00    -0.307 N 
ATOM      4  C   UNL     1      19.838  -9.051   6.629  0.00  0.00    +0.053 A 
ATOM      5  C   UNL     1      18.636  -9.045   7.386  0.00  0.00    +0.026 A 
ATOM      6  C   UNL     1      17.465  -8.334   6.918  0.00  0.00    +0.002 A 
ATOM      7  C   UNL     1      17.542  -7.627   5.661  0.00  0.00    +0.001 A 
ATOM      8  C   UNL     1      18.757  -7.641   4.898  0.00  0.00    +0.010 A 
ATOM      9  C   UNL     1      19.877  -8.348   5.414  0.00  0.00    +0.008 A 
ATOM     10  C   UNL     1      21.100  -8.447   4.808  0.00  0.00    +0.015 A 
ATOM     11  C   UNL     1      21.777  -7.976   3.597  0.00  0.00    -0.008 A 
ATOM     12  C   UNL     1      21.214  -7.144   2.487  0.00  0.00    +0.141 C 
ATOM     13  N   UNL     1      22.391  -7.015   1.613  0.00  0.00    -0.307 N 
ATOM     14  H   UNL     1      22.398  -6.459   0.699  0.00  0.00    +0.149 HD
ATOM     15  C   UNL     1      23.474  -7.688   2.106  0.00  0.00    +0.245 C 
ATOM     16  O   UNL     1      24.578  -7.767   1.614  0.00  0.00    -0.270 OA
ATOM     17  C   UNL     1      23.101  -8.298   3.317  0.00  0.00    +0.052 A 
ATOM     18  C   UNL     1      23.868  -9.055   4.191  0.00  0.00    +0.022 A 
ATOM     19  C   UNL     1      25.161  -9.602   4.198  0.00  0.00    +0.009 A 
ATOM     20  C   UNL     1      26.205  -9.472   3.187  0.00  0.00    +0.010 A 
ATOM     21  C   UNL     1      27.423 -10.173   3.413  0.00  0.00    +0.001 A 
ATOM     22  C   UNL     1      27.629 -10.960   4.608  0.00  0.00    +0.002 A 
ATOM     23  C   UNL     1      26.621 -11.093   5.628  0.00  0.00    +0.026 A 
ATOM     24  C   UNL     1      25.392 -10.399   5.415  0.00  0.00    +0.052 A 
ATOM     25  N   UNL     1      24.217 -10.390   6.201  0.00  0.00    -0.312 N 
ATOM     26  C   UNL     1      23.339  -9.597   5.424  0.00  0.00    +0.077 A 
ATOM     27  C   UNL     1      21.886  -9.250   5.756  0.00  0.00    +0.077 A 
ATOM     28  C   UNL     1      20.486 -11.245   8.883  0.00  0.00    +0.069 C 
ATOM     29  C   UNL     1      22.063  -9.287   9.208  0.00  0.00    +0.187 C 
ATOM     32  C   UNL     1      23.440  -9.836   9.778  0.00  0.00    +0.091 C 
ATOM     36  C   UNL     1      24.472  -9.990   8.604  0.00  0.00    +0.076 C 
ATOM     37  C   UNL     1      24.001 -11.061   7.506  0.00  0.00    +0.224 C 
ENDROOT
BRANCH  32  33
ATOM     33  N   UNL     1      23.970  -8.928  10.801  0.00  0.00    -0.314 NA
ATOM     34  H   UNL     1      23.136  -8.438  11.259  0.00  0.00    +0.122 HD
ATOM     35  C   UNL     1      24.785  -9.527  11.886  0.00  0.00    +0.101 C 
ENDBRANCH  32  33
BRANCH  29  30
ATOM     30  O   UNL     1      22.326  -7.996   8.529  0.00  0.00    -0.374 OA
ATOM     31  C   UNL     1      21.572  -6.776   8.757  0.00  0.00    +0.194 C 
ENDBRANCH  29  30
TORSDOF 2
