REMARK  Name = 4GUB
REMARK  8 active torsions:
REMARK  status: ('A' for Active; 'I' for Inactive)
REMARK    1  A    between atoms: C_1  and  C_2
REMARK    2  A    between atoms: C_4  and  N_20
REMARK    3  A    between atoms: C_5  and  C_6
REMARK    4  A    between atoms: C_9  and  N_26
REMARK    5  A    between atoms: C_11  and  C_13
REMARK    6  A    between atoms: C_16  and  N_29
REMARK    7  A    between atoms: C_18  and  N_22
REMARK    8  A    between atoms: N_26  and  C_27
REMARK                            x       y       z     vdW  Elec       q    Type
REMARK                         _______ _______ _______ _____ _____    ______ ____
ROOT
ATOM     11  N   UNL     1      25.055  57.832   3.435  0.00  0.00    -0.200 N 
ATOM     12  H   UNL     1      24.194  58.459   3.333  0.00  0.00    +0.298 HD
ATOM     13  C   UNL     1      25.566  57.291   2.268  0.00  0.00    +0.324 C 
ATOM     14  N   UNL     1      26.589  56.483   2.205  0.00  0.00    -0.015 NA
ATOM     15  C   UNL     1      26.963  56.019   0.991  0.00  0.00    +0.430 C 
ATOM     16  N   UNL     1      26.293  56.390  -0.148  0.00  0.00    -0.067 N 
ATOM     17  N   UNL     1      26.843  55.823  -1.236  0.00  0.00    -0.195 N 
ATOM     18  H   UNL     1      26.529  55.949  -2.251  0.00  0.00    +0.194 HD
ATOM     19  C   UNL     1      27.856  55.073  -0.801  0.00  0.00    +0.134 C 
ATOM     20  C   UNL     1      25.221  57.239  -0.117  0.00  0.00    +0.297 C 
ATOM     29  C   UNL     1      27.965  55.159   0.600  0.00  0.00    +0.151 C 
ATOM     32  C   UNL     1      24.809  57.715   1.064  0.00  0.00    +0.194 C 
ENDROOT
BRANCH  11  10
ATOM      1  C   UNL     1      26.884  57.243   8.815  0.00  0.00    +0.045 C 
ATOM      2  C   UNL     1      26.432  57.338   7.387  0.00  0.00    -0.029 A 
ATOM      3  C   UNL     1      26.867  56.484   6.383  0.00  0.00    +0.040 A 
ATOM      9  C   UNL     1      26.403  56.628   5.091  0.00  0.00    +0.072 A 
ATOM     10  C   UNL     1      25.545  57.647   4.740  0.00  0.00    +0.120 A 
ATOM     33  C   UNL     1      25.121  58.504   5.738  0.00  0.00    +0.049 A 
ATOM     34  C   UNL     1      25.554  58.345   7.044  0.00  0.00    +0.009 A 
BRANCH   3   4
ATOM      4  N   UNL     1      27.761  55.434   6.626  0.00  0.00    -0.285 N 
ATOM      5  H   UNL     1      27.397  54.636   7.239  0.00  0.00    +0.155 HD
ATOM      6  C   UNL     1      29.063  55.306   6.165  0.00  0.00    +0.214 C 
ATOM      7  O   UNL     1      29.792  54.398   6.530  0.00  0.00    -0.276 OA
ATOM      8  C   UNL     1      29.569  56.295   5.155  0.00  0.00    +0.109 C 
ENDBRANCH   3   4
ENDBRANCH  11  10
BRANCH  20  21
ATOM     21  N   UNL     1      24.643  57.512  -1.341  0.00  0.00    -0.186 N 
ATOM     22  H   UNL     1      24.954  56.930  -2.183  0.00  0.00    +0.300 HD
BRANCH  21  23
ATOM     23  C   UNL     1      23.706  58.471  -1.543  0.00  0.00    +0.230 A 
ATOM     24  C   UNL     1      22.491  58.583  -0.899  0.00  0.00    +0.157 A 
ATOM     25  N   UNL     1      21.939  59.697  -1.450  0.00  0.00    -0.336 N 
ATOM     26  C   UNL     1      22.795  60.200  -2.386  0.00  0.00    +0.203 A 
ATOM     27  C   UNL     1      20.656  60.256  -1.110  0.00  0.00    +0.150 C 
ATOM     28  N   UNL     1      23.884  59.468  -2.462  0.00  0.00    -0.199 NA
ENDBRANCH  21  23
ENDBRANCH  20  21
BRANCH  29  30
ATOM     30  C   UNL     1      28.926  54.530   1.436  0.00  0.00    +0.106 C 
ATOM     31  N   UNL     1      29.720  54.019   2.109  0.00  0.00    -0.191 NA
ENDBRANCH  29  30
TORSDOF 5
