REMARK  Name = 3cp9_ligand
REMARK  5 active torsions:
REMARK  status: ('A' for Active; 'I' for Inactive)
REMARK    1  A    between atoms: C9_8  and  C16_12
REMARK    2  A    between atoms: N18_14  and  C27_20
REMARK    3  A    between atoms: C21_17  and  C22_18
REMARK    4  A    between atoms: C36_26  and  C41_29
REMARK    5  A    between atoms: C36_26  and  C45_30
REMARK                            x       y       z     vdW  Elec       q    Type
REMARK                         _______ _______ _______ _____ _____    ______ ____
ROOT
ATOM     11  C   UNL     1      15.881  32.553  31.607  0.00  0.00    +0.048 A 
ATOM     12  C   UNL     1      17.250  32.321  31.619  0.00  0.00    -0.038 A 
ATOM     13  C   UNL     1      17.950  30.999  31.358  0.00  0.00    +0.100 C 
ATOM     14  C   UNL     1      18.197  33.423  31.942  0.00  0.00    +0.025 A 
ATOM     15  C   UNL     1      17.736  34.668  32.246  0.00  0.00    +0.227 A 
ATOM     16  N   UNL     1      16.255  34.947  32.246  0.00  0.00    -0.143 N 
ATOM     29  C   UNL     1      15.339  33.932  31.933  0.00  0.00    +0.247 A 
ATOM     30  O   UNL     1      14.115  34.102  31.916  0.00  0.00    -0.393 OA
ENDROOT
BRANCH  11  10
ATOM      1  N   UNL     1      12.355  27.579  32.755  0.00  0.00    -0.246 NA
ATOM      2  C   UNL     1      11.915  27.466  31.470  0.00  0.00    +0.183 A 
ATOM      3  N   UNL     1      11.073  26.478  31.193  0.00  0.00    -0.304 N 
ATOM      4  H   UNL     1      10.708  26.365  30.236  0.00  0.00    +0.183 HD
ATOM      5  H   UNL     1      10.785  25.824  31.935  0.00  0.00    +0.183 HD
ATOM      6  N   UNL     1      12.248  28.284  30.447  0.00  0.00    -0.270 NA
ATOM      7  C   UNL     1      13.129  29.330  30.684  0.00  0.00    +0.037 A 
ATOM      8  C   UNL     1      13.530  30.242  29.674  0.00  0.00    +0.017 A 
ATOM      9  C   UNL     1      14.431  31.294  29.971  0.00  0.00    +0.009 A 
ATOM     10  C   UNL     1      14.936  31.459  31.295  0.00  0.00    -0.027 A 
ATOM     31  C   UNL     1      14.537  30.556  32.328  0.00  0.00    +0.006 A 
ATOM     32  C   UNL     1      13.629  29.503  32.033  0.00  0.00    +0.013 A 
ATOM     33  C   UNL     1      13.226  28.591  33.059  0.00  0.00    +0.126 A 
ENDBRANCH  11  10
BRANCH  16  17
ATOM     17  C   UNL     1      15.796  36.217  32.580  0.00  0.00    +0.134 A 
ATOM     18  C   UNL     1      14.921  36.349  33.709  0.00  0.00    +0.073 A 
ATOM     19  C   UNL     1      14.451  37.618  34.063  0.00  0.00    +0.058 A 
ATOM     20  N   UNL     1      13.628  37.940  35.073  0.00  0.00    -0.318 N 
ATOM     21  H   UNL     1      13.134  37.251  35.657  0.00  0.00    +0.188 HD
ATOM     22  C   UNL     1      13.517  39.394  35.244  0.00  0.00    +0.071 C 
ATOM     23  C   UNL     1      14.153  39.999  33.967  0.00  0.00    -0.052 C 
ATOM     24  C   UNL     1      15.178  41.081  34.319  0.00  0.00    -0.078 C 
ATOM     25  C   UNL     1      13.066  40.532  33.025  0.00  0.00    -0.078 C 
ATOM     26  C   UNL     1      14.811  38.773  33.357  0.00  0.00    -0.051 A 
ATOM     27  C   UNL     1      15.685  38.682  32.229  0.00  0.00    +0.019 A 
ATOM     28  C   UNL     1      16.175  37.390  31.843  0.00  0.00    +0.054 A 
ENDBRANCH  16  17
TORSDOF 2
