REMARK  Name = 5J8I
REMARK  8 active torsions:
REMARK  status: ('A' for Active; 'I' for Inactive)
REMARK    1  A    between atoms: C_4  and  N_18
REMARK    2  A    between atoms: C_8  and  O_21
REMARK    3  A    between atoms: C_9  and  N_10
REMARK    4  A    between atoms: N_15  and  C_16
REMARK    5  A    between atoms: O_21  and  C_22
REMARK    6  A    between atoms: C_27  and  N_28
REMARK    7  A    between atoms: C_29  and  C_30
REMARK    8  A    between atoms: C_30  and  C_31
REMARK                            x       y       z     vdW  Elec       q    Type
REMARK                         _______ _______ _______ _____ _____    ______ ____
ROOT
ATOM     14  N   UNL     1     -15.875 -47.251 -16.734  0.00  0.00    -0.283 N 
ATOM     15  H   UNL     1     -16.463 -47.007 -15.874  0.00  0.00    +0.155 HD
ATOM     16  C   UNL     1     -14.583 -47.604 -16.221  0.00  0.00    +0.223 A 
ATOM     17  N   UNL     1     -14.096 -48.818 -16.336  0.00  0.00    -0.178 NA
ATOM     18  C   UNL     1     -12.904 -49.102 -15.852  0.00  0.00    +0.243 A 
ATOM     32  C   UNL     1     -12.167 -48.088 -15.207  0.00  0.00    +0.121 A 
ATOM     33 CL   UNL     1     -10.553 -48.426 -14.535  0.00  0.00    -0.076 Cl
ATOM     34  C   UNL     1     -12.705 -46.833 -15.103  0.00  0.00    +0.139 A 
ATOM     35  N   UNL     1     -13.900 -46.634 -15.614  0.00  0.00    -0.221 NA
ENDROOT
BRANCH  14  13
ATOM      1  C   UNL     1     -16.212 -49.190 -18.272  0.00  0.00    +0.025 A 
ATOM      2  C   UNL     1     -17.061 -50.003 -19.064  0.00  0.00    +0.025 A 
ATOM      3  C   UNL     1     -18.412 -49.730 -19.136  0.00  0.00    +0.030 A 
ATOM     11  C   UNL     1     -18.953 -48.643 -18.430  0.00  0.00    +0.025 A 
ATOM     12  C   UNL     1     -18.111 -47.840 -17.645  0.00  0.00    +0.025 A 
ATOM     13  C   UNL     1     -16.738 -48.122 -17.564  0.00  0.00    +0.034 A 
BRANCH   3   4
ATOM      4  N   UNL     1     -19.283 -50.611 -19.989  0.00  0.00    -0.328 N 
ATOM      5  C   UNL     1     -18.680 -51.300 -21.126  0.00  0.00    +0.120 C 
ATOM      6  C   UNL     1     -19.538 -52.384 -21.802  0.00  0.00    +0.103 C 
ATOM      7  N   UNL     1     -20.869 -52.347 -21.418  0.00  0.00    -0.302 NA
ATOM      8  C   UNL     1     -21.334 -51.073 -21.391  0.00  0.00    +0.103 C 
ATOM      9  C   UNL     1     -21.571 -53.052 -22.231  0.00  0.00    +0.105 C 
ATOM     10  C   UNL     1     -20.675 -50.254 -20.255  0.00  0.00    +0.120 C 
ENDBRANCH   3   4
ENDBRANCH  14  13
BRANCH  18  19
ATOM     19  O   UNL     1     -12.340 -50.393 -15.947  0.00  0.00    -0.435 OA
BRANCH  19  20
ATOM     20  C   UNL     1     -12.746 -51.124 -17.089  0.00  0.00    +0.152 A 
ATOM     21  C   UNL     1     -11.927 -51.129 -18.269  0.00  0.00    +0.076 A 
ATOM     28  C   UNL     1     -12.311 -51.868 -19.414  0.00  0.00    +0.027 A 
ATOM     29  C   UNL     1     -13.489 -52.609 -19.393  0.00  0.00    +0.002 A 
ATOM     30  C   UNL     1     -14.295 -52.616 -18.222  0.00  0.00    +0.004 A 
ATOM     31  C   UNL     1     -13.908 -51.869 -17.066  0.00  0.00    +0.048 A 
BRANCH  21  22
ATOM     22  N   UNL     1     -10.691 -50.362 -18.304  0.00  0.00    -0.283 N 
ATOM     23  H   UNL     1     -10.557 -49.950 -17.326  0.00  0.00    +0.155 HD
ATOM     24  C   UNL     1      -9.439 -51.004 -18.660  0.00  0.00    +0.217 C 
ATOM     25  O   UNL     1      -9.377 -52.144 -18.927  0.00  0.00    -0.276 OA
BRANCH  24  26
ATOM     26  C   UNL     1      -8.191 -50.145 -18.667  0.00  0.00    +0.093 C 
ATOM     27  C   UNL     1      -8.472 -48.864 -17.752  0.00  0.00    +0.013 C 
ENDBRANCH  24  26
ENDBRANCH  21  22
ENDBRANCH  19  20
ENDBRANCH  18  19
TORSDOF 6
