REMARK  Name = 4FTI
REMARK  8 active torsions:
REMARK  status: ('A' for Active; 'I' for Inactive)
REMARK    1  A    between atoms: C_2  and  O_3
REMARK    2  A    between atoms: C_2  and  C_5
REMARK    3  A    between atoms: O_3  and  C_4
REMARK    4  A    between atoms: C_9  and  C_10
REMARK    5  A    between atoms: C_21  and  C_22
REMARK    6  A    between atoms: C_22  and  N_23
REMARK    7  A    between atoms: N_23  and  C_24
REMARK    8  A    between atoms: C_29  and  O_30
REMARK                            x       y       z     vdW  Elec       q    Type
REMARK                         _______ _______ _______ _____ _____    ______ ____
ROOT
ATOM      7  C   UNL     1      15.133  -3.204   9.892  0.00  0.00    +0.105 A 
ATOM      8  C   UNL     1      16.335  -3.935   9.982  0.00  0.00    +0.013 A 
ATOM      9  C   UNL     1      17.025  -5.087  10.565  0.00  0.00    +0.075 C 
ATOM     10  C   UNL     1      18.451  -4.900  10.132  0.00  0.00    -0.033 A 
ATOM     11  C   UNL     1      19.582  -5.656  10.422  0.00  0.00    +0.009 A 
ATOM     12  C   UNL     1      20.816  -5.367   9.851  0.00  0.00    -0.033 A 
ATOM     24  C   UNL     1      20.903  -4.270   9.001  0.00  0.00    +0.005 A 
ATOM     25  C   UNL     1      19.791  -3.498   8.714  0.00  0.00    +0.010 A 
ATOM     26  C   UNL     1      18.554  -3.807   9.278  0.00  0.00    +0.006 A 
ATOM     27  C   UNL     1      17.254  -3.182   9.193  0.00  0.00    +0.097 A 
ATOM     28  N   UNL     1      16.670  -2.106   8.658  0.00  0.00    -0.173 NA
ATOM     29  N   UNL     1      15.376  -2.139   9.096  0.00  0.00    -0.273 N 
ATOM     30  H   UNL     1      14.731  -1.409   8.812  0.00  0.00    +0.189 HD
ENDROOT
BRANCH   7   6
ATOM      3  C   UNL     1      12.579  -4.515  11.992  0.00  0.00    +0.212 A 
ATOM      4  C   UNL     1      11.917  -3.394  11.624  0.00  0.00    +0.057 A 
ATOM      5  C   UNL     1      12.763  -2.681  10.744  0.00  0.00    +0.052 A 
ATOM      6  C   UNL     1      13.894  -3.401  10.613  0.00  0.00    +0.154 A 
ATOM     31  O   UNL     1      13.808  -4.546  11.375  0.00  0.00    -0.447 OA
BRANCH   3   2
ATOM      1  O   UNL     1      11.087  -5.685  13.447  0.00  0.00    -0.241 OA
ATOM      2  C   UNL     1      12.162  -5.632  12.901  0.00  0.00    +0.375 C 
BRANCH   2  32
ATOM     32  O   UNL     1      13.118  -6.559  13.026  0.00  0.00    -0.462 OA
ATOM     33  C   UNL     1      12.759  -7.771  13.738  0.00  0.00    +0.280 C 
ENDBRANCH   2  32
ENDBRANCH   3   2
ENDBRANCH   7   6
BRANCH  12  13
ATOM     13  C   UNL     1      21.996  -6.282  10.062  0.00  0.00    +0.116 C 
BRANCH  13  14
ATOM     14  N   UNL     1      22.101  -7.247   8.965  0.00  0.00    -0.309 NA
ATOM     15  H   UNL     1      21.322  -7.897   8.958  0.00  0.00    +0.123 HD
BRANCH  14  16
ATOM     16  C   UNL     1      23.407  -7.893   8.727  0.00  0.00    +0.054 C 
ATOM     17  C   UNL     1      23.592  -9.167   9.536  0.00  0.00    +0.021 C 
ATOM     18  C   UNL     1      24.418 -10.213   8.784  0.00  0.00    +0.033 C 
ATOM     19  C   UNL     1      25.456  -9.560   7.896  0.00  0.00    +0.115 C 
ATOM     22  C   UNL     1      24.791  -8.769   6.789  0.00  0.00    +0.033 C 
ATOM     23  C   UNL     1      23.444  -8.191   7.234  0.00  0.00    +0.021 C 
BRANCH  19  20
ATOM     20  O   UNL     1      26.325 -10.552   7.339  0.00  0.00    -0.392 OA
ATOM     21  H   UNL     1      27.101 -10.616   7.955  0.00  0.00    +0.210 HD
ENDBRANCH  19  20
ENDBRANCH  14  16
ENDBRANCH  13  14
ENDBRANCH  12  13
TORSDOF 7
