REMARK  Name = ADX
REMARK  12 active torsions:
REMARK  status: ('A' for Active; 'I' for Inactive)
REMARK    1  A    between atoms: SB_1  and  O3A_8
REMARK    2  A    between atoms: PA_5  and  O3A_8
REMARK    3  A    between atoms: PA_5  and  O5'_9
REMARK    4  A    between atoms: O5'_9  and  C5'_10
REMARK    5  A    between atoms: C5'_10  and  C4'_11
REMARK    6  A    between atoms: C1'_17  and  N9_18
REMARK    7  A    between atoms: SB_28  and  O3A_35
REMARK    8  A    between atoms: PA_32  and  O3A_35
REMARK    9  A    between atoms: PA_32  and  O5'_36
REMARK   10  A    between atoms: O5'_36  and  C5'_37
REMARK   11  A    between atoms: C5'_37  and  C4'_38
REMARK   12  A    between atoms: C1'_44  and  N9_45
REMARK                            x       y       z     vdW  Elec       q    Type
REMARK                         _______ _______ _______ _____ _____    ______ ____
ROOT
ATOM      8  C   UNL     1     -18.498  -4.740  95.742  0.00  0.00    +0.180 C 
ATOM      9  C   UNL     1     -17.236  -4.589  96.578  0.00  0.00    +0.216 C 
ATOM     10  O   UNL     1     -17.589  -4.683  97.962  0.00  0.00    -0.218 OA
ATOM     11  C   UNL     1     -16.364  -5.761  96.178  0.00  0.00    +0.234 C 
ATOM     12  O   UNL     1     -15.595  -6.256  97.284  0.00  0.00    -0.216 OA
ATOM     13  C   UNL     1     -17.347  -6.800  95.643  0.00  0.00    +0.241 C 
ATOM     24  O   UNL     1     -18.517  -6.075  95.239  0.00  0.00    -0.331 OA
ENDROOT
BRANCH  13  14
ATOM     14  N   UNL     1     -16.772  -7.498  94.465  0.00  0.00    -0.269 N 
ATOM     15  C   UNL     1     -16.453  -8.808  94.372  0.00  0.00    +0.182 A 
ATOM     16  N   UNL     1     -15.942  -9.110  93.149  0.00  0.00    -0.219 NA
ATOM     17  C   UNL     1     -15.940  -7.971  92.432  0.00  0.00    +0.152 A 
ATOM     18  C   UNL     1     -15.543  -7.560  91.068  0.00  0.00    +0.192 A 
ATOM     19  N   UNL     1     -15.701  -6.259  90.725  0.00  0.00    -0.204 NA
ATOM     20  C   UNL     1     -16.206  -5.350  91.579  0.00  0.00    +0.202 A 
ATOM     21  N   UNL     1     -16.598  -5.647  92.831  0.00  0.00    -0.205 NA
ATOM     22  N   UNL     1     -15.032  -8.444  90.187  0.00  0.00    -0.105 NA
ATOM     23  C   UNL     1     -16.490  -6.914  93.302  0.00  0.00    +0.169 A 
ENDBRANCH  13  14
BRANCH   8   7
ATOM      7  C   UNL     1     -18.519  -3.765  94.574  0.00  0.00    +0.181 C 
BRANCH   7   6
ATOM      6  O   UNL     1     -19.187  -2.586  94.983  0.00  0.00    -0.310 OA
BRANCH   6   4
ATOM      4  P   UNL     1     -18.918  -1.131  94.325  0.00  0.00    +0.238 P 
ATOM      5  O   UNL     1     -19.180  -0.155  95.441  0.00  0.00    -0.436 OA
ATOM     25  O   UNL     1     -17.642  -1.043  93.532  0.00  0.00    -0.516 OA
BRANCH   4   3
ATOM      3  O   UNL     1     -20.156  -1.141  93.304  0.00  0.00    -0.195 OA
BRANCH   3   1
ATOM      1  S   UNL     1     -20.793   0.182  92.592  0.00  0.00    +0.005 S 
ATOM      2  O   UNL     1     -21.957   0.600  93.368  0.00  0.00    -0.268 OA
ATOM     26  O   UNL     1     -19.804   1.284  92.494  0.00  0.00    -0.345 OA
ATOM     27  O   UNL     1     -21.161  -0.299  91.242  0.00  0.00    -0.345 OA
ENDBRANCH   3   1
ENDBRANCH   4   3
ENDBRANCH   6   4
ENDBRANCH   7   6
ENDBRANCH   8   7
TORSDOF 6
