REMARK  Name = 1UWJ
REMARK  9 active torsions:
REMARK  status: ('A' for Active; 'I' for Inactive)
REMARK    1  A    between atoms: C_2  and  N_26
REMARK    2  A    between atoms: C_6  and  N_27
REMARK    3  A    between atoms: C_9  and  O_12
REMARK    4  A    between atoms: O_12  and  C_29
REMARK    5  A    between atoms: C_15  and  C_31
REMARK    6  A    between atoms: N_17  and  C_18
REMARK    7  A    between atoms: N_17  and  C_31
REMARK    8  A    between atoms: C_20  and  C_21
REMARK    9  A    between atoms: C_31  and  O_32
REMARK                            x       y       z     vdW  Elec       q    Type
REMARK                         _______ _______ _______ _____ _____    ______ ____
ROOT
ATOM     18  C   UNL     1       5.317  22.705  32.589  0.00  0.00    +0.035 A 
ATOM     19  C   UNL     1       5.973  21.635  33.217  0.00  0.00    +0.027 A 
ATOM     20  C   UNL     1       6.860  20.843  32.493  0.00  0.00    +0.048 A 
ATOM     21  C   UNL     1       7.096  21.100  31.138  0.00  0.00    +0.129 A 
ATOM     35  C   UNL     1       6.454  22.146  30.489  0.00  0.00    +0.048 A 
ATOM     36  C   UNL     1       5.569  22.971  31.175  0.00  0.00    +0.027 A 
ENDROOT
BRANCH  18  16
ATOM     12  N   UNL     1       3.593  24.713  35.694  0.00  0.00    -0.269 N 
ATOM     13  H   UNL     1       2.873  25.204  35.073  0.00  0.00    +0.156 HD
ATOM     14  C   UNL     1       4.481  23.828  34.799  0.00  0.00    +0.308 C 
ATOM     15  O   UNL     1       5.599  23.802  35.225  0.00  0.00    -0.252 OA
ATOM     16  N   UNL     1       4.290  23.581  33.419  0.00  0.00    -0.269 N 
ATOM     17  H   UNL     1       3.435  23.994  32.926  0.00  0.00    +0.156 HD
BRANCH  12  11
ATOM      1  C   UNL     1       4.484  25.479  37.766  0.00  0.00    +0.037 A 
ATOM      2  C   UNL     1       4.368  25.862  39.094  0.00  0.00    +0.075 A 
ATOM      7  C   UNL     1       3.031  25.846  39.650  0.00  0.00    +0.053 A 
ATOM      8 CL   UNL     1       2.670  26.284  41.327  0.00  0.00    -0.083 Cl
ATOM      9  C   UNL     1       1.930  25.479  38.871  0.00  0.00    +0.022 A 
ATOM     10  C   UNL     1       2.103  25.112  37.569  0.00  0.00    +0.025 A 
ATOM     11  C   UNL     1       3.377  25.116  37.025  0.00  0.00    +0.035 A 
BRANCH   2   3
ATOM      3  C   UNL     1       5.522  26.224  39.813  0.00  0.00    +0.419 C 
ATOM      4  F   UNL     1       6.675  25.750  39.290  0.00  0.00    -0.166 F 
ATOM      5  F   UNL     1       5.457  25.727  41.072  0.00  0.00    -0.166 F 
ATOM      6  F   UNL     1       5.628  27.559  39.831  0.00  0.00    -0.166 F 
ENDBRANCH   2   3
ENDBRANCH  12  11
ENDBRANCH  18  16
BRANCH  21  22
ATOM     22  O   UNL     1       7.956  20.322  30.429  0.00  0.00    -0.456 OA
BRANCH  22  23
ATOM     23  C   UNL     1       9.328  20.498  30.599  0.00  0.00    +0.132 A 
ATOM     24  C   UNL     1       9.974  19.369  30.376  0.00  0.00    +0.073 A 
ATOM     25  C   UNL     1      11.287  19.245  30.462  0.00  0.00    +0.088 A 
ATOM     32  N   UNL     1      12.081  20.366  30.811  0.00  0.00    -0.256 NA
ATOM     33  C   UNL     1      11.449  21.649  31.074  0.00  0.00    +0.115 A 
ATOM     34  C   UNL     1      10.058  21.725  30.969  0.00  0.00    +0.066 A 
BRANCH  25  26
ATOM     26  C   UNL     1      11.795  17.804  30.152  0.00  0.00    +0.232 C 
BRANCH  26  29
ATOM     29  N   UNL     1      11.008  16.597  29.770  0.00  0.00    -0.290 NA
ATOM     30  H   UNL     1      10.016  16.691  30.159  0.00  0.00    +0.124 HD
ATOM     31  C   UNL     1      11.608  15.386  30.296  0.00  0.00    +0.103 C 
ENDBRANCH  26  29
BRANCH  26  27
ATOM     27  O   UNL     1      13.026  17.723  29.855  0.00  0.00    -0.372 OA
ATOM     28  H   UNL     1      13.219  18.301  29.000  0.00  0.00    +0.212 HD
ENDBRANCH  26  27
ENDBRANCH  25  26
ENDBRANCH  22  23
ENDBRANCH  21  22
TORSDOF 8
