REMARK  Name = 5MO5
REMARK  9 active torsions:
REMARK  status: ('A' for Active; 'I' for Inactive)
REMARK    1  A    between atoms: C_1  and  C_18
REMARK    2  A    between atoms: C_1  and  N_19
REMARK    3  A    between atoms: C_2  and  N_17
REMARK    4  A    between atoms: C_2  and  C_18
REMARK    5  A    between atoms: C_3  and  C_4
REMARK    6  A    between atoms: C_3  and  N_17
REMARK    7  A    between atoms: C_6  and  C_9
REMARK    8  A    between atoms: N_19  and  S_20
REMARK    9  A    between atoms: S_20  and  C_23
REMARK                            x       y       z     vdW  Elec       q    Type
REMARK                         _______ _______ _______ _____ _____    ______ ____
ROOT
ATOM     13  C   UNL     1       4.638 138.585 353.995  0.00  0.00    -0.032 A 
ATOM     14  C   UNL     1       3.543 139.063 353.291  0.00  0.00    +0.025 A 
ATOM     15  C   UNL     1       3.496 140.380 352.879  0.00  0.00    +0.049 A 
ATOM     16 CL   UNL     1       2.151 140.869 351.902  0.00  0.00    -0.083 Cl
ATOM     17  C   UNL     1       4.521 141.280 353.175  0.00  0.00    +0.001 A 
ATOM     18  C   UNL     1       5.631 140.785 353.865  0.00  0.00    +0.010 A 
ATOM     25  C   UNL     1       5.686 139.458 354.256  0.00  0.00    +0.005 A 
ENDROOT
BRANCH  17  19
ATOM     19  C   UNL     1       4.487 142.734 352.842  0.00  0.00    -0.017 A 
ATOM     20  C   UNL     1       3.452 143.553 353.303  0.00  0.00    +0.008 A 
ATOM     21  C   UNL     1       3.450 144.915 353.037  0.00  0.00    +0.001 A 
ATOM     22  C   UNL     1       4.483 145.487 352.315  0.00  0.00    +0.000 A 
ATOM     23  C   UNL     1       5.515 144.690 351.848  0.00  0.00    +0.001 A 
ATOM     24  C   UNL     1       5.510 143.324 352.098  0.00  0.00    +0.008 A 
ENDBRANCH  17  19
BRANCH  13  12
ATOM     12  C   UNL     1       4.614 137.186 354.563  0.00  0.00    +0.116 C 
BRANCH  12  10
ATOM     10  N   UNL     1       5.915 136.519 354.584  0.00  0.00    -0.312 NA
ATOM     11  H   UNL     1       6.309 136.501 353.589  0.00  0.00    +0.122 HD
BRANCH  10   9
ATOM      9  C   UNL     1       5.821 135.149 355.078  0.00  0.00    +0.082 C 
BRANCH   9   8
ATOM      8  C   UNL     1       6.964 134.780 355.985  0.00  0.00    +0.032 C 
BRANCH   8   1
ATOM      1  C   UNL     1       7.159 133.284 356.044  0.00  0.00    +0.106 C 
BRANCH   1   2
ATOM      2  N   UNL     1       8.107 132.917 357.100  0.00  0.00    -0.195 NA
ATOM      3  H   UNL     1       8.357 133.826 357.606  0.00  0.00    +0.148 HD
BRANCH   2   4
ATOM      4  S   UNL     1       7.737 131.843 358.256  0.00  0.00    +0.026 S 
ATOM      5  C   UNL     1       7.440 130.306 357.467  0.00  0.00    +0.214 C 
ATOM      6  O   UNL     1       8.895 131.699 359.080  0.00  0.00    -0.159 OA
ATOM      7  O   UNL     1       6.515 132.276 358.856  0.00  0.00    -0.159 OA
ENDBRANCH   2   4
ENDBRANCH   1   2
ENDBRANCH   8   1
ENDBRANCH   9   8
ENDBRANCH  10   9
ENDBRANCH  12  10
ENDBRANCH  13  12
TORSDOF 8
