REMARK  Name = 5NK4
REMARK  12 active torsions:
REMARK  status: ('A' for Active; 'I' for Inactive)
REMARK    1  A    between atoms: C_8  and  N_9
REMARK    2  A    between atoms: C_10  and  C_12
REMARK    3  A    between atoms: C_17  and  N_18
REMARK    4  A    between atoms: C_23  and  C_24
REMARK    5  A    between atoms: N_26  and  C_27
REMARK    6  A    between atoms: C_33  and  C_34
REMARK    7  A    between atoms: C_42  and  N_43
REMARK    8  A    between atoms: C_44  and  C_46
REMARK    9  A    between atoms: C_51  and  N_52
REMARK   10  A    between atoms: C_57  and  C_58
REMARK   11  A    between atoms: N_60  and  C_61
REMARK   12  A    between atoms: C_67  and  C_68
REMARK                            x       y       z     vdW  Elec       q    Type
REMARK                         _______ _______ _______ _____ _____    ______ ____
ROOT
ATOM      7  C   UNL     1     -83.253 -11.497   5.181  0.00  0.00    +0.038 A 
ATOM      8  C   UNL     1     -82.901 -11.542   6.520  0.00  0.00    +0.013 A 
ATOM      9  C   UNL     1     -83.889 -11.540   7.488  0.00  0.00    +0.003 A 
ATOM     10  C   UNL     1     -85.218 -11.480   7.097  0.00  0.00    +0.023 A 
ATOM     11  C   UNL     1     -85.594 -11.438   5.752  0.00  0.00    +0.033 A 
ATOM     31  C   UNL     1     -84.585 -11.421   4.791  0.00  0.00    +0.036 A 
ENDROOT
BRANCH  11  12
ATOM     12  N   UNL     1     -86.866 -11.367   5.305  0.00  0.00    -0.294 N 
ATOM     13  H   UNL     1     -87.034 -10.863   4.376  0.00  0.00    +0.154 HD
ATOM     14  C   UNL     1     -87.943 -11.881   5.935  0.00  0.00    +0.163 A 
ATOM     15  N   UNL     1     -89.195 -11.786   5.460  0.00  0.00    -0.232 NA
ATOM     16  C   UNL     1     -90.129 -12.376   6.250  0.00  0.00    +0.133 A 
ATOM     17  C   UNL     1     -89.618 -12.947   7.358  0.00  0.00    +0.095 A 
ATOM     30  S   UNL     1     -88.023 -12.708   7.355  0.00  0.00    -0.048 S 
BRANCH  17  18
ATOM     18  C   UNL     1     -90.233 -13.609   8.356  0.00  0.00    +0.256 C 
ATOM     19  N   UNL     1     -91.551 -13.911   8.226  0.00  0.00    -0.280 N 
ATOM     20  H   UNL     1     -92.085 -13.658   7.334  0.00  0.00    +0.155 HD
ATOM     29  O   UNL     1     -89.577 -13.912   9.354  0.00  0.00    -0.269 OA
BRANCH  19  21
ATOM     21  C   UNL     1     -92.174 -14.542   9.254  0.00  0.00    +0.055 A 
ATOM     22  C   UNL     1     -92.747 -13.774  10.269  0.00  0.00    -0.028 A 
ATOM     23  C   UNL     1     -92.684 -12.386  10.249  0.00  0.00    +0.046 C 
ATOM     24  C   UNL     1     -93.394 -14.402  11.329  0.00  0.00    +0.005 A 
ATOM     25  C   UNL     1     -93.478 -15.790  11.374  0.00  0.00    +0.002 A 
ATOM     26  C   UNL     1     -92.916 -16.552  10.355  0.00  0.00    +0.022 A 
ATOM     27  C   UNL     1     -92.262 -15.935   9.293  0.00  0.00    +0.062 A 
ATOM     28 CL   UNL     1     -91.587 -16.934   8.059  0.00  0.00    -0.082 Cl
ENDBRANCH  19  21
ENDBRANCH  17  18
ENDBRANCH  11  12
BRANCH   7   6
ATOM      4  N   UNL     1     -82.165 -10.276   3.645  0.00  0.00    -0.303 N 
ATOM      5  H   UNL     1     -82.968  -9.605   3.870  0.00  0.00    +0.150 HD
ATOM      6  C   UNL     1     -82.222 -11.467   4.262  0.00  0.00    +0.245 C 
ATOM     32  O   UNL     1     -81.451 -12.419   4.139  0.00  0.00    -0.270 OA
BRANCH   4   3
ATOM      1  F   UNL     1     -81.152  -7.843   3.917  0.00  0.00    -0.202 F 
ATOM      2  C   UNL     1     -80.340  -8.820   3.573  0.00  0.00    +0.279 C 
ATOM      3  C   UNL     1     -81.161  -9.760   2.706  0.00  0.00    +0.145 C 
ATOM     33  C   UNL     1     -80.289 -10.815   1.998  0.00  0.00    +0.043 C 
ATOM     34  C   UNL     1     -78.866 -10.787   2.531  0.00  0.00    +0.083 C 
ATOM     35  N   UNL     1     -78.259  -9.445   2.423  0.00  0.00    -0.311 NA
ATOM     36  H   UNL     1     -77.416  -9.405   3.080  0.00  0.00    +0.122 HD
ATOM     37  C   UNL     1     -79.169  -8.337   2.771  0.00  0.00    +0.158 C 
ATOM     38  F   UNL     1     -79.938  -9.363   4.789  0.00  0.00    -0.202 F 
ENDBRANCH   4   3
ENDBRANCH   7   6
TORSDOF 5
