REMARK  Name = 4tw9_ligand
REMARK  4 active torsions:
REMARK  status: ('A' for Active; 'I' for Inactive)
REMARK    1  A    between atoms: C12_22  and  C10_24
REMARK    2  A    between atoms: C8_29  and  C1_30
REMARK    3  A    between atoms: C3_31  and  O1_32
REMARK    4  A    between atoms: O1_32  and  C7_33
REMARK                            x       y       z     vdW  Elec       q    Type
REMARK                         _______ _______ _______ _____ _____    ______ ____
ROOT
ATOM      1  N   UNL     1      11.470 -14.989   6.430  0.00  0.00    -0.195 N 
ATOM      2  H   UNL     1      11.302 -14.648   7.355  0.00  0.00    +0.240 HD
ATOM      3  C   UNL     1      12.352 -16.041   6.328  0.00  0.00    +0.238 C 
ATOM     15  O   UNL     1      12.706 -16.492   5.244  0.00  0.00    -0.374 OA
ATOM     16  C   UNL     1      10.779 -14.337   5.401  0.00  0.00    +0.209 A 
ATOM     17  N   UNL     1       9.881 -13.454   5.856  0.00  0.00    -0.305 NA
ATOM     18  C   UNL     1       9.227 -12.857   4.863  0.00  0.00    +0.075 A 
ATOM     19  C   UNL     1       9.628 -13.280   3.581  0.00  0.00    +0.094 A 
ATOM     39  S   UNL     1      10.786 -14.406   3.769  0.00  0.00    +0.025 S 
ENDROOT
BRANCH  18  20
ATOM     20  C   UNL     1       8.221 -11.844   5.249  0.00  0.00    +0.233 C 
ATOM     21  O   UNL     1       7.992 -11.619   6.436  0.00  0.00    -0.377 OA
ATOM     22  N   UNL     1       7.600 -11.104   4.271  0.00  0.00    -0.189 N 
ATOM     23  H   UNL     1       7.741 -11.349   3.312  0.00  0.00    +0.238 HD
ATOM     24  C   UNL     1       6.784 -10.028   4.578  0.00  0.00    +0.234 A 
ATOM     25  N   UNL     1       6.412  -9.690   5.823  0.00  0.00    -0.237 N 
ATOM     26  H   UNL     1       6.639 -10.159   6.712  0.00  0.00    +0.226 HD
ATOM     27  C   UNL     1       5.676  -8.598   5.623  0.00  0.00    +0.055 A 
ATOM     28  C   UNL     1       5.592  -8.309   4.284  0.00  0.00    -0.011 A 
ATOM     29  C   UNL     1       4.895  -7.240   3.756  0.00  0.00    -0.009 A 
ATOM     30  C   UNL     1       4.252  -6.480   4.702  0.00  0.00    +0.111 A 
ATOM     31  C   UNL     1       4.322  -6.784   6.037  0.00  0.00    +0.114 A 
ATOM     32  O   UNL     1       3.633  -5.902   6.762  0.00  0.00    -0.238 OA
ATOM     33  C   UNL     1       2.971  -5.088   5.803  0.00  0.00    +0.524 C 
ATOM     34  F   UNL     1       3.214  -3.792   6.119  0.00  0.00    -0.141 F 
ATOM     35  F   UNL     1       1.656  -5.415   5.902  0.00  0.00    -0.141 F 
ATOM     36  O   UNL     1       3.497  -5.387   4.495  0.00  0.00    -0.238 OA
ATOM     37  C   UNL     1       5.035  -7.841   6.562  0.00  0.00    +0.019 A 
ATOM     38  N   UNL     1       6.303  -9.205   3.630  0.00  0.00    -0.326 NA
ENDBRANCH  18  20
BRANCH   3   4
ATOM      4  C   UNL     1      12.830 -16.546   7.656  0.00  0.00    +0.087 A 
ATOM      5  C   UNL     1      14.158 -16.965   7.883  0.00  0.00    +0.123 A 
ATOM     11  C   UNL     1      14.555 -17.406   9.142  0.00  0.00    +0.029 A 
ATOM     12  C   UNL     1      13.655 -17.418  10.196  0.00  0.00    -0.004 A 
ATOM     13  C   UNL     1      12.342 -16.992   9.997  0.00  0.00    -0.013 A 
ATOM     14  C   UNL     1      11.931 -16.558   8.741  0.00  0.00    +0.014 A 
BRANCH   5   6
ATOM      6  O   UNL     1      15.091 -16.977   6.887  0.00  0.00    -0.220 OA
BRANCH   6   7
ATOM      7  C   UNL     1      15.757 -15.779   6.540  0.00  0.00    +0.548 C 
ATOM      8  F   UNL     1      16.735 -15.520   7.450  0.00  0.00    -0.140 F 
ATOM      9  F   UNL     1      14.857 -14.802   6.704  0.00  0.00    -0.140 F 
ATOM     10  F   UNL     1      16.175 -15.798   5.222  0.00  0.00    -0.140 F 
ENDBRANCH   6   7
ENDBRANCH   5   6
ENDBRANCH   3   4
TORSDOF 4
