REMARK  Name = 5FTQ
REMARK  8 active torsions:
REMARK  status: ('A' for Active; 'I' for Inactive)
REMARK    1  A    between atoms: C_8  and  C_9
REMARK    2  A    between atoms: C_9  and  C_10
REMARK    3  A    between atoms: C_20  and  C_22
REMARK    4  A    between atoms: C_23  and  N_24
REMARK    5  A    between atoms: N_24  and  C_25
REMARK    6  A    between atoms: C_28  and  O_29
REMARK    7  A    between atoms: C_33  and  N_36
REMARK    8  A    between atoms: N_39  and  C_40
REMARK                            x       y       z     vdW  Elec       q    Type
REMARK                         _______ _______ _______ _____ _____    ______ ____
ROOT
ATOM      6  C   UNL     1     -19.910  13.996  -8.791  0.00  0.00    -0.042 A 
ATOM      7  C   UNL     1     -20.942  13.075  -8.526  0.00  0.00    +0.017 A 
ATOM      8  C   UNL     1     -22.198  13.166  -9.155  0.00  0.00    +0.042 A 
ATOM      9  C   UNL     1     -23.446  12.422  -9.177  0.00  0.00    +0.155 A 
ATOM     10  N   UNL     1     -23.794  11.230  -8.530  0.00  0.00    -0.264 N 
ATOM     11  H   UNL     1     -24.559  10.638  -8.987  0.00  0.00    +0.157 HD
ATOM     12  C   UNL     1     -23.264  10.761  -7.398  0.00  0.00    +0.251 C 
ATOM     36  O   UNL     1     -22.510  11.414  -6.713  0.00  0.00    -0.270 OA
ATOM     37  N   UNL     1     -24.339  12.988  -9.985  0.00  0.00    -0.157 NA
ATOM     38  N   UNL     1     -23.719  14.107 -10.537  0.00  0.00    -0.275 N 
ATOM     39  H   UNL     1     -24.158  14.769 -11.254  0.00  0.00    +0.189 HD
ATOM     40  C   UNL     1     -22.478  14.222 -10.024  0.00  0.00    +0.068 A 
ATOM     41  C   UNL     1     -21.413  15.116 -10.299  0.00  0.00    +0.028 A 
ATOM     42  C   UNL     1     -20.157  15.081  -9.717  0.00  0.00    +0.006 A 
ENDROOT
BRANCH  12  13
ATOM     13  C   UNL     1     -23.773   9.350  -7.001  0.00  0.00    +0.058 A 
ATOM     14  C   UNL     1     -25.018   8.947  -7.406  0.00  0.00    +0.017 A 
ATOM     15  C   UNL     1     -25.450   7.638  -7.060  0.00  0.00    +0.024 A 
ATOM     16  C   UNL     1     -24.642   6.860  -6.217  0.00  0.00    +0.032 A 
ATOM     24  C   UNL     1     -23.433   7.291  -5.767  0.00  0.00    +0.047 A 
ATOM     25  C   UNL     1     -22.981   8.586  -6.106  0.00  0.00    +0.041 A 
BRANCH  16  17
ATOM     17  N   UNL     1     -25.146   5.522  -5.862  0.00  0.00    -0.327 N 
ATOM     18  C   UNL     1     -24.163   4.833  -4.974  0.00  0.00    +0.120 C 
ATOM     19  C   UNL     1     -24.956   3.605  -4.529  0.00  0.00    +0.103 C 
ATOM     20  N   UNL     1     -25.225   2.783  -5.734  0.00  0.00    -0.302 NA
ATOM     21  C   UNL     1     -25.810   1.451  -5.353  0.00  0.00    +0.105 C 
ATOM     22  C   UNL     1     -26.160   3.456  -6.622  0.00  0.00    +0.103 C 
ATOM     23  C   UNL     1     -25.470   4.771  -7.040  0.00  0.00    +0.120 C 
ENDBRANCH  16  17
BRANCH  25  26
ATOM     26  N   UNL     1     -21.805   9.081  -5.689  0.00  0.00    -0.340 N 
ATOM     27  H   UNL     1     -21.601  10.105  -5.924  0.00  0.00    +0.146 HD
BRANCH  26  28
ATOM     28  C   UNL     1     -20.769   8.353  -4.940  0.00  0.00    +0.071 C 
ATOM     29  C   UNL     1     -19.821   9.307  -4.208  0.00  0.00    +0.025 C 
ATOM     30  C   UNL     1     -18.744   8.502  -3.450  0.00  0.00    +0.033 C 
ATOM     31  C   UNL     1     -18.036   7.614  -4.518  0.00  0.00    +0.115 C 
ATOM     34  C   UNL     1     -19.007   6.623  -5.131  0.00  0.00    +0.033 C 
ATOM     35  C   UNL     1     -19.916   7.596  -5.920  0.00  0.00    +0.025 C 
BRANCH  31  32
ATOM     32  O   UNL     1     -17.041   6.820  -3.787  0.00  0.00    -0.392 OA
ATOM     33  H   UNL     1     -17.521   6.255  -3.043  0.00  0.00    +0.210 HD
ENDBRANCH  31  32
ENDBRANCH  26  28
ENDBRANCH  25  26
ENDBRANCH  12  13
BRANCH   6   5
ATOM      5  C   UNL     1     -18.543  13.844  -8.193  0.00  0.00    +0.070 C 
BRANCH   5   4
ATOM      1  F   UNL     1     -17.317   9.046  -7.873  0.00  0.00    -0.205 F 
ATOM      2  C   UNL     1     -17.367  10.213  -8.623  0.00  0.00    +0.126 A 
ATOM      3  C   UNL     1     -17.905  11.396  -8.049  0.00  0.00    +0.042 A 
ATOM      4  C   UNL     1     -17.945  12.577  -8.800  0.00  0.00    -0.038 A 
ATOM     43  C   UNL     1     -17.534  12.529 -10.160  0.00  0.00    +0.042 A 
ATOM     44  C   UNL     1     -17.023  11.320 -10.683  0.00  0.00    +0.126 A 
ATOM     45  F   UNL     1     -16.622  11.310 -11.950  0.00  0.00    -0.205 F 
ATOM     46  C   UNL     1     -16.928  10.160  -9.918  0.00  0.00    +0.076 A 
ENDBRANCH   5   4
ENDBRANCH   6   5
TORSDOF 7
