REMARK  Name = 4QMN
REMARK  13 active torsions:
REMARK  status: ('A' for Active; 'I' for Inactive)
REMARK    1  A    between atoms: C_1  and  O_22
REMARK    2  A    between atoms: O_2  and  C_24
REMARK    3  A    between atoms: O_2  and  C_36
REMARK    4  A    between atoms: C_3  and  C_13
REMARK    5  A    between atoms: C_3  and  N_34
REMARK    6  A    between atoms: C_7  and  C_27
REMARK    7  A    between atoms: C_13  and  C_14
REMARK    8  A    between atoms: C_14  and  O_23
REMARK    9  A    between atoms: C_15  and  N_35
REMARK   10  A    between atoms: N_21  and  C_28
REMARK   11  A    between atoms: N_21  and  C_31
REMARK   12  A    between atoms: O_22  and  C_29
REMARK   13  A    between atoms: O_23  and  C_30
REMARK                            x       y       z     vdW  Elec       q    Type
REMARK                         _______ _______ _______ _____ _____    ______ ____
ROOT
ATOM      3  C   UNL     1      -4.292  -0.470  15.954  0.00  0.00    +0.162 A 
ATOM      4  C   UNL     1      -5.105   0.182  15.000  0.00  0.00    +0.164 A 
ATOM     16  C   UNL     1      -4.763   1.462  14.531  0.00  0.00    +0.077 A 
ATOM     17  C   UNL     1      -3.609   2.113  14.997  0.00  0.00    +0.073 A 
ATOM     18  C   UNL     1      -2.768   1.485  15.957  0.00  0.00    +0.009 A 
ATOM     19  C   UNL     1      -1.608   2.184  16.403  0.00  0.00    +0.112 C 
ATOM     20  C   UNL     1      -1.345   3.488  15.853  0.00  0.00    +0.145 C 
ATOM     21  C   UNL     1      -2.234   4.043  14.912  0.00  0.00    +0.110 C 
ATOM     36  N   UNL     1      -3.315   3.349  14.514  0.00  0.00    -0.258 NA
ATOM     37  C   UNL     1      -3.134   0.189  16.423  0.00  0.00    +0.057 A 
ENDROOT
BRANCH   3   2
ATOM      1  C   UNL     1      -3.783  -2.327  17.362  0.00  0.00    +0.277 C 
ATOM      2  O   UNL     1      -4.660  -1.721  16.396  0.00  0.00    -0.491 OA
ENDBRANCH   3   2
BRANCH  20  22
ATOM     22  C   UNL     1      -0.323   4.249  16.154  0.00  0.00    +0.080 C 
ATOM     23  N   UNL     1       0.564   4.929  16.417  0.00  0.00    -0.196 NA
ENDBRANCH  20  22
BRANCH  19  24
ATOM     24  N   UNL     1      -0.781   1.585  17.344  0.00  0.00    -0.329 N 
ATOM     25  H   UNL     1      -0.766   0.515  17.369  0.00  0.00    +0.147 HD
BRANCH  24  26
ATOM     26  C   UNL     1       0.015   2.240  18.241  0.00  0.00    +0.050 A 
ATOM     27  C   UNL     1       1.410   1.972  18.275  0.00  0.00    +0.063 A 
ATOM     28  C   UNL     1       2.250   2.653  19.175  0.00  0.00    +0.045 A 
ATOM     29  C   UNL     1       1.696   3.608  20.043  0.00  0.00    +0.084 A 
ATOM     30  C   UNL     1       0.315   3.886  20.020  0.00  0.00    +0.140 A 
ATOM     33 CL   UNL     1       2.685   4.458  21.132  0.00  0.00    -0.080 Cl
ATOM     34 CL   UNL     1       2.122   0.828  17.244  0.00  0.00    -0.082 Cl
ATOM     35  C   UNL     1      -0.528   3.209  19.119  0.00  0.00    +0.071 A 
BRANCH  30  31
ATOM     31  O   UNL     1      -0.144   4.845  20.880  0.00  0.00    -0.494 OA
ATOM     32  C   UNL     1      -1.530   5.205  20.757  0.00  0.00    +0.277 C 
ENDBRANCH  30  31
ENDBRANCH  24  26
ENDBRANCH  19  24
BRANCH   4   5
ATOM      5  O   UNL     1      -6.235  -0.419  14.531  0.00  0.00    -0.488 OA
BRANCH   5   6
ATOM      6  C   UNL     1      -6.591  -0.194  13.148  0.00  0.00    +0.230 C 
BRANCH   6   7
ATOM      7  C   UNL     1      -7.436  -1.428  12.720  0.00  0.00    +0.056 C 
BRANCH   7   8
ATOM      8  C   UNL     1      -8.767  -1.096  12.002  0.00  0.00    +0.088 C 
BRANCH   8   9
ATOM      9  N   UNL     1     -10.004  -1.509  12.763  0.00  0.00    -0.300 NA
ATOM     10  C   UNL     1      -9.793  -1.706  14.235  0.00  0.00    +0.100 C 
ATOM     11  C   UNL     1     -11.123  -1.952  14.993  0.00  0.00    +0.099 C 
ATOM     12  N   UNL     1     -11.881  -3.076  14.364  0.00  0.00    -0.303 NA
ATOM     13  C   UNL     1     -12.110  -2.860  12.902  0.00  0.00    +0.099 C 
ATOM     14  C   UNL     1     -13.141  -3.410  15.083  0.00  0.00    +0.105 C 
ATOM     15  C   UNL     1     -10.771  -2.643  12.154  0.00  0.00    +0.100 C 
ENDBRANCH   8   9
ENDBRANCH   7   8
ENDBRANCH   6   7
ENDBRANCH   5   6
ENDBRANCH   4   5
TORSDOF 10
