REMARK  Name = 4aof_ligand
REMARK  4 active torsions:
REMARK  status: ('A' for Active; 'I' for Inactive)
REMARK    1  A    between atoms: CAV_1  and  CAU_2
REMARK    2  A    between atoms: CAB_13  and  CAA_14
REMARK    3  A    between atoms: CAK_19  and  SAP_20
REMARK    4  A    between atoms: SAP_20  and  CAQ_21
REMARK                            x       y       z     vdW  Elec       q    Type
REMARK                         _______ _______ _______ _____ _____    ______ ____
ROOT
ATOM      1  C   UNL     1      52.174  15.053  29.379  0.00  0.00    +0.173 C 
ATOM      2  C   UNL     1      50.757  14.805  29.915  0.00  0.00    +0.202 C 
ATOM      3  N   UNL     1      50.025  13.955  29.179  0.00  0.00    -0.219 N 
ATOM      4  H   UNL     1      50.465  13.566  28.345  0.00  0.00    +0.228 HD
ATOM      5  C   UNL     1      48.758  13.568  29.443  0.00  0.00    +0.168 A 
ATOM      6  N   UNL     1      47.939  14.143  30.329  0.00  0.00    -0.181 NA
ATOM      7  N   UNL     1      46.858  13.549  30.325  0.00  0.00    -0.143 N 
ATOM      8  C   UNL     1      46.935  12.510  29.385  0.00  0.00    +0.155 A 
ATOM      9  C   UNL     1      45.841  11.689  29.183  0.00  0.00    +0.047 A 
ATOM     10  C   UNL     1      44.678  11.899  29.918  0.00  0.00    +0.021 A 
ATOM     11  C   UNL     1      44.576  12.934  30.855  0.00  0.00    +0.033 A 
ATOM     22  C   UNL     1      45.675  13.762  31.066  0.00  0.00    +0.243 A 
ATOM     23  N   UNL     1      48.144  12.544  28.847  0.00  0.00    -0.294 NA
ATOM     24  O   UNL     1      50.370  15.363  30.943  0.00  0.00    -0.385 OA
ENDROOT
BRANCH  11  12
ATOM     12  C   UNL     1      43.391  13.074  31.580  0.00  0.00    +0.008 A 
ATOM     13  C   UNL     1      42.188  12.625  31.033  0.00  0.00    +0.095 A 
ATOM     14  N   UNL     1      41.056  12.705  31.711  0.00  0.00    -0.298 NA
ATOM     15  C   UNL     1      41.022  13.212  32.931  0.00  0.00    +0.114 A 
ATOM     16  C   UNL     1      42.180  13.670  33.556  0.00  0.00    +0.112 A 
ATOM     21  C   UNL     1      43.394  13.591  32.876  0.00  0.00    +0.059 A 
BRANCH  16  17
ATOM     17  S   UNL     1      42.062  14.336  35.187  0.00  0.00    -0.001 S 
ATOM     18  O   UNL     1      41.887  15.831  35.126  0.00  0.00    -0.169 OA
ATOM     19  O   UNL     1      40.861  13.779  35.898  0.00  0.00    -0.169 OA
ATOM     20  C   UNL     1      43.517  13.902  36.111  0.00  0.00    +0.201 C 
ENDBRANCH  16  17
ENDBRANCH  11  12
TORSDOF 2
