REMARK  Name = 5AV4
REMARK  4 active torsions:
REMARK  status: ('A' for Active; 'I' for Inactive)
REMARK    1  A    between atoms: C_2  and  O_3
REMARK    2  A    between atoms: C_5  and  O_6
REMARK    3  A    between atoms: C_10  and  C_14
REMARK    4  A    between atoms: C_17  and  O_18
REMARK                            x       y       z     vdW  Elec       q    Type
REMARK                         _______ _______ _______ _____ _____    ______ ____
ROOT
ATOM      1  C   UNL     1     -21.220  -0.816 -12.583  0.00  0.00    +0.092 A 
ATOM      2  C   UNL     1     -21.888   0.314 -12.116  0.00  0.00    +0.145 A 
ATOM      3  O   UNL     1     -23.059   0.690 -12.707  0.00  0.00    -0.462 OA
ATOM      4  C   UNL     1     -23.730   1.759 -12.190  0.00  0.00    +0.208 C 
ATOM      5  C   UNL     1     -23.264   2.550 -11.145  0.00  0.00    +0.064 C 
ATOM     14  C   UNL     1     -22.034   2.206 -10.570  0.00  0.00    +0.204 C 
ATOM     15  O   UNL     1     -21.565   2.814  -9.604  0.00  0.00    -0.286 OA
ATOM     16  C   UNL     1     -21.364   1.081 -11.068  0.00  0.00    +0.106 A 
ATOM     17  C   UNL     1     -20.165   0.649 -10.491  0.00  0.00    +0.135 A 
ATOM     20  C   UNL     1     -19.492  -0.479 -10.948  0.00  0.00    +0.091 A 
ATOM     21  C   UNL     1     -20.026  -1.214 -11.996  0.00  0.00    +0.124 A 
ENDROOT
BRANCH   5   6
ATOM      6  C   UNL     1     -24.136   3.556 -10.696  0.00  0.00    -0.011 A 
ATOM      7  C   UNL     1     -25.147   4.007 -11.540  0.00  0.00    +0.012 A 
ATOM      8  C   UNL     1     -26.066   4.969 -11.112  0.00  0.00    +0.046 A 
ATOM      9  C   UNL     1     -25.995   5.480  -9.815  0.00  0.00    +0.117 A 
ATOM     12  C   UNL     1     -25.011   5.020  -8.953  0.00  0.00    +0.046 A 
ATOM     13  C   UNL     1     -24.102   4.066  -9.399  0.00  0.00    +0.012 A 
BRANCH   9  10
ATOM     10  O   UNL     1     -26.887   6.402  -9.383  0.00  0.00    -0.507 OA
ATOM     11  H   UNL     1     -27.422   6.016  -8.566  0.00  0.00    +0.292 HD
ENDBRANCH   9  10
ENDBRANCH   5   6
BRANCH  17  18
ATOM     18  O   UNL     1     -19.664   1.387  -9.468  0.00  0.00    -0.506 OA
ATOM     19  H   UNL     1     -19.579   0.786  -8.611  0.00  0.00    +0.292 HD
ENDBRANCH  17  18
BRANCH  21  22
ATOM     22  O   UNL     1     -19.383  -2.320 -12.455  0.00  0.00    -0.506 OA
ATOM     23  H   UNL     1     -20.009  -3.157 -12.353  0.00  0.00    +0.292 HD
ENDBRANCH  21  22
TORSDOF 4
