REMARK  Name = 5IEX
REMARK  9 active torsions:
REMARK  status: ('A' for Active; 'I' for Inactive)
REMARK    1  A    between atoms: C_1  and  N_17
REMARK    2  A    between atoms: C_6  and  C_7
REMARK    3  A    between atoms: C_6  and  O_23
REMARK    4  A    between atoms: C_6  and  C_24
REMARK    5  A    between atoms: C_9  and  S_10
REMARK    6  A    between atoms: S_10  and  C_13
REMARK    7  A    between atoms: C_22  and  O_23
REMARK    8  A    between atoms: C_24  and  C_25
REMARK    9  A    between atoms: C_24  and  O_26
REMARK                            x       y       z     vdW  Elec       q    Type
REMARK                         _______ _______ _______ _____ _____    ______ ____
ROOT
ATOM      1  C   UNL     1     -11.204 -10.232 -13.111  0.00  0.00    +0.254 A 
ATOM      2  N   UNL     1     -11.533 -10.452 -14.390  0.00  0.00    -0.218 NA
ATOM      3  C   UNL     1     -12.600  -9.962 -14.949  0.00  0.00    +0.135 A 
ATOM      4  C   UNL     1     -13.399  -9.178 -14.150  0.00  0.00    +0.098 A 
ATOM      5  C   UNL     1     -13.075  -8.921 -12.841  0.00  0.00    +0.234 A 
ATOM     13 BR   UNL     1     -14.954  -8.313 -14.817  0.00  0.00    -0.043 Br
ATOM     14  N   UNL     1     -11.971  -9.475 -12.334  0.00  0.00    -0.175 NA
ENDROOT
BRANCH   1  15
ATOM     15  N   UNL     1     -10.109 -10.817 -12.666  0.00  0.00    -0.211 NA
ATOM     16  C   UNL     1      -9.451 -10.587 -11.529  0.00  0.00    +0.067 C 
ATOM     17  C   UNL     1      -9.766  -9.586 -10.592  0.00  0.00    +0.025 C 
ATOM     18  C   UNL     1      -8.996  -9.469  -9.429  0.00  0.00    +0.002 C 
ATOM     19  C   UNL     1      -7.932 -10.338  -9.203  0.00  0.00    +0.116 C 
ATOM     20  C   UNL     1      -7.635 -11.339 -10.106  0.00  0.00    +0.002 C 
ATOM     28  C   UNL     1      -8.384 -11.441 -11.267  0.00  0.00    +0.025 C 
BRANCH  19  21
ATOM     21  S   UNL     1      -6.935 -10.166  -7.787  0.00  0.00    +0.064 S 
ATOM     22  O   UNL     1      -6.130 -11.399  -7.512  0.00  0.00    -0.246 OA
ATOM     23  N   UNL     1      -5.923  -8.933  -8.042  0.00  0.00    -0.251 NA
ATOM     24  H   UNL     1      -5.252  -8.955  -8.875  0.00  0.00    +0.197 HD
BRANCH  21  25
ATOM     25  C   UNL     1      -7.923  -9.817  -6.309  0.00  0.00    +0.089 C 
ATOM     26  C   UNL     1      -8.052 -11.084  -5.448  0.00  0.00    +0.019 C 
ATOM     27  C   UNL     1      -7.189  -9.894  -4.953  0.00  0.00    +0.019 C 
ENDBRANCH  21  25
ENDBRANCH  19  21
ENDBRANCH   1  15
BRANCH   5   6
ATOM      6  O   UNL     1     -13.908  -8.084 -12.141  0.00  0.00    -0.470 OA
BRANCH   6   7
ATOM      7  C   UNL     1     -13.342  -7.491 -10.944  0.00  0.00    +0.200 C 
ATOM     12  C   UNL     1     -13.604  -8.471  -9.803  0.00  0.00    +0.054 C 
BRANCH   7   8
ATOM      8  C   UNL     1     -13.850  -6.004 -10.741  0.00  0.00    +0.152 C 
ATOM     11  C   UNL     1     -13.509  -5.117 -11.941  0.00  0.00    +0.041 C 
BRANCH   8   9
ATOM      9  O   UNL     1     -15.244  -6.296 -10.289  0.00  0.00    -0.388 OA
ATOM     10  H   UNL     1     -15.751  -6.830 -11.038  0.00  0.00    +0.210 HD
ENDBRANCH   8   9
ENDBRANCH   7   8
ENDBRANCH   6   7
ENDBRANCH   5   6
TORSDOF 7
