REMARK  Name = 5NQ
REMARK  10 active torsions:
REMARK  status: ('A' for Active; 'I' for Inactive)
REMARK    1  A    between atoms: C2_2  and  C3_3
REMARK    2  A    between atoms: C3_3  and  C4_4
REMARK    3  A    between atoms: C4_4  and  N5_5
REMARK    4  A    between atoms: N11_12  and  C33_13
REMARK    5  A    between atoms: C12_17  and  C14_18
REMARK    6  A    between atoms: C14_18  and  S15_19
REMARK    7  A    between atoms: S15_19  and  C16_20
REMARK    8  A    between atoms: C22_30  and  C27_31
REMARK    9  A    between atoms: C27_31  and  C28_32
REMARK   10  A    between atoms: C28_32  and  C29_33
REMARK                            x       y       z     vdW  Elec       q    Type
REMARK                         _______ _______ _______ _____ _____    ______ ____
ROOT
ATOM      5  N   UNL     1      10.161  32.300  64.911  0.00  0.00    -0.263 N 
ATOM      6  C   UNL     1       9.769  31.013  64.800  0.00  0.00    +0.169 C 
ATOM      7  N   UNL     1       9.275  30.202  65.734  0.00  0.00    -0.213 NA
ATOM      8  C   UNL     1       9.038  28.999  65.212  0.00  0.00    +0.134 C 
ATOM     26  N   UNL     1       9.363  29.009  63.931  0.00  0.00    -0.309 NA
ATOM     29  C   UNL     1       9.826  30.280  63.649  0.00  0.00    +0.154 C 
ATOM     30  C   UNL     1      10.276  30.869  62.526  0.00  0.00    +0.302 C 
ATOM     31  N   UNL     1      10.644  32.244  62.593  0.00  0.00    -0.152 NA
ATOM     32  O   UNL     1      10.388  30.270  61.427  0.00  0.00    -0.263 OA
ATOM     33  C   UNL     1      10.584  32.948  63.789  0.00  0.00    +0.354 C 
ATOM     34  O   UNL     1      10.965  34.110  63.804  0.00  0.00    -0.244 OA
ENDROOT
BRANCH  26  27
ATOM     27  C   UNL     1       9.258  27.829  63.072  0.00  0.00    +0.108 C 
ATOM     28  C   UNL     1      10.659  27.356  62.814  0.00  0.00    +0.026 C 
ENDBRANCH  26  27
BRANCH   5   4
ATOM      4  C   UNL     1       9.974  33.057  66.199  0.00  0.00    +0.112 C 
BRANCH   4   3
ATOM      3  C   UNL     1      11.244  33.589  66.825  0.00  0.00    +0.025 C 
BRANCH   3   2
ATOM      1  C   UNL     1      10.708  33.454  69.208  0.00  0.00    +0.000 C 
ATOM      2  C   UNL     1      10.754  34.405  68.042  0.00  0.00    +0.002 C 
ENDBRANCH   3   2
ENDBRANCH   4   3
ENDBRANCH   5   4
BRANCH   8   9
ATOM      9  C   UNL     1       8.457  27.913  66.031  0.00  0.00    +0.130 C 
BRANCH   9  10
ATOM     10  S   UNL     1       6.616  27.789  65.577  0.00  0.00    -0.056 S 
BRANCH  10  11
ATOM     11  C   UNL     1       5.869  26.920  66.962  0.00  0.00    +0.251 C 
ATOM     12  N   UNL     1       6.529  26.608  68.079  0.00  0.00    -0.092 NA
ATOM     13  N   UNL     1       5.626  26.029  68.891  0.00  0.00    -0.197 N 
ATOM     14  C   UNL     1       5.881  25.550  70.121  0.00  0.00    +0.060 C 
ATOM     15  C   UNL     1       4.849  24.970  70.800  0.00  0.00    +0.005 C 
ATOM     20  C   UNL     1       3.579  24.985  70.181  0.00  0.00    +0.061 C 
ATOM     21  C   UNL     1       2.454  24.365  70.781  0.00  0.00    +0.052 C 
ATOM     22  N   UNL     1       3.423  25.457  68.926  0.00  0.00    -0.204 NA
ATOM     23  C   UNL     1       7.184  25.657  70.676  0.00  0.00    +0.052 C 
ATOM     24  C   UNL     1       4.446  25.980  68.253  0.00  0.00    +0.306 C 
ATOM     25  N   UNL     1       4.584  26.555  67.055  0.00  0.00    -0.341 NA
BRANCH  15  16
ATOM     16  C   UNL     1       5.055  24.503  72.106  0.00  0.00    +0.029 C 
BRANCH  16  17
ATOM     17  C   UNL     1       4.616  25.498  73.156  0.00  0.00    +0.005 C 
BRANCH  17  18
ATOM     18  C   UNL     1       4.756  24.956  74.607  0.00  0.00    +0.000 C 
ATOM     19  C   UNL     1       4.475  26.236  75.417  0.00  0.00    +0.000 C 
ENDBRANCH  17  18
ENDBRANCH  16  17
ENDBRANCH  15  16
ENDBRANCH  10  11
ENDBRANCH   9  10
ENDBRANCH   8   9
TORSDOF 10
