REMARK  Name = 9T6
REMARK  3 active torsions:
REMARK  status: ('A' for Active; 'I' for Inactive)
REMARK    1  A    between atoms: C2_5  and  C10_8
REMARK    2  A    between atoms: C1_6  and  N13_22
REMARK    3  A    between atoms: C18_17  and  N13_22
REMARK                            x       y       z     vdW  Elec       q    Type
REMARK                         _______ _______ _______ _____ _____    ______ ____
ROOT
ATOM      1  C   UNL     1     -14.483   0.381 -14.986  0.00  0.00    +0.056 C 
ATOM      2  C   UNL     1     -13.650   0.739 -14.010  0.00  0.00    +0.236 C 
ATOM      3  N   UNL     1     -14.128   0.334 -12.855  0.00  0.00    -0.031 NA
ATOM      4  C   UNL     1     -15.257  -0.280 -13.048  0.00  0.00    +0.373 C 
ATOM      5  N   UNL     1     -16.090  -0.873 -12.171  0.00  0.00    -0.031 NA
ATOM      6  C   UNL     1     -17.218  -1.459 -12.537  0.00  0.00    +0.238 C 
ATOM      7  C   UNL     1     -17.615  -1.542 -13.851  0.00  0.00    +0.101 C 
ATOM     11  C   UNL     1     -16.770  -0.936 -14.837  0.00  0.00    +0.133 C 
ATOM     24  C   UNL     1     -15.571  -0.308 -14.403  0.00  0.00    +0.090 C 
ENDROOT
BRANCH   7   8
ATOM      8  C   UNL     1     -18.876  -2.247 -14.171  0.00  0.00    +0.286 C 
ATOM      9  N   UNL     1     -19.644  -2.877 -13.240  0.00  0.00    -0.084 NA
ATOM     10  O   UNL     1     -19.269  -2.289 -15.322  0.00  0.00    -0.267 OA
ENDBRANCH   7   8
BRANCH  11  12
ATOM     12  N   UNL     1     -17.120  -1.020 -16.155  0.00  0.00    -0.211 NA
BRANCH  12  13
ATOM     13  C   UNL     1     -16.537  -0.249 -17.253  0.00  0.00    +0.073 C 
ATOM     14  C   UNL     1     -16.960   1.231 -17.131  0.00  0.00    +0.018 C 
ATOM     15  C   UNL     1     -18.472   1.343 -17.292  0.00  0.00    +0.002 C 
ATOM     16  C   UNL     1     -18.902   0.854 -18.682  0.00  0.00    +0.003 C 
ATOM     17  C   UNL     1     -18.525  -0.626 -18.811  0.00  0.00    +0.002 C 
ATOM     18  C   UNL     1     -18.154   1.617 -19.780  0.00  0.00    +0.030 C 
ATOM     19  C   UNL     1     -16.644   1.519 -19.591  0.00  0.00    +0.127 C 
ATOM     20  C   UNL     1     -16.249   0.035 -19.686  0.00  0.00    +0.032 C 
ATOM     21  O   UNL     1     -16.009   2.278 -20.612  0.00  0.00    -0.226 OA
ATOM     22  C   UNL     1     -16.254   2.060 -18.208  0.00  0.00    +0.032 C 
ATOM     23  C   UNL     1     -16.997  -0.774 -18.606  0.00  0.00    +0.018 C 
ENDBRANCH  12  13
ENDBRANCH  11  12
TORSDOF 3
