REMARK  Name = 1bl6_ligand
REMARK  4 active torsions:
REMARK  status: ('A' for Active; 'I' for Inactive)
REMARK    1  A    between atoms: CA5_6  and  CC3_16
REMARK    2  A    between atoms: CB5_12  and  CC2_15
REMARK    3  A    between atoms: NC1_14  and  CD1_19
REMARK    4  A    between atoms: CD1_19  and  CE1_20
REMARK                            x       y       z     vdW  Elec       q    Type
REMARK                         _______ _______ _______ _____ _____    ______ ____
ROOT
ATOM      7  C   UNL     1       2.719  13.168  30.237  0.00  0.00    +0.041 A 
ATOM      8  C   UNL     1       1.388  12.463  30.247  0.00  0.00    +0.103 A 
ATOM     15  N   UNL     1       0.339  13.460  30.326  0.00  0.00    -0.237 N 
ATOM     20  C   UNL     1       1.132  14.606  30.364  0.00  0.00    +0.235 A 
ATOM     21  N   UNL     1       2.503  14.556  30.321  0.00  0.00    -0.307 NA
ENDROOT
BRANCH   7   5
ATOM      1  F   UNL     1       7.939  10.952  30.250  0.00  0.00    -0.185 F 
ATOM      2  C   UNL     1       6.687  11.482  30.220  0.00  0.00    +0.130 A 
ATOM      3  C   UNL     1       5.776  11.124  29.184  0.00  0.00    +0.029 A 
ATOM      4  C   UNL     1       4.467  11.680  29.178  0.00  0.00    -0.001 A 
ATOM      5  C   UNL     1       4.045  12.609  30.212  0.00  0.00    -0.024 A 
ATOM      6  C   UNL     1       4.996  12.949  31.230  0.00  0.00    -0.001 A 
ATOM     22  C   UNL     1       6.298  12.392  31.232  0.00  0.00    +0.029 A 
ENDBRANCH   7   5
BRANCH   8   9
ATOM      9  C   UNL     1       1.136  11.047  30.113  0.00  0.00    +0.022 A 
ATOM     10  C   UNL     1       1.515  10.129  31.154  0.00  0.00    +0.039 A 
ATOM     11  C   UNL     1       1.249   8.745  30.985  0.00  0.00    +0.086 A 
ATOM     12  N   UNL     1       0.648   8.287  29.869  0.00  0.00    -0.304 NA
ATOM     13  C   UNL     1       0.271   9.103  28.864  0.00  0.00    +0.086 A 
ATOM     14  C   UNL     1       0.499  10.501  28.943  0.00  0.00    +0.039 A 
ENDBRANCH   8   9
BRANCH  15  16
ATOM     16  C   UNL     1      -1.185  13.402  30.341  0.00  0.00    +0.187 C 
BRANCH  16  17
ATOM     17  C   UNL     1      -1.838  13.298  28.907  0.00  0.00    +0.020 C 
ATOM     18  C   UNL     1      -1.004  13.446  27.607  0.00  0.00    +0.006 C 
ATOM     19  C   UNL     1      -1.932  14.578  28.058  0.00  0.00    +0.006 C 
ENDBRANCH  16  17
ENDBRANCH  15  16
TORSDOF 4
