REMARK  Name = I3P
REMARK  6 active torsions:
REMARK  status: ('A' for Active; 'I' for Inactive)
REMARK    1  A    between atoms: C1_1  and  O1_7
REMARK    2  A    between atoms: C4_4  and  O4_10
REMARK    3  A    between atoms: C5_5  and  O5_11
REMARK    4  A    between atoms: O1_7  and  P1_13
REMARK    5  A    between atoms: O4_10  and  P4_17
REMARK    6  A    between atoms: O5_11  and  P5_21
REMARK                            x       y       z     vdW  Elec       q    Type
REMARK                         _______ _______ _______ _____ _____    ______ ____
ROOT
ATOM      1  C   UNL     1      10.415  29.279  83.845  0.00  0.00    +0.192 C 
ATOM      2  C   UNL     1      10.335  29.493  85.336  0.00  0.00    +0.212 C 
ATOM      3  C   UNL     1      11.729  29.218  85.964  0.00  0.00    +0.189 C 
ATOM      9  C   UNL     1      12.410  27.991  85.469  0.00  0.00    +0.189 C 
ATOM     15  C   UNL     1      12.593  28.023  83.975  0.00  0.00    +0.215 C 
ATOM     16  O   UNL     1      13.335  26.942  83.412  0.00  0.00    -0.218 OA
ATOM     17  O   UNL     1       9.808  30.763  85.752  0.00  0.00    -0.218 OA
ATOM     23  C   UNL     1      11.200  28.038  83.379  0.00  0.00    +0.215 C 
ATOM     24  O   UNL     1      10.553  26.801  83.709  0.00  0.00    -0.218 OA
ENDROOT
BRANCH   3   4
ATOM      4  O   UNL     1      11.555  29.119  87.402  0.00  0.00    -0.267 OA
BRANCH   4   5
ATOM      5  P   UNL     1      11.817  30.271  88.440  0.00  0.00    +0.533 P 
ATOM      6  O   UNL     1      11.256  29.898  89.795  0.00  0.00    -0.115 OA
ATOM      7  O   UNL     1      13.298  30.549  88.588  0.00  0.00    -0.115 OA
ATOM      8  O   UNL     1      10.933  31.468  88.049  0.00  0.00    -0.222 OA
ENDBRANCH   4   5
ENDBRANCH   3   4
BRANCH   9  10
ATOM     10  O   UNL     1      13.657  27.847  86.067  0.00  0.00    -0.267 OA
BRANCH  10  11
ATOM     11  P   UNL     1      14.220  26.487  86.664  0.00  0.00    +0.533 P 
ATOM     12  O   UNL     1      13.296  26.120  87.769  0.00  0.00    -0.115 OA
ATOM     13  O   UNL     1      15.639  26.735  87.306  0.00  0.00    -0.115 OA
ATOM     14  O   UNL     1      14.206  25.581  85.515  0.00  0.00    -0.222 OA
ENDBRANCH  10  11
ENDBRANCH   9  10
BRANCH   1  18
ATOM     18  O   UNL     1       8.987  29.267  83.428  0.00  0.00    -0.267 OA
BRANCH  18  19
ATOM     19  P   UNL     1       8.755  29.766  81.867  0.00  0.00    +0.533 P 
ATOM     20  O   UNL     1       8.862  31.189  81.926  0.00  0.00    -0.115 OA
ATOM     21  O   UNL     1       7.364  29.321  81.636  0.00  0.00    -0.115 OA
ATOM     22  O   UNL     1       9.689  29.181  80.982  0.00  0.00    -0.222 OA
ENDBRANCH  18  19
ENDBRANCH   1  18
TORSDOF 6
