REMARK  Name = 3kah_ligand
REMARK  7 active torsions:
REMARK  status: ('A' for Active; 'I' for Inactive)
REMARK    1  A    between atoms: C9_9  and  C10_10
REMARK    2  A    between atoms: C10_10  and  C11_11
REMARK    3  A    between atoms: C11_11  and  C12_12
REMARK    4  A    between atoms: C11_11  and  N15_15
REMARK    5  A    between atoms: C16_16  and  C17_17
REMARK    6  A    between atoms: N19_19  and  C23_23
REMARK    7  A    between atoms: C21_21  and  C24_24
REMARK                            x       y       z     vdW  Elec       q    Type
REMARK                         _______ _______ _______ _____ _____    ______ ____
ROOT
ATOM     10  N   UNL     1      36.782 -26.726 -18.949  0.00  0.00    -0.266 N 
ATOM     11  H   UNL     1      37.222 -26.149 -19.637  0.00  0.00    +0.187 HD
ATOM     12  C   UNL     1      35.520 -27.102 -19.133  0.00  0.00    +0.235 C 
ATOM     13  O   UNL     1      34.890 -27.808 -18.348  0.00  0.00    -0.382 OA
ENDROOT
BRANCH  12  14
ATOM     14  C   UNL     1      34.874 -26.587 -20.421  0.00  0.00    +0.161 A 
ATOM     15  C   UNL     1      35.517 -26.231 -21.522  0.00  0.00    +0.028 A 
ATOM     16  C   UNL     1      34.561 -25.855 -22.371  0.00  0.00    +0.049 A 
ATOM     23  N   UNL     1      33.379 -25.994 -21.761  0.00  0.00    -0.199 NA
ATOM     24  N   UNL     1      33.576 -26.422 -20.624  0.00  0.00    -0.192 N 
ATOM     25  C   UNL     1      32.518 -26.710 -19.629  0.00  0.00    +0.244 C 
BRANCH  16  17
ATOM     17  C   UNL     1      34.759 -25.396 -23.668  0.00  0.00    -0.012 A 
ATOM     18  C   UNL     1      33.800 -24.593 -24.274  0.00  0.00    +0.007 A 
ATOM     19  C   UNL     1      33.997 -24.134 -25.572  0.00  0.00    -0.001 A 
ATOM     20  C   UNL     1      35.153 -24.478 -26.262  0.00  0.00    -0.002 A 
ATOM     21  C   UNL     1      36.112 -25.282 -25.656  0.00  0.00    -0.001 A 
ATOM     22  C   UNL     1      35.915 -25.740 -24.358  0.00  0.00    +0.007 A 
ENDBRANCH  16  17
ENDBRANCH  12  14
BRANCH  10   9
ATOM      9  CA  UNL     1      37.550 -27.133 -17.764  0.00  0.00    +0.187 C 
BRANCH   9  26
ATOM     26  C   UNL     1      38.974 -27.507 -18.181  0.00  0.00    +0.063 C 
ATOM     27  OXT UNL     1      39.775 -27.934 -17.350  0.00  0.00    -0.566 OA
ATOM     28  O   UNL     1      39.333 -27.384 -19.351  0.00  0.00    -0.566 OA
ENDBRANCH   9  26
BRANCH   9   8
ATOM      8  C   UNL     1      37.598 -25.976 -16.764  0.00  0.00    +0.179 C 
BRANCH   8   7
ATOM      1  C   UNL     1      32.015 -24.045 -15.613  0.00  0.00    -0.027 A 
ATOM      2  C   UNL     1      33.043 -23.989 -16.546  0.00  0.00    -0.012 A 
ATOM      3  C   UNL     1      34.229 -24.674 -16.309  0.00  0.00    +0.021 A 
ATOM      4  C   UNL     1      34.387 -25.411 -15.146  0.00  0.00    +0.078 A 
ATOM      5  N   UNL     1      35.600 -25.951 -15.185  0.00  0.00    -0.246 N 
ATOM      6  H   UNL     1      36.014 -26.556 -14.462  0.00  0.00    +0.232 HD
ATOM      7  C   UNL     1      36.190 -25.576 -16.320  0.00  0.00    +0.125 A 
ATOM     29  C   UNL     1      33.360 -25.468 -14.211  0.00  0.00    +0.012 A 
ATOM     30  N   UNL     1      35.353 -24.797 -17.006  0.00  0.00    -0.318 NA
ATOM     31  C   UNL     1      32.173 -24.784 -14.446  0.00  0.00    -0.024 A 
ENDBRANCH   8   7
ENDBRANCH   9   8
ENDBRANCH  10   9
TORSDOF 6
