REMARK  Name = 5JHB
REMARK  5 active torsions:
REMARK  status: ('A' for Active; 'I' for Inactive)
REMARK    1  A    between atoms: C_2  and  C_5
REMARK    2  A    between atoms: C_11  and  C_12
REMARK    3  A    between atoms: C_19  and  C_20
REMARK    4  A    between atoms: C_19  and  C_22
REMARK    5  A    between atoms: C_22  and  O_23
REMARK                            x       y       z     vdW  Elec       q    Type
REMARK                         _______ _______ _______ _____ _____    ______ ____
ROOT
ATOM      5  C   UNL     1      22.859  -4.855  20.918  0.00  0.00    +0.169 A 
ATOM      6  N   UNL     1      22.380  -3.674  20.370  0.00  0.00    -0.194 NA
ATOM      7  C   UNL     1      21.071  -3.273  20.713  0.00  0.00    +0.223 A 
ATOM      8  N   UNL     1      20.294  -4.034  21.570  0.00  0.00    -0.181 NA
ATOM      9  C   UNL     1      20.835  -5.206  22.084  0.00  0.00    +0.223 A 
ATOM     10  N   UNL     1      19.909  -5.932  23.000  0.00  0.00    -0.295 N 
ATOM     11  C   UNL     1      18.429  -5.771  22.788  0.00  0.00    +0.136 C 
ATOM     12  C   UNL     1      17.613  -6.259  24.015  0.00  0.00    +0.178 C 
ATOM     13  O   UNL     1      17.908  -7.590  24.327  0.00  0.00    -0.377 OA
ATOM     14  C   UNL     1      19.264  -7.814  24.573  0.00  0.00    +0.178 C 
ATOM     15  C   UNL     1      20.184  -7.356  23.400  0.00  0.00    +0.136 C 
ATOM     16  N   UNL     1      20.457  -2.051  20.197  0.00  0.00    -0.298 N 
ATOM     17  C   UNL     1      19.941  -1.622  18.861  0.00  0.00    +0.120 C 
ATOM     18  C   UNL     1      19.258  -0.312  19.451  0.00  0.00    +0.039 C 
ATOM     24  C   UNL     1      19.788  -0.848  20.841  0.00  0.00    +0.120 C 
ATOM     25  N   UNL     1      22.106  -5.640  21.780  0.00  0.00    -0.194 NA
ENDROOT
BRANCH   5   4
ATOM      3  C   UNL     1      24.988  -5.320  19.335  0.00  0.00    +0.070 A 
ATOM      4  C   UNL     1      24.315  -5.363  20.582  0.00  0.00    +0.049 A 
ATOM     26  C   UNL     1      25.156  -5.967  21.544  0.00  0.00    +0.125 A 
ATOM     27  N   UNL     1      26.416  -6.446  21.406  0.00  0.00    -0.240 NA
ATOM     28  C   UNL     1      27.039  -6.375  20.172  0.00  0.00    +0.117 A 
ATOM     29  N   UNL     1      28.332  -6.863  20.022  0.00  0.00    -0.343 N 
ATOM     30  H   UNL     1      29.150  -6.378  20.348  0.00  0.00    +0.144 HD
ATOM     31  H   UNL     1      28.536  -7.740  19.575  0.00  0.00    +0.144 HD
ATOM     32  C   UNL     1      26.306  -5.794  19.105  0.00  0.00    +0.056 A 
BRANCH   3   2
ATOM      1  F   UNL     1      24.802  -5.047  16.933  0.00  0.00    -0.166 F 
ATOM      2  C   UNL     1      24.286  -4.707  18.128  0.00  0.00    +0.418 C 
ATOM     33  F   UNL     1      24.278  -3.351  18.083  0.00  0.00    -0.166 F 
ATOM     34  F   UNL     1      22.990  -5.040  18.057  0.00  0.00    -0.166 F 
ENDBRANCH   3   2
ENDBRANCH   5   4
BRANCH  18  22
ATOM     22  C   UNL     1      17.735  -0.275  19.196  0.00  0.00    +0.121 C 
ATOM     23 CL   UNL     1      16.648  -0.714  20.671  0.00  0.00    -0.125 Cl
ENDBRANCH  18  22
BRANCH  18  19
ATOM     19  C   UNL     1      19.918   1.002  18.920  0.00  0.00    +0.167 C 
BRANCH  19  20
ATOM     20  O   UNL     1      19.638   2.055  19.806  0.00  0.00    -0.394 OA
ATOM     21  H   UNL     1      20.399   2.146  20.384  0.00  0.00    +0.209 HD
ENDBRANCH  19  20
ENDBRANCH  18  19
TORSDOF 5
