REMARK  Name = 4FTU
REMARK  6 active torsions:
REMARK  status: ('A' for Active; 'I' for Inactive)
REMARK    1  A    between atoms: C_9  and  C_10
REMARK    2  A    between atoms: C_10  and  C_11
REMARK    3  A    between atoms: C_11  and  O_12
REMARK    4  A    between atoms: O_12  and  C_13
REMARK    5  A    between atoms: C_20  and  N_22
REMARK    6  A    between atoms: N_22  and  C_23
REMARK                            x       y       z     vdW  Elec       q    Type
REMARK                         _______ _______ _______ _____ _____    ______ ____
ROOT
ATOM      1  O   UNL     1      16.336  -1.999   9.005  0.00  0.00    -0.267 OA
ATOM      2  C   UNL     1      17.109  -2.917   9.284  0.00  0.00    +0.258 A 
ATOM      3  C   UNL     1      16.575  -4.164   9.922  0.00  0.00    +0.063 A 
ATOM      4  C   UNL     1      15.208  -4.389   9.761  0.00  0.00    +0.017 A 
ATOM      5  C   UNL     1      14.546  -5.354  10.495  0.00  0.00    +0.024 A 
ATOM      6  C   UNL     1      15.237  -6.131  11.414  0.00  0.00    +0.033 A 
ATOM     15  C   UNL     1      16.611  -5.965  11.543  0.00  0.00    +0.049 A 
ATOM     16  C   UNL     1      17.293  -5.003  10.802  0.00  0.00    +0.054 A 
ATOM     17  N   UNL     1      18.689  -4.960  10.984  0.00  0.00    -0.353 N 
ATOM     18  H   UNL     1      19.076  -5.342  11.841  0.00  0.00    +0.166 HD
ATOM     19  C   UNL     1      19.601  -4.780   9.926  0.00  0.00    +0.063 A 
ATOM     20  C   UNL     1      20.691  -5.645   9.840  0.00  0.00    +0.028 A 
ATOM     21  C   UNL     1      21.718  -5.385   8.948  0.00  0.00    +0.006 A 
ATOM     22  C   UNL     1      21.688  -4.269   8.125  0.00  0.00    -0.035 A 
ATOM     28  C   UNL     1      20.574  -3.439   8.174  0.00  0.00    +0.032 A 
ATOM     29  C   UNL     1      19.528  -3.682   9.061  0.00  0.00    +0.066 A 
ATOM     30  N   UNL     1      18.423  -2.804   9.006  0.00  0.00    -0.320 N 
ATOM     31  H   UNL     1      18.687  -1.874   8.698  0.00  0.00    +0.169 HD
ENDROOT
BRANCH   6   7
ATOM      7  N   UNL     1      14.584  -7.070  12.250  0.00  0.00    -0.314 N 
ATOM      8  H   UNL     1      15.153  -7.861  12.533  0.00  0.00    +0.152 HD
BRANCH   7   9
ATOM      9  C   UNL     1      13.258  -7.068  12.746  0.00  0.00    +0.034 A 
ATOM     10  C   UNL     1      12.456  -5.933  12.737  0.00  0.00    +0.043 A 
ATOM     11  C   UNL     1      11.142  -6.053  13.147  0.00  0.00    +0.112 A 
ATOM     12  N   UNL     1      10.603  -7.191  13.590  0.00  0.00    -0.263 NA
ATOM     13  C   UNL     1      11.402  -8.265  13.630  0.00  0.00    +0.112 A 
ATOM     14  C   UNL     1      12.724  -8.259  13.221  0.00  0.00    +0.043 A 
ENDBRANCH   7   9
ENDBRANCH   6   7
BRANCH  22  23
ATOM     23  C   UNL     1      22.871  -3.916   7.250  0.00  0.00    +0.155 C 
BRANCH  23  24
ATOM     24  C   UNL     1      22.687  -4.343   5.821  0.00  0.00    +0.311 C 
ATOM     25  O   UNL     1      23.000  -3.698   4.855  0.00  0.00    -0.251 OA
BRANCH  24  26
ATOM     26  O   UNL     1      22.129  -5.550   5.754  0.00  0.00    -0.468 OA
ATOM     27  C   UNL     1      21.870  -6.090   4.437  0.00  0.00    +0.280 C 
ENDBRANCH  24  26
ENDBRANCH  23  24
ENDBRANCH  22  23
TORSDOF 5
