REMARK  Name = 4FT5
REMARK  5 active torsions:
REMARK  status: ('A' for Active; 'I' for Inactive)
REMARK    1  A    between atoms: C_2  and  C_3
REMARK    2  A    between atoms: C_8  and  N_9
REMARK    3  A    between atoms: N_12  and  C_13
REMARK    4  A    between atoms: C_17  and  O_20
REMARK    5  A    between atoms: O_20  and  C_21
REMARK                            x       y       z     vdW  Elec       q    Type
REMARK                         _______ _______ _______ _____ _____    ______ ____
ROOT
ATOM      7  N   UNL     1      14.697  -2.545   9.611  0.00  0.00    -0.253 N 
ATOM      8  H   UNL     1      14.245  -1.698   9.285  0.00  0.00    +0.158 HD
ATOM      9  C   UNL     1      15.957  -2.759   9.097  0.00  0.00    +0.309 C 
ATOM     10  N   UNL     1      16.561  -3.927   9.503  0.00  0.00    -0.266 N 
ATOM     11  H   UNL     1      16.020  -4.779   9.587  0.00  0.00    +0.157 HD
ATOM     26  O   UNL     1      16.488  -1.962   8.328  0.00  0.00    -0.252 OA
ENDROOT
BRANCH  10  12
ATOM     12  C   UNL     1      17.959  -4.206   9.562  0.00  0.00    +0.078 A 
ATOM     13  C   UNL     1      18.370  -5.294  10.373  0.00  0.00    +0.142 A 
ATOM     21  C   UNL     1      19.685  -5.732  10.341  0.00  0.00    +0.049 A 
ATOM     22  C   UNL     1      20.612  -5.078   9.557  0.00  0.00    +0.023 A 
ATOM     23  C   UNL     1      20.221  -4.002   8.791  0.00  0.00    +0.043 A 
ATOM     24 CL   UNL     1      21.406  -3.162   7.843  0.00  0.00    -0.084 Cl
ATOM     25  C   UNL     1      18.908  -3.563   8.772  0.00  0.00    +0.047 A 
BRANCH  13  14
ATOM     14  O   UNL     1      17.410  -5.857  11.189  0.00  0.00    -0.486 OA
BRANCH  14  15
ATOM     15  C   UNL     1      17.849  -6.450  12.437  0.00  0.00    +0.188 C 
ATOM     16  C   UNL     1      17.881  -7.955  12.238  0.00  0.00    +0.061 C 
ATOM     17  C   UNL     1      16.864  -8.524  13.237  0.00  0.00    +0.084 C 
ATOM     18  N   UNL     1      15.964  -7.406  13.542  0.00  0.00    -0.312 NA
ATOM     19  H   UNL     1      15.166  -7.358  12.916  0.00  0.00    +0.122 HD
ATOM     20  C   UNL     1      16.778  -6.182  13.531  0.00  0.00    +0.125 C 
ENDBRANCH  14  15
ENDBRANCH  13  14
ENDBRANCH  10  12
BRANCH   7   6
ATOM      3  C   UNL     1      12.027  -4.353  12.149  0.00  0.00    +0.158 A 
ATOM      4  C   UNL     1      11.804  -3.068  11.552  0.00  0.00    +0.151 A 
ATOM      5  N   UNL     1      12.724  -2.520  10.743  0.00  0.00    -0.236 NA
ATOM      6  C   UNL     1      13.846  -3.227  10.507  0.00  0.00    +0.144 A 
ATOM     27  C   UNL     1      14.073  -4.477  11.121  0.00  0.00    +0.156 A 
ATOM     28  N   UNL     1      13.162  -5.035  11.926  0.00  0.00    -0.240 NA
BRANCH   3   2
ATOM      1  N   UNL     1      10.306  -5.603  13.555  0.00  0.00    -0.189 NA
ATOM      2  C   UNL     1      11.053  -5.008  12.935  0.00  0.00    +0.121 C 
ENDBRANCH   3   2
ENDBRANCH   7   6
TORSDOF 5
