REMARK  Name = 3MTL
REMARK  7 active torsions:
REMARK  status: ('A' for Active; 'I' for Inactive)
REMARK    1  A    between atoms: N_20  and  O_21
REMARK    2  A    between atoms: O_21  and  C_22
REMARK    3  A    between atoms: C_22  and  C_23
REMARK    4  A    between atoms: C_23  and  C_24
REMARK    5  A    between atoms: C_24  and  O_25
REMARK    6  A    between atoms: C_24  and  C_26
REMARK    7  A    between atoms: C_26  and  O_27
REMARK                            x       y       z     vdW  Elec       q    Type
REMARK                         _______ _______ _______ _____ _____    ______ ____
ROOT
ATOM      1  O   UNL     1      -6.572 -25.627  12.557  0.00  0.00    -0.270 OA
ATOM      2  C   UNL     1      -7.677 -25.069  12.509  0.00  0.00    +0.251 C 
ATOM      3  N   UNL     1      -8.054 -24.240  11.544  0.00  0.00    -0.281 N 
ATOM      4  H   UNL     1      -7.471 -23.983  10.685  0.00  0.00    +0.155 HD
ATOM      5  C   UNL     1      -9.281 -23.776  11.817  0.00  0.00    +0.042 A 
ATOM      6  C   UNL     1     -10.137 -22.939  11.080  0.00  0.00    +0.024 A 
ATOM      7  C   UNL     1     -11.377 -22.542  11.598  0.00  0.00    +0.002 A 
ATOM      8  C   UNL     1     -11.764 -23.000  12.864  0.00  0.00    +0.001 A 
ATOM      9  C   UNL     1     -10.914 -23.843  13.595  0.00  0.00    +0.010 A 
ATOM     10  C   UNL     1      -9.665 -24.237  13.086  0.00  0.00    +0.010 A 
ATOM     11  C   UNL     1      -8.630 -25.072  13.527  0.00  0.00    +0.069 C 
ATOM     12  C   UNL     1      -8.423 -25.730  14.762  0.00  0.00    +0.074 C 
ATOM     13  N   UNL     1      -7.296 -26.376  15.083  0.00  0.00    -0.312 N 
ATOM     14  H   UNL     1      -6.457 -26.492  14.429  0.00  0.00    +0.152 HD
ATOM     15  C   UNL     1      -7.355 -26.858  16.329  0.00  0.00    +0.041 A 
ATOM     16  C   UNL     1      -6.434 -27.606  17.080  0.00  0.00    +0.024 A 
ATOM     17  C   UNL     1      -6.732 -27.994  18.387  0.00  0.00    +0.002 A 
ATOM     18  C   UNL     1      -7.957 -27.617  18.945  0.00  0.00    +0.001 A 
ATOM     19  C   UNL     1      -8.881 -26.886  18.191  0.00  0.00    +0.012 A 
ATOM     20  C   UNL     1      -8.573 -26.484  16.886  0.00  0.00    +0.026 A 
ATOM     21  C   UNL     1      -9.238 -25.747  15.904  0.00  0.00    +0.133 C 
ATOM     22  N   UNL     1     -10.466 -25.231  16.035  0.00  0.00    -0.083 NA
ENDROOT
BRANCH  22  23
ATOM     23  O   UNL     1     -11.174 -25.295  17.200  0.00  0.00    -0.393 OA
BRANCH  23  24
ATOM     24  C   UNL     1     -11.640 -24.001  17.618  0.00  0.00    +0.265 C 
BRANCH  24  25
ATOM     25  C   UNL     1     -13.065 -24.169  18.179  0.00  0.00    +0.077 C 
BRANCH  25  26
ATOM     26  C   UNL     1     -13.524 -22.969  19.021  0.00  0.00    +0.143 C 
BRANCH  26  30
ATOM     30  O   UNL     1     -14.891 -23.139  19.409  0.00  0.00    -0.389 OA
ATOM     31  H   UNL     1     -15.493 -23.210  18.551  0.00  0.00    +0.210 HD
ENDBRANCH  26  30
BRANCH  26  27
ATOM     27  C   UNL     1     -12.656 -22.835  20.273  0.00  0.00    +0.187 C 
BRANCH  27  28
ATOM     28  O   UNL     1     -12.796 -23.996  21.092  0.00  0.00    -0.393 OA
ATOM     29  H   UNL     1     -13.800 -24.104  21.379  0.00  0.00    +0.209 HD
ENDBRANCH  27  28
ENDBRANCH  26  27
ENDBRANCH  25  26
ENDBRANCH  24  25
ENDBRANCH  23  24
ENDBRANCH  22  23
TORSDOF 7
