REMARK  Name = 3d94_ligand
REMARK  5 active torsions:
REMARK  status: ('A' for Active; 'I' for Inactive)
REMARK    1  A    between atoms: C5_8  and  C22_9
REMARK    2  A    between atoms: C24_11  and  N6_12
REMARK    3  A    between atoms: N7_15  and  C30_16
REMARK    4  A    between atoms: C6_21  and  C7_22
REMARK    5  A    between atoms: C13_29  and  C16_32
REMARK                            x       y       z     vdW  Elec       q    Type
REMARK                         _______ _______ _______ _____ _____    ______ ____
ROOT
ATOM      1  N   UNL     1      25.411  13.594  -7.647  0.00  0.00    -0.313 N 
ATOM      2  H   UNL     1      25.777  14.487  -8.006  0.00  0.00    +0.181 HD
ATOM      3  H   UNL     1      25.656  12.711  -8.117  0.00  0.00    +0.181 HD
ATOM      4  C   UNL     1      24.592  13.581  -6.536  0.00  0.00    +0.144 A 
ATOM      5  N   UNL     1      24.153  12.419  -6.086  0.00  0.00    -0.305 NA
ATOM      6  C   UNL     1      23.336  12.395  -4.970  0.00  0.00    +0.071 A 
ATOM      7  C   UNL     1      22.952  13.488  -4.275  0.00  0.00    +0.177 A 
ATOM      8  N   UNL     1      23.405  14.730  -4.719  0.00  0.00    -0.194 N 
ATOM      9  C   UNL     1      23.195  16.003  -4.252  0.00  0.00    +0.141 A 
ATOM     10  N   UNL     1      23.830  16.888  -5.004  0.00  0.00    -0.318 NA
ATOM     11  C   UNL     1      24.458  16.176  -6.004  0.00  0.00    +0.036 A 
ATOM     41  C   UNL     1      24.222  14.819  -5.841  0.00  0.00    +0.153 A 
ENDROOT
BRANCH  11  12
ATOM     12  C   UNL     1      25.334  16.898  -6.899  0.00  0.00    -0.028 A 
ATOM     13  C   UNL     1      26.642  16.403  -7.019  0.00  0.00    +0.006 A 
ATOM     14  C   UNL     1      27.612  17.050  -7.786  0.00  0.00    +0.015 A 
ATOM     15  C   UNL     1      27.275  18.274  -8.414  0.00  0.00    +0.001 A 
ATOM     16  C   UNL     1      28.207  18.968  -9.195  0.00  0.00    +0.037 A 
ATOM     17  C   UNL     1      27.842  20.179  -9.792  0.00  0.00    +0.038 A 
ATOM     18  C   UNL     1      26.549  20.685  -9.602  0.00  0.00    +0.046 A 
ATOM     25  N   UNL     1      25.613  20.008  -8.856  0.00  0.00    -0.299 NA
ATOM     26  C   UNL     1      25.968  18.836  -8.266  0.00  0.00    +0.034 A 
ATOM     27  C   UNL     1      25.030  18.148  -7.477  0.00  0.00    +0.008 A 
BRANCH  18  19
ATOM     19  C   UNL     1      26.094  21.937 -10.252  0.00  0.00    +0.001 A 
ATOM     20  C   UNL     1      24.849  21.958 -10.916  0.00  0.00    +0.016 A 
ATOM     21  C   UNL     1      24.367  23.095 -11.563  0.00  0.00    +0.004 A 
ATOM     22  C   UNL     1      25.143  24.242 -11.594  0.00  0.00    +0.005 A 
ATOM     23  C   UNL     1      26.391  24.258 -10.959  0.00  0.00    +0.004 A 
ATOM     24  C   UNL     1      26.860  23.116 -10.298  0.00  0.00    +0.016 A 
ENDBRANCH  18  19
ENDBRANCH  11  12
BRANCH   9  28
ATOM     28  C   UNL     1      22.350  16.346  -3.025  0.00  0.00    +0.101 C 
ATOM     29  C   UNL     1      23.179  16.295  -1.710  0.00  0.00    +0.079 C 
ATOM     30  C   UNL     1      22.116  17.284  -1.187  0.00  0.00    +0.070 C 
ATOM     40  C   UNL     1      22.147  17.837  -2.638  0.00  0.00    +0.079 C 
BRANCH  30  31
ATOM     31  N   UNL     1      22.427  18.271  -0.104  0.00  0.00    +0.245 N 
ATOM     32  H   UNL     1      21.711  18.102   0.585  0.00  0.00    +0.204 HD
ATOM     33  C   UNL     1      23.700  17.991   0.599  0.00  0.00    +0.183 C 
ATOM     34  C   UNL     1      23.860  18.853   1.858  0.00  0.00    +0.183 C 
ATOM     35  N   UNL     1      23.615  20.323   1.574  0.00  0.00    +0.240 N 
ATOM     36  H   UNL     1      24.364  20.617   0.967  0.00  0.00    +0.203 HD
ATOM     37  C   UNL     1      23.694  21.188   2.803  0.00  0.00    +0.191 C 
ATOM     38  C   UNL     1      22.328  20.583   0.825  0.00  0.00    +0.183 C 
ATOM     39  C   UNL     1      22.282  19.704  -0.422  0.00  0.00    +0.183 C 
ENDBRANCH  30  31
ENDBRANCH   9  28
TORSDOF 4
