REMARK  Name = 5MO6
REMARK  10 active torsions:
REMARK  status: ('A' for Active; 'I' for Inactive)
REMARK    1  A    between atoms: C_3  and  C_4
REMARK    2  A    between atoms: C_13  and  C_14
REMARK    3  A    between atoms: C_14  and  N_15
REMARK    4  A    between atoms: N_15  and  C_16
REMARK    5  A    between atoms: C_16  and  C_17
REMARK    6  A    between atoms: C_17  and  C_18
REMARK    7  A    between atoms: C_18  and  N_19
REMARK    8  A    between atoms: C_20  and  C_22
REMARK    9  A    between atoms: C_22  and  C_23
REMARK   10  A    between atoms: C_23  and  O_25
REMARK                            x       y       z     vdW  Elec       q    Type
REMARK                         _______ _______ _______ _____ _____    ______ ____
ROOT
ATOM      5  C   UNL     1       4.278 138.429 354.142  0.00  0.00    +0.116 C 
ENDROOT
BRANCH   5   4
ATOM      1 CL   UNL     1       7.006 142.777 353.344  0.00  0.00    -0.083 Cl
ATOM      2  C   UNL     1       5.525 141.886 353.200  0.00  0.00    +0.049 A 
ATOM      3  C   UNL     1       5.522 140.566 353.613  0.00  0.00    +0.025 A 
ATOM      4  C   UNL     1       4.363 139.804 353.521  0.00  0.00    -0.032 A 
ATOM     20  C   UNL     1       3.235 140.387 352.961  0.00  0.00    +0.005 A 
ATOM     21  C   UNL     1       3.239 141.708 352.543  0.00  0.00    +0.010 A 
ATOM     22  C   UNL     1       4.383 142.495 352.675  0.00  0.00    +0.001 A 
BRANCH  22  23
ATOM     23  C   UNL     1       4.283 143.944 352.330  0.00  0.00    -0.017 A 
ATOM     24  C   UNL     1       5.257 144.567 351.546  0.00  0.00    +0.008 A 
ATOM     25  C   UNL     1       5.192 145.928 351.277  0.00  0.00    +0.001 A 
ATOM     26  C   UNL     1       4.143 146.684 351.768  0.00  0.00    +0.000 A 
ATOM     27  C   UNL     1       3.157 146.078 352.525  0.00  0.00    +0.001 A 
ATOM     28  C   UNL     1       3.226 144.722 352.808  0.00  0.00    +0.008 A 
ENDBRANCH  22  23
ENDBRANCH   5   4
BRANCH   5   6
ATOM      6  N   UNL     1       5.517 137.650 354.085  0.00  0.00    -0.312 NA
ATOM      7  H   UNL     1       6.328 138.271 354.404  0.00  0.00    +0.122 HD
BRANCH   6   8
ATOM      8  C   UNL     1       5.472 136.463 354.939  0.00  0.00    +0.083 C 
BRANCH   8   9
ATOM      9  C   UNL     1       6.795 135.736 354.967  0.00  0.00    +0.034 C 
BRANCH   9  10
ATOM     10  C   UNL     1       6.766 134.297 355.462  0.00  0.00    +0.105 C 
BRANCH  10  11
ATOM     11  N   UNL     1       5.719 133.517 354.813  0.00  0.00    -0.315 N 
ATOM     12  H   UNL     1       4.748 133.514 355.263  0.00  0.00    +0.149 HD
ATOM     13  C   UNL     1       5.889 132.806 353.695  0.00  0.00    +0.224 C 
ATOM     19  O   UNL     1       6.991 132.612 353.184  0.00  0.00    -0.275 OA
BRANCH  13  14
ATOM     14  C   UNL     1       4.631 132.231 353.075  0.00  0.00    +0.216 C 
BRANCH  14  15
ATOM     15  C   UNL     1       3.367 132.892 353.566  0.00  0.00    +0.314 C 
ATOM     18  O   UNL     1       3.220 134.101 353.598  0.00  0.00    -0.251 OA
BRANCH  15  16
ATOM     16  O   UNL     1       2.443 132.044 353.946  0.00  0.00    -0.480 OA
ATOM     17  H   UNL     1       2.180 131.427 353.138  0.00  0.00    +0.295 HD
ENDBRANCH  15  16
ENDBRANCH  14  15
ENDBRANCH  13  14
ENDBRANCH  10  11
ENDBRANCH   9  10
ENDBRANCH   8   9
ENDBRANCH   6   8
ENDBRANCH   5   6
TORSDOF 10
