REMARK  Name = 6S17
REMARK  1 active torsions:
REMARK  status: ('A' for Active; 'I' for Inactive)
REMARK    1  A    between atoms: C5_9  and  C6_11
REMARK                            x       y       z     vdW  Elec       q    Type
REMARK                         _______ _______ _______ _____ _____    ______ ____
ROOT
ATOM      1  C   UNL     1      15.974 -57.152  37.500  0.00  0.00    -0.050 C 
ATOM      2  N   UNL     1      15.386 -56.348  38.569  0.00  0.00    -0.250 N 
ATOM      3  C   UNL     1      14.117 -56.830  39.103  0.00  0.00    -0.050 C 
ATOM      4  C   UNL     1      15.847 -55.093  38.853  0.00  0.00    +0.810 A 
ATOM      5  N   UNL     1      16.894 -54.637  38.111  0.00  0.00    -0.760 NA
ATOM      6  C   UNL     1      17.365 -53.419  38.413  0.00  0.00    +0.380 A 
ATOM     16  C   UNL     1      16.812 -52.647  39.419  0.00  0.00    -0.130 A 
ATOM     17  C   UNL     1      15.733 -53.196  40.098  0.00  0.00    +0.250 A 
ATOM     18  N   UNL     1      15.202 -54.399  39.809  0.00  0.00    -0.760 NA
ENDROOT
BRANCH   6   7
ATOM      7  C   UNL     1      18.485 -52.902  37.609  0.00  0.00    +0.000 C 
ATOM      8  C   UNL     1      19.023 -53.466  36.431  0.00  0.00    +0.100 C 
ATOM      9  C   UNL     1      18.774 -54.583  35.599  0.00  0.00    -0.100 C 
ATOM     10  C   UNL     1      19.589 -54.753  34.490  0.00  0.00    -0.100 C 
ATOM     11  C   UNL     1      20.610 -53.805  34.213  0.00  0.00    -0.150 C 
ATOM     12  N   UNL     1      20.812 -52.690  34.965  0.00  0.00    -0.050 NA
ATOM     13  N   UNL     1      20.018 -52.592  36.077  0.00  0.00    -0.100 N 
ATOM     14  N   UNL     1      20.156 -51.528  36.890  0.00  0.00    -0.350 NA
ATOM     15  C   UNL     1      19.245 -51.733  37.831  0.00  0.00    +0.000 C 
ENDBRANCH   6   7
TORSDOF 1
