REMARK  Name = 5OQ7
REMARK  7 active torsions:
REMARK  status: ('A' for Active; 'I' for Inactive)
REMARK    1  A    between atoms: C_2  and  C_11
REMARK    2  A    between atoms: C_3  and  O_7
REMARK    3  A    between atoms: C_6  and  N_10
REMARK    4  A    between atoms: O_7  and  C_8
REMARK    5  A    between atoms: C_8  and  C_9
REMARK    6  A    between atoms: N_12  and  C_14
REMARK    7  A    between atoms: N_27  and  C_30
REMARK                            x       y       z     vdW  Elec       q    Type
REMARK                         _______ _______ _______ _____ _____    ______ ____
ROOT
ATOM      1  C   UNL     1       0.878  -4.570  19.733  0.00  0.00    +0.040 A 
ATOM      2  C   UNL     1      -0.466  -4.984  19.721  0.00  0.00    +0.031 A 
ATOM     10  C   UNL     1      -0.885  -5.814  18.663  0.00  0.00    +0.027 A 
ATOM     11  C   UNL     1       0.024  -6.226  17.683  0.00  0.00    +0.048 A 
ATOM     12  C   UNL     1       1.361  -5.822  17.733  0.00  0.00    +0.133 A 
ATOM     21  C   UNL     1       1.799  -4.968  18.765  0.00  0.00    +0.080 A 
ENDROOT
BRANCH   2   3
ATOM      3  N   UNL     1      -1.406  -4.546  20.742  0.00  0.00    -0.327 N 
ATOM      4  C   UNL     1      -2.900  -4.666  20.507  0.00  0.00    +0.120 C 
ATOM      5  C   UNL     1      -3.680  -4.960  21.790  0.00  0.00    +0.103 C 
ATOM      6  N   UNL     1      -3.284  -3.991  22.823  0.00  0.00    -0.302 NA
ATOM      7  C   UNL     1      -4.163  -4.036  24.010  0.00  0.00    +0.105 C 
ATOM      8  C   UNL     1      -1.870  -4.175  23.190  0.00  0.00    +0.103 C 
ATOM      9  C   UNL     1      -0.912  -3.924  21.989  0.00  0.00    +0.120 C 
ENDBRANCH   2   3
BRANCH  21  22
ATOM     22  C   UNL     1       3.294  -4.493  18.839  0.00  0.00    +0.252 C 
ATOM     23  O   UNL     1       3.596  -3.534  19.545  0.00  0.00    -0.270 OA
ATOM     24  N   UNL     1       4.265  -5.177  18.169  0.00  0.00    -0.280 N 
ATOM     25  H   UNL     1       3.997  -6.149  17.810  0.00  0.00    +0.155 HD
BRANCH  24  26
ATOM     26  C   UNL     1       5.592  -4.749  17.892  0.00  0.00    +0.052 A 
ATOM     27  C   UNL     1       6.368  -5.523  17.037  0.00  0.00    +0.134 A 
ATOM     28  N   UNL     1       7.615  -5.186  16.735  0.00  0.00    -0.261 NA
ATOM     29  C   UNL     1       8.191  -4.099  17.248  0.00  0.00    +0.111 A 
ATOM     30  C   UNL     1       7.455  -3.266  18.087  0.00  0.00    +0.021 A 
ATOM     31  C   UNL     1       6.164  -3.609  18.406  0.00  0.00    +0.026 A 
ENDBRANCH  24  26
ENDBRANCH  21  22
BRANCH  12  13
ATOM     13  O   UNL     1       2.261  -6.214  16.771  0.00  0.00    -0.487 OA
BRANCH  13  14
ATOM     14  C   UNL     1       1.989  -7.393  15.954  0.00  0.00    +0.264 C 
BRANCH  14  15
ATOM     15  C   UNL     1       3.263  -7.710  15.145  0.00  0.00    -0.010 A 
ATOM     16  C   UNL     1       3.849  -8.959  15.234  0.00  0.00    +0.007 A 
ATOM     17  C   UNL     1       4.999  -9.201  14.496  0.00  0.00    +0.000 A 
ATOM     18  C   UNL     1       5.601  -8.229  13.702  0.00  0.00    +0.000 A 
ATOM     19  C   UNL     1       5.016  -6.988  13.621  0.00  0.00    +0.000 A 
ATOM     20  C   UNL     1       3.848  -6.741  14.336  0.00  0.00    +0.007 A 
ENDBRANCH  14  15
ENDBRANCH  13  14
ENDBRANCH  12  13
TORSDOF 6
