REMARK  Name = 4Z7H
REMARK  8 active torsions:
REMARK  status: ('A' for Active; 'I' for Inactive)
REMARK    1  A    between atoms: C_1  and  C_15
REMARK    2  A    between atoms: C_2  and  C_17
REMARK    3  A    between atoms: C_4  and  C_5
REMARK    4  A    between atoms: C_6  and  O_24
REMARK    5  A    between atoms: C_7  and  N_16
REMARK    6  A    between atoms: N_16  and  C_17
REMARK    7  A    between atoms: C_17  and  C_18
REMARK    8  A    between atoms: C_19  and  O_24
REMARK                            x       y       z     vdW  Elec       q    Type
REMARK                         _______ _______ _______ _____ _____    ______ ____
ROOT
ATOM     13  C   UNL     1      32.877 -13.917  10.229  0.00  0.00    +0.089 C 
ATOM     14  C   UNL     1      31.625 -13.300  10.096  0.00  0.00    +0.112 C 
ATOM     15  N   UNL     1      30.728 -14.254   9.804  0.00  0.00    -0.344 NA
ATOM     16  H   UNL     1      29.680 -14.102   9.652  0.00  0.00    +0.167 HD
ATOM     17  C   UNL     1      31.383 -15.456   9.734  0.00  0.00    +0.131 C 
ATOM     18  C   UNL     1      30.887 -16.788   9.455  0.00  0.00    +0.049 C 
ATOM     19  C   UNL     1      31.801 -17.893   9.514  0.00  0.00    +0.046 C 
ATOM     20  C   UNL     1      33.138 -17.589   9.871  0.00  0.00    +0.112 C 
ATOM     26  N   UNL     1      33.502 -16.324  10.069  0.00  0.00    -0.278 NA
ATOM     27  H   UNL     1      34.530 -16.121  10.285  0.00  0.00    +0.189 HD
ATOM     28  N   UNL     1      32.644 -15.282  10.012  0.00  0.00    -0.236 NA
ENDROOT
BRANCH  13   1
ATOM      1  C   UNL     1      34.182 -13.210  10.554  0.00  0.00    +0.005 A 
ATOM      2  C   UNL     1      34.189 -11.846  10.837  0.00  0.00    +0.011 A 
ATOM      3  C   UNL     1      35.384 -11.168  11.095  0.00  0.00    +0.017 A 
ATOM      4  C   UNL     1      36.607 -11.838  11.036  0.00  0.00    +0.078 A 
ATOM      5  C   UNL     1      36.609 -13.198  10.712  0.00  0.00    +0.133 A 
ATOM     29  C   UNL     1      35.403 -13.867  10.482  0.00  0.00    +0.056 A 
BRANCH   4   8
ATOM      8  C   UNL     1      37.888 -11.098  11.407  0.00  0.00    +0.245 C 
ATOM      9  N   UNL     1      39.154 -11.746  11.443  0.00  0.00    -0.325 N 
ATOM     10  H   UNL     1      39.893 -11.272  11.684  0.00  0.00    +0.145 HD
ATOM     11  H   UNL     1      39.239 -12.628  11.218  0.00  0.00    +0.145 HD
ATOM     12  O   UNL     1      37.844  -9.927  11.736  0.00  0.00    -0.270 OA
ENDBRANCH   4   8
BRANCH   5   6
ATOM      6  O   UNL     1      37.821 -13.927  10.689  0.00  0.00    -0.494 OA
ATOM      7  C   UNL     1      38.171 -14.608   9.498  0.00  0.00    +0.277 C 
ENDBRANCH   5   6
ENDBRANCH  13   1
BRANCH  20  21
ATOM     21  N   UNL     1      34.092 -18.651   9.835  0.00  0.00    -0.327 NA
ATOM     22  H   UNL     1      33.904 -19.350   9.278  0.00  0.00    +0.148 HD
BRANCH  21  23
ATOM     23  C   UNL     1      35.302 -18.708  10.610  0.00  0.00    +0.066 C 
ATOM     24  C   UNL     1      36.194 -19.801  10.048  0.00  0.00    +0.027 C 
ATOM     25  C   UNL     1      36.107 -17.434  10.642  0.00  0.00    +0.027 C 
ENDBRANCH  21  23
ENDBRANCH  20  21
TORSDOF 5
