REMARK  Name = 4mp2_ligand
REMARK  3 active torsions:
REMARK  status: ('A' for Active; 'I' for Inactive)
REMARK    1  A    between atoms: O3_6  and  C13_16
REMARK    2  A    between atoms: O2_8  and  C11_18
REMARK    3  A    between atoms: C9_13  and  C10_20
REMARK                            x       y       z     vdW  Elec       q    Type
REMARK                         _______ _______ _______ _____ _____    ______ ____
ROOT
ATOM      1  C   UNL     1      18.917   1.833 -38.544  0.00  0.00    -0.021 A 
ATOM      2  C   UNL     1      18.878   0.499 -38.981  0.00  0.00    -0.021 A 
ATOM      3  C   UNL     1      17.711  -0.264 -38.903  0.00  0.00    -0.011 A 
ATOM      4  C   UNL     1      16.587   0.357 -38.375  0.00  0.00    -0.017 A 
ATOM      5  C   UNL     1      15.205  -0.199 -38.181  0.00  0.00    +0.200 C 
ATOM      6  N   UNL     1      14.436   1.000 -37.797  0.00  0.00    -0.256 N 
ATOM      7  C   UNL     1      13.101   1.017 -37.823  0.00  0.00    +0.198 C 
ATOM     19  O   UNL     1      12.471   0.032 -38.164  0.00  0.00    -0.395 OA
ATOM     20  C   UNL     1      15.272   2.159 -37.413  0.00  0.00    +0.200 C 
ATOM     21  C   UNL     1      16.629   1.744 -37.923  0.00  0.00    -0.017 A 
ATOM     22  C   UNL     1      17.800   2.478 -38.008  0.00  0.00    -0.011 A 
ENDROOT
BRANCH   7   8
ATOM      8  C   UNL     1      12.351   2.270 -37.456  0.00  0.00    +0.070 A 
ATOM      9  C   UNL     1      12.263   2.655 -36.126  0.00  0.00    +0.016 A 
ATOM     10  C   UNL     1      11.556   3.806 -35.818  0.00  0.00    +0.035 A 
ATOM     11  C   UNL     1      10.886   4.620 -36.850  0.00  0.00    +0.094 A 
ATOM     12  C   UNL     1      10.961   4.231 -38.194  0.00  0.00    +0.051 A 
ATOM     15 BR   UNL     1      11.403   4.436 -34.048  0.00  0.00    -0.066 Br
ATOM     16  C   UNL     1      11.664   3.075 -38.513  0.00  0.00    +0.104 A 
BRANCH  11  13
ATOM     13  O   UNL     1      10.229   5.742 -36.399  0.00  0.00    -0.331 OA
ATOM     14  H   UNL     1       9.834   6.194 -37.135  0.00  0.00    +0.251 HD
ENDBRANCH  11  13
BRANCH  16  17
ATOM     17  O   UNL     1      11.750   2.667 -39.801  0.00  0.00    -0.329 OA
ATOM     18  H   UNL     1      10.877   2.506 -40.140  0.00  0.00    +0.252 HD
ENDBRANCH  16  17
ENDBRANCH   7   8
TORSDOF 3
