REMARK  Name = 3lfn_ligand
REMARK  6 active torsions:
REMARK  status: ('A' for Active; 'I' for Inactive)
REMARK    1  A    between atoms: C3_3  and  C12_7
REMARK    2  A    between atoms: C13_8  and  C20_13
REMARK    3  A    between atoms: C23_16  and  O30_19
REMARK    4  A    between atoms: C35_24  and  C36_25
REMARK    5  A    between atoms: C36_25  and  C37_26
REMARK    6  A    between atoms: C37_26  and  C40_27
REMARK                            x       y       z     vdW  Elec       q    Type
REMARK                         _______ _______ _______ _____ _____    ______ ____
ROOT
ATOM      6  C   UNL     1      39.385  -8.255  24.270  0.00  0.00    -0.022 A 
ATOM      7  C   UNL     1      40.543  -9.036  24.400  0.00  0.00    +0.008 A 
ATOM      8  C   UNL     1      40.974  -9.877  23.369  0.00  0.00    +0.040 A 
ATOM      9  C   UNL     1      42.035 -10.748  23.130  0.00  0.00    +0.138 A 
ATOM     10  N   UNL     1      43.107 -11.076  23.870  0.00  0.00    -0.228 N 
ATOM     11  H   UNL     1      43.692 -11.777  23.462  0.00  0.00    +0.224 HD
ATOM     12  C   UNL     1      43.529 -10.628  25.059  0.00  0.00    +0.202 C 
ATOM     13  O   UNL     1      42.962  -9.804  25.777  0.00  0.00    -0.386 OA
ATOM     17  N   UNL     1      41.872 -11.257  21.912  0.00  0.00    -0.215 NA
ATOM     18  N   UNL     1      40.856 -10.801  21.377  0.00  0.00    -0.236 N 
ATOM     19  H   UNL     1      40.535 -11.042  20.429  0.00  0.00    +0.233 HD
ATOM     20  C   UNL     1      40.234  -9.955  22.196  0.00  0.00    +0.081 A 
ATOM     21  C   UNL     1      39.084  -9.183  22.043  0.00  0.00    +0.023 A 
ATOM     22  C   UNL     1      38.643  -8.333  23.063  0.00  0.00    -0.025 A 
ENDROOT
BRANCH   6   5
ATOM      1  C   UNL     1      38.476  -6.967  27.665  0.00  0.00    -0.002 A 
ATOM      2  C   UNL     1      38.516  -5.589  27.429  0.00  0.00    -0.003 A 
ATOM      3  C   UNL     1      38.847  -5.104  26.155  0.00  0.00    -0.002 A 
ATOM      4  C   UNL     1      39.128  -5.994  25.115  0.00  0.00    +0.004 A 
ATOM      5  C   UNL     1      39.074  -7.382  25.328  0.00  0.00    -0.025 A 
ATOM     31  C   UNL     1      38.767  -7.859  26.615  0.00  0.00    +0.004 A 
ENDBRANCH   6   5
BRANCH  22  23
ATOM     23  C   UNL     1      37.479  -7.612  22.805  0.00  0.00    -0.030 A 
ATOM     24  C   UNL     1      36.461  -7.466  23.754  0.00  0.00    -0.002 A 
ATOM     25  C   UNL     1      35.347  -6.684  23.439  0.00  0.00    +0.023 A 
ATOM     26  C   UNL     1      35.215  -6.126  22.167  0.00  0.00    +0.089 A 
ATOM     29  C   UNL     1      36.210  -6.309  21.213  0.00  0.00    +0.023 A 
ATOM     30  C   UNL     1      37.327  -7.071  21.526  0.00  0.00    -0.002 A 
BRANCH  26  27
ATOM     27  O   UNL     1      34.113  -5.406  21.838  0.00  0.00    -0.332 OA
ATOM     28  H   UNL     1      34.190  -5.104  20.941  0.00  0.00    +0.249 HD
ENDBRANCH  26  27
ENDBRANCH  22  23
BRANCH  12  14
ATOM     14  C   UNL     1      44.849 -11.256  25.511  0.00  0.00    +0.144 C 
BRANCH  14  15
ATOM     15  C   UNL     1      44.637 -12.700  25.965  0.00  0.00    +0.019 C 
ATOM     16  C   UNL     1      45.812 -13.194  26.807  0.00  0.00    +0.006 C 
ENDBRANCH  14  15
ENDBRANCH  12  14
TORSDOF 5
