REMARK  Name = 5NK5
REMARK  16 active torsions:
REMARK  status: ('A' for Active; 'I' for Inactive)
REMARK    1  A    between atoms: C_1  and  C_2
REMARK    2  A    between atoms: C_8  and  N_9
REMARK    3  A    between atoms: C_10  and  C_12
REMARK    4  A    between atoms: N_17  and  C_18
REMARK    5  A    between atoms: C_23  and  C_24
REMARK    6  A    between atoms: C_24  and  O_25
REMARK    7  A    between atoms: N_26  and  C_27
REMARK    8  A    between atoms: C_29  and  N_30
REMARK    9  A    between atoms: C_34  and  C_35
REMARK   10  A    between atoms: C_41  and  N_42
REMARK   11  A    between atoms: C_43  and  C_45
REMARK   12  A    between atoms: N_50  and  C_51
REMARK   13  A    between atoms: C_56  and  C_57
REMARK   14  A    between atoms: C_57  and  O_58
REMARK   15  A    between atoms: N_59  and  C_60
REMARK   16  A    between atoms: C_62  and  N_63
REMARK                            x       y       z     vdW  Elec       q    Type
REMARK                         _______ _______ _______ _____ _____    ______ ____
ROOT
ATOM      7  C   UNL     1     126.492  15.481  47.317  0.00  0.00    +0.095 A 
ATOM      8  C   UNL     1     127.011  14.993  46.188  0.00  0.00    +0.133 A 
ATOM      9  N   UNL     1     126.145  14.485  45.310  0.00  0.00    -0.232 NA
ATOM     10  C   UNL     1     124.854  14.484  45.697  0.00  0.00    +0.163 A 
ATOM     11  N   UNL     1     123.859  14.018  44.937  0.00  0.00    -0.294 N 
ATOM     12  H   UNL     1     124.137  13.599  43.992  0.00  0.00    +0.154 HD
ATOM     32  S   UNL     1     124.785  15.225  47.227  0.00  0.00    -0.048 S 
ENDROOT
BRANCH  11  13
ATOM     13  C   UNL     1     122.525  14.017  45.233  0.00  0.00    +0.033 A 
ATOM     14  C   UNL     1     122.015  14.283  46.477  0.00  0.00    +0.023 A 
ATOM     15  C   UNL     1     120.645  14.264  46.695  0.00  0.00    +0.003 A 
ATOM     16  C   UNL     1     119.798  13.906  45.694  0.00  0.00    +0.013 A 
ATOM     17  C   UNL     1     120.228  13.622  44.430  0.00  0.00    +0.038 A 
ATOM     31  C   UNL     1     121.616  13.675  44.254  0.00  0.00    +0.036 A 
BRANCH  17  18
ATOM     18  C   UNL     1     119.303  13.092  43.480  0.00  0.00    +0.220 C 
ATOM     19  N   UNL     1     118.839  13.806  42.512  0.00  0.00    -0.213 NA
BRANCH  19  20
ATOM     20  C   UNL     1     118.016  13.230  41.595  0.00  0.00    +0.069 A 
ATOM     21  C   UNL     1     118.293  13.266  40.232  0.00  0.00    +0.028 A 
ATOM     22  C   UNL     1     117.464  12.628  39.320  0.00  0.00    +0.004 A 
ATOM     23  C   UNL     1     116.376  11.941  39.852  0.00  0.00    +0.023 A 
ATOM     24  C   UNL     1     116.098  11.867  41.210  0.00  0.00    +0.027 A 
ATOM     28  C   UNL     1     116.944  12.522  42.062  0.00  0.00    +0.050 A 
BRANCH  24  25
ATOM     25  N   UNL     1     115.019  11.209  41.664  0.00  0.00    -0.358 N 
ATOM     26  H   UNL     1     114.372  10.704  40.977  0.00  0.00    +0.142 HD
ATOM     27  H   UNL     1     114.806  11.190  42.712  0.00  0.00    +0.142 HD
ENDBRANCH  24  25
ENDBRANCH  19  20
BRANCH  18  29
ATOM     29  O   UNL     1     119.021  11.885  43.637  0.00  0.00    -0.492 OA
ATOM     30  H   UNL     1     119.895  11.308  43.561  0.00  0.00    +0.294 HD
ENDBRANCH  18  29
ENDBRANCH  17  18
ENDBRANCH  11  13
BRANCH   7   6
ATOM      4  N   UNL     1     128.357  16.389  48.386  0.00  0.00    -0.280 N 
ATOM      5  H   UNL     1     128.931  16.264  47.492  0.00  0.00    +0.155 HD
ATOM      6  C   UNL     1     127.075  16.034  48.386  0.00  0.00    +0.256 C 
ATOM     33  O   UNL     1     126.386  16.196  49.343  0.00  0.00    -0.269 OA
BRANCH   4   3
ATOM      1  C   UNL     1     129.106  14.605  50.538  0.00  0.00    +0.046 C 
ATOM      2  C   UNL     1     129.321  16.059  50.530  0.00  0.00    -0.028 A 
ATOM      3  C   UNL     1     128.955  16.904  49.486  0.00  0.00    +0.055 A 
ATOM     34  C   UNL     1     129.228  18.248  49.554  0.00  0.00    +0.062 A 
ATOM     35 CL   UNL     1     128.824  19.280  48.315  0.00  0.00    -0.082 Cl
ATOM     36  C   UNL     1     129.849  18.801  50.645  0.00  0.00    +0.022 A 
ATOM     37  C   UNL     1     130.220  18.016  51.692  0.00  0.00    +0.002 A 
ATOM     38  C   UNL     1     129.929  16.672  51.625  0.00  0.00    +0.005 A 
ENDBRANCH   4   3
ENDBRANCH   7   6
TORSDOF 7
