REMARK  Name = 6FW
REMARK  3 active torsions:
REMARK  status: ('A' for Active; 'I' for Inactive)
REMARK    1  A    between atoms: C17_4  and  S18_24
REMARK    2  A    between atoms: C05_15  and  N07_17
REMARK    3  A    between atoms: S18_24  and  C19_25
REMARK                            x       y       z     vdW  Elec       q    Type
REMARK                         _______ _______ _______ _____ _____    ______ ____
ROOT
ATOM      1  C   UNL     1      20.447   5.250  -2.957  0.00  0.00    +0.262 C 
ATOM      2  O   UNL     1      19.708   5.898  -2.012  0.00  0.00    -0.272 OA
ATOM      3  N   UNL     1      21.689   5.682  -3.367  0.00  0.00    -0.170 NA
ATOM      4  C   UNL     1      22.418   4.985  -4.354  0.00  0.00    +0.264 C 
ATOM      5  N   UNL     1      23.701   5.438  -4.792  0.00  0.00    -0.089 NA
ATOM      6  N   UNL     1      21.861   3.741  -4.981  0.00  0.00    -0.165 NA
ATOM      7  C   UNL     1      20.631   3.336  -4.559  0.00  0.00    +0.164 C 
ATOM      8  N   UNL     1      19.839   2.210  -4.967  0.00  0.00    -0.212 NA
ATOM      9  C   UNL     1      18.621   2.239  -4.241  0.00  0.00    +0.190 C 
ATOM     10  N   UNL     1      18.596   3.333  -3.361  0.00  0.00    -0.183 NA
ATOM     31  C   UNL     1      19.864   4.016  -3.577  0.00  0.00    +0.184 C 
ENDROOT
BRANCH   8  19
ATOM     19  C   UNL     1      20.206   1.171  -5.964  0.00  0.00    +0.212 C 
ATOM     20  O   UNL     1      21.436   0.608  -5.420  0.00  0.00    -0.335 OA
ATOM     21  C   UNL     1      22.181   0.274  -6.580  0.00  0.00    +0.177 C 
ATOM     22  C   UNL     1      23.632  -0.076  -6.487  0.00  0.00    +0.181 C 
ATOM     23  O   UNL     1      24.139  -0.329  -7.898  0.00  0.00    -0.311 OA
ATOM     24  P   UNL     1      24.013   0.928  -8.844  0.00  0.00    +0.214 P 
ATOM     25  O   UNL     1      24.929   2.061  -8.373  0.00  0.00    -0.437 OA
ATOM     26  O   UNL     1      22.412   1.269  -8.822  0.00  0.00    -0.311 OA
ATOM     27  O   UNL     1      24.276   0.310 -10.276  0.00  0.00    -0.517 OA
ATOM     28  C   UNL     1      21.958   1.477  -7.446  0.00  0.00    +0.185 C 
ATOM     29  C   UNL     1      20.476   1.756  -7.370  0.00  0.00    +0.224 C 
ATOM     30  O   UNL     1      19.634   1.123  -8.313  0.00  0.00    -0.216 OA
ENDBRANCH   8  19
BRANCH   9  11
ATOM     11  S   UNL     1      17.342   1.098  -4.433  0.00  0.00    -0.080 S 
BRANCH  11  12
ATOM     12  C   UNL     1      16.650   1.871  -5.906  0.00  0.00    +0.028 A 
ATOM     13  C   UNL     1      16.159   3.184  -5.749  0.00  0.00    +0.007 A 
ATOM     14  C   UNL     1      15.622   3.852  -6.834  0.00  0.00    +0.012 A 
ATOM     15  C   UNL     1      15.559   3.229  -8.112  0.00  0.00    +0.058 A 
ATOM     16  C   UNL     1      16.046   1.906  -8.296  0.00  0.00    +0.012 A 
ATOM     17 CL   UNL     1      14.862   4.144  -9.447  0.00  0.00    -0.082 Cl
ATOM     18  C   UNL     1      16.589   1.236  -7.193  0.00  0.00    +0.007 A 
ENDBRANCH  11  12
ENDBRANCH   9  11
TORSDOF 3
