REMARK  Name = 21Q
REMARK  8 active torsions:
REMARK  status: ('A' for Active; 'I' for Inactive)
REMARK    1  A    between atoms: C2_2  and  C3_3
REMARK    2  A    between atoms: C7_5  and  C8_6
REMARK    3  A    between atoms: C11_7  and  N10_24
REMARK    4  A    between atoms: C13_9  and  S18_29
REMARK    5  A    between atoms: C22_14  and  N21_25
REMARK    6  A    between atoms: C24_15  and  N21_25
REMARK    7  A    between atoms: C27_16  and  C4_18
REMARK    8  A    between atoms: N21_25  and  S18_29
REMARK                            x       y       z     vdW  Elec       q    Type
REMARK                         _______ _______ _______ _____ _____    ______ ____
ROOT
ATOM      7  C   UNL     1       3.724   5.577  23.029  0.00  0.00    +0.114 A 
ATOM      8  C   UNL     1       3.297   5.549  24.341  0.00  0.00    +0.211 A 
ATOM      9  O   UNL     1       3.567   6.655  25.126  0.00  0.00    -0.285 OA
ATOM     10  C   UNL     1       2.621   4.477  24.882  0.00  0.00    +0.045 A 
ATOM     11  C   UNL     1       2.365   3.390  24.076  0.00  0.00    +0.023 A 
ATOM     12  C   UNL     1       2.793   3.402  22.761  0.00  0.00    +0.124 A 
ATOM     21  C   UNL     1       3.472   4.486  22.212  0.00  0.00    +0.040 A 
ENDROOT
BRANCH   7   6
ATOM      5  C   UNL     1       5.077   6.893  21.462  0.00  0.00    +0.286 C 
ATOM      6  N   UNL     1       4.403   6.762  22.651  0.00  0.00    -0.171 NA
ATOM     22  O   UNL     1       5.274   5.967  20.699  0.00  0.00    -0.266 OA
BRANCH   5   4
ATOM      3  C   UNL     1       5.204   9.476  21.589  0.00  0.00    +0.004 A 
ATOM      4  C   UNL     1       5.566   8.205  21.166  0.00  0.00    +0.132 A 
ATOM     23  N   UNL     1       6.595   8.354  20.280  0.00  0.00    -0.245 NA
ATOM     24  C   UNL     1       6.911   9.670  20.125  0.00  0.00    +0.062 A 
ATOM     25  C   UNL     1       8.011  10.046  19.195  0.00  0.00    +0.052 C 
ATOM     26  C   UNL     1       6.058  10.402  20.938  0.00  0.00    +0.046 A 
BRANCH  26  27
ATOM     27  C   UNL     1       6.096  11.839  21.015  0.00  0.00    +0.174 C 
ATOM     28  C   UNL     1       4.817  12.545  21.301  0.00  0.00    +0.077 C 
ATOM     29  O   UNL     1       7.117  12.484  20.810  0.00  0.00    -0.291 OA
ENDBRANCH  26  27
BRANCH   3   2
ATOM      1  C   UNL     1       4.706   9.996  23.947  0.00  0.00    +0.005 C 
ATOM      2  C   UNL     1       4.129   9.799  22.552  0.00  0.00    +0.028 C 
ENDBRANCH   3   2
ENDBRANCH   5   4
ENDBRANCH   7   6
BRANCH  12  13
ATOM     13  S   UNL     1       2.388   1.916  21.828  0.00  0.00    +0.063 S 
ATOM     14  O   UNL     1       2.463   0.815  22.779  0.00  0.00    -0.153 OA
ATOM     20  O   UNL     1       3.072   1.882  20.545  0.00  0.00    -0.153 OA
BRANCH  13  15
ATOM     15  N   UNL     1       0.756   2.344  21.529  0.00  0.00    -0.156 NA
BRANCH  15  16
ATOM     16  C   UNL     1      -0.204   1.226  21.402  0.00  0.00    +0.096 C 
ATOM     17  C   UNL     1       0.574  -0.052  21.172  0.00  0.00    +0.021 C 
ENDBRANCH  15  16
BRANCH  15  18
ATOM     18  C   UNL     1       0.518   3.453  20.574  0.00  0.00    +0.096 C 
ATOM     19  C   UNL     1       0.113   2.909  19.219  0.00  0.00    +0.021 C 
ENDBRANCH  15  18
ENDBRANCH  13  15
ENDBRANCH  12  13
TORSDOF 8
