REMARK  Name = 4FUY
REMARK  3 active torsions:
REMARK  status: ('A' for Active; 'I' for Inactive)
REMARK    1  A    between atoms: C_2  and  C_9
REMARK    2  A    between atoms: C_13  and  C_14
REMARK    3  A    between atoms: C_18  and  C_19
REMARK                            x       y       z     vdW  Elec       q    Type
REMARK                         _______ _______ _______ _____ _____    ______ ____
ROOT
ATOM      3  C   UNL     1      20.745   5.760  15.040  0.00  0.00    +0.103 A 
ATOM      4  N   UNL     1      20.265   4.563  15.528  0.00  0.00    -0.356 N 
ATOM      5  H   UNL     1      20.849   3.814  15.879  0.00  0.00    +0.166 HD
ATOM      6  C   UNL     1      19.033   4.811  16.033  0.00  0.00    +0.093 A 
ATOM      7  C   UNL     1      18.698   6.141  15.899  0.00  0.00    +0.018 A 
ATOM     22  C   UNL     1      19.823   6.760  15.270  0.00  0.00    +0.042 A 
ENDROOT
BRANCH   3   2
ATOM      1  O   UNL     1      22.953   5.055  14.770  0.00  0.00    -0.268 OA
ATOM      2  C   UNL     1      22.087   5.828  14.389  0.00  0.00    +0.263 C 
ATOM     23  N   UNL     1      22.249   6.626  13.297  0.00  0.00    -0.292 N 
ATOM     24  C   UNL     1      21.316   7.573  12.665  0.00  0.00    +0.136 C 
ATOM     25  C   UNL     1      21.445   7.501  11.164  0.00  0.00    +0.178 C 
ATOM     26  O   UNL     1      22.750   7.870  10.698  0.00  0.00    -0.377 OA
ATOM     27  C   UNL     1      23.725   7.815  11.741  0.00  0.00    +0.178 C 
ATOM     28  C   UNL     1      23.557   6.602  12.621  0.00  0.00    +0.136 C 
ENDBRANCH   3   2
BRANCH   7   8
ATOM      8  C   UNL     1      17.487   6.759  16.251  0.00  0.00    +0.075 A 
ATOM      9  C   UNL     1      16.551   6.466  17.403  0.00  0.00    +0.027 A 
ATOM     18  C   UNL     1      15.482   7.318  17.098  0.00  0.00    +0.143 A 
ATOM     19  N   UNL     1      15.646   8.058  16.014  0.00  0.00    -0.181 NA
ATOM     20  N   UNL     1      16.861   7.704  15.515  0.00  0.00    -0.276 N 
ATOM     21  H   UNL     1      16.736   7.379  14.561  0.00  0.00    +0.189 HD
BRANCH   9  10
ATOM     10  C   UNL     1      16.716   5.374  18.389  0.00  0.00    -0.012 A 
ATOM     11  C   UNL     1      17.966   5.153  18.969  0.00  0.00    +0.028 A 
ATOM     12  C   UNL     1      18.091   4.182  19.939  0.00  0.00    +0.043 A 
ATOM     13  C   UNL     1      17.020   3.448  20.387  0.00  0.00    +0.040 A 
ATOM     14  C   UNL     1      15.782   3.714  19.835  0.00  0.00    +0.043 A 
ATOM     15 CL   UNL     1      14.384   2.855  20.425  0.00  0.00    -0.084 Cl
ATOM     16 CL   UNL     1      19.681   3.855  20.587  0.00  0.00    -0.084 Cl
ATOM     17  C   UNL     1      15.613   4.659  18.842  0.00  0.00    +0.028 A 
ENDBRANCH   9  10
ENDBRANCH   7   8
TORSDOF 3
