REMARK  Name = 5OP5
REMARK  3 active torsions:
REMARK  status: ('A' for Active; 'I' for Inactive)
REMARK    1  A    between atoms: C_4  and  C_14
REMARK    2  A    between atoms: C_13  and  C_23
REMARK    3  A    between atoms: C_17  and  N_19
REMARK                            x       y       z     vdW  Elec       q    Type
REMARK                         _______ _______ _______ _____ _____    ______ ____
ROOT
ATOM      1  N   UNL     1       4.147  -1.716  20.246  0.00  0.00    -0.216 NA
ATOM      2  C   UNL     1       2.979  -2.338  20.297  0.00  0.00    +0.225 A 
ATOM      3  N   UNL     1       2.832  -3.432  19.553  0.00  0.00    -0.220 NA
ATOM      4  C   UNL     1       3.814  -3.885  18.749  0.00  0.00    +0.135 A 
ATOM     11  C   UNL     1       5.054  -3.247  18.721  0.00  0.00    +0.068 A 
ATOM     12  C   UNL     1       6.295  -3.374  18.103  0.00  0.00    +0.014 A 
ATOM     21  C   UNL     1       7.106  -2.328  18.546  0.00  0.00    +0.122 A 
ATOM     22  N   UNL     1       6.398  -1.613  19.403  0.00  0.00    -0.235 NA
ATOM     23  C   UNL     1       5.188  -2.141  19.533  0.00  0.00    +0.165 A 
ENDROOT
BRANCH   4   5
ATOM      5  N   UNL     1       3.495  -5.023  18.081  0.00  0.00    -0.310 N 
ATOM      6  C   UNL     1       4.539  -6.059  17.961  0.00  0.00    +0.134 C 
ATOM      7  C   UNL     1       4.188  -7.206  17.009  0.00  0.00    +0.178 C 
ATOM      8  O   UNL     1       2.802  -7.506  16.947  0.00  0.00    -0.377 OA
ATOM      9  C   UNL     1       1.983  -6.415  16.769  0.00  0.00    +0.178 C 
ATOM     10  C   UNL     1       2.087  -5.359  17.887  0.00  0.00    +0.134 C 
ENDBRANCH   4   5
BRANCH  12  13
ATOM     13  C   UNL     1       6.768  -4.252  17.027  0.00  0.00    -0.014 A 
ATOM     14  C   UNL     1       5.854  -4.580  16.028  0.00  0.00    +0.008 A 
ATOM     15  C   UNL     1       6.290  -5.335  14.915  0.00  0.00    +0.002 A 
ATOM     16  C   UNL     1       7.640  -5.666  14.753  0.00  0.00    +0.019 A 
ATOM     17  C   UNL     1       8.543  -5.250  15.722  0.00  0.00    +0.052 A 
ATOM     20  C   UNL     1       8.095  -4.506  16.819  0.00  0.00    +0.027 A 
BRANCH  17  18
ATOM     18  C   UNL     1       9.931  -5.529  15.620  0.00  0.00    +0.099 C 
ATOM     19  N   UNL     1      11.056  -5.714  15.582  0.00  0.00    -0.191 NA
ENDBRANCH  17  18
ENDBRANCH  12  13
TORSDOF 3
