REMARK  Name = 3JS2
REMARK  2 active torsions:
REMARK  status: ('A' for Active; 'I' for Inactive)
REMARK    1  A    between atoms: C_2  and  C_7
REMARK    2  A    between atoms: C_9  and  C_10
REMARK                            x       y       z     vdW  Elec       q    Type
REMARK                         _______ _______ _______ _____ _____    ______ ____
ROOT
ATOM      3  C   UNL     1       7.469   4.194  22.311  0.00  0.00    +0.016 A 
ATOM      4  C   UNL     1       6.906   3.015  22.787  0.00  0.00    +0.120 A 
ATOM      5  N   UNL     1       6.034   2.346  22.054  0.00  0.00    -0.262 NA
ATOM      6  C   UNL     1       5.668   2.764  20.854  0.00  0.00    +0.119 A 
ATOM      7  C   UNL     1       6.189   3.932  20.312  0.00  0.00    +0.007 A 
ATOM     13  C   UNL     1       7.106   4.664  21.056  0.00  0.00    +0.021 A 
ENDROOT
BRANCH   7   8
ATOM      8  C   UNL     1       5.843   4.349  19.030  0.00  0.00    +0.021 A 
ATOM      9  C   UNL     1       5.118   3.736  18.098  0.00  0.00    +0.016 A 
ATOM     10  C   UNL     1       4.994   4.393  16.940  0.00  0.00    +0.008 A 
ATOM     11  C   UNL     1       5.600   5.576  16.849  0.00  0.00    +0.046 A 
ATOM     12  S   UNL     1       6.363   5.831  18.351  0.00  0.00    -0.097 S 
ENDBRANCH   7   8
BRANCH   3   2
ATOM      1  O   UNL     1       8.965   6.014  22.663  0.00  0.00    -0.545 OA
ATOM      2  C   UNL     1       8.487   4.967  23.150  0.00  0.00    +0.073 C 
ATOM     14  O   UNL     1       8.790   4.513  24.275  0.00  0.00    -0.545 OA
ENDBRANCH   3   2
TORSDOF 2
