REMARK  Name = 3pe1_ligand
REMARK  2 active torsions:
REMARK  status: ('A' for Active; 'I' for Inactive)
REMARK    1  A    between atoms: C5_5  and  C23_23
REMARK    2  A    between atoms: N15_15  and  C16_16
REMARK                            x       y       z     vdW  Elec       q    Type
REMARK                         _______ _______ _______ _____ _____    ______ ____
ROOT
ATOM      1  C   UNL     1      22.824 -31.100  13.914  0.00  0.00    +0.031 A 
ATOM      2  N   UNL     1      22.763 -29.997  14.761  0.00  0.00    -0.283 NA
ATOM      3  C   UNL     1      22.863 -28.749  14.267  0.00  0.00    +0.152 A 
ATOM      4  N   UNL     1      22.782 -27.581  15.088  0.00  0.00    -0.250 N 
ATOM      5  H   UNL     1      22.833 -26.671  14.607  0.00  0.00    +0.220 HD
ATOM     13  C   UNL     1      23.029 -28.533  12.863  0.00  0.00    +0.059 A 
ATOM     14  C   UNL     1      23.134 -27.213  12.323  0.00  0.00    +0.058 A 
ATOM     15  C   UNL     1      23.286 -27.039  10.950  0.00  0.00    +0.095 A 
ATOM     16  N   UNL     1      23.334 -28.106  10.121  0.00  0.00    -0.292 NA
ATOM     17  C   UNL     1      23.231 -29.363  10.598  0.00  0.00    +0.111 A 
ATOM     18  C   UNL     1      23.082 -29.604  11.990  0.00  0.00    +0.027 A 
ATOM     19  C   UNL     1      22.712 -32.403  14.484  0.00  0.00    +0.030 A 
ATOM     20  C   UNL     1      22.747 -33.534  13.665  0.00  0.00    +0.010 A 
ATOM     24  C   UNL     1      22.901 -33.376  12.276  0.00  0.00    +0.015 A 
ATOM     25  C   UNL     1      23.014 -32.101  11.711  0.00  0.00    +0.014 A 
ATOM     26  C   UNL     1      22.968 -30.953  12.551  0.00  0.00    +0.006 A 
ENDROOT
BRANCH   4   6
ATOM      6  C   UNL     1      22.637 -27.551  16.510  0.00  0.00    +0.067 A 
ATOM      7  C   UNL     1      22.050 -26.422  17.065  0.00  0.00    +0.017 A 
ATOM      8  C   UNL     1      21.894 -26.322  18.433  0.00  0.00    -0.012 A 
ATOM      9  C   UNL     1      22.321 -27.346  19.256  0.00  0.00    -0.006 A 
ATOM     10  C   UNL     1      22.916 -28.471  18.712  0.00  0.00    +0.032 A 
ATOM     11 CL   UNL     1      23.419 -29.736  19.782  0.00  0.00    -0.074 Cl
ATOM     12  C   UNL     1      23.077 -28.582  17.335  0.00  0.00    +0.031 A 
ENDBRANCH   4   6
BRANCH  20  21
ATOM     21  C   UNL     1      22.563 -34.906  14.246  0.00  0.00    +0.064 C 
ATOM     22  O   UNL     1      22.150 -35.683  13.355  0.00  0.00    -0.560 OA
ATOM     23  O   UNL     1      22.724 -34.903  15.490  0.00  0.00    -0.560 OA
ENDBRANCH  20  21
TORSDOF 2
