REMARK  Name = 5FGK
REMARK  2 active torsions:
REMARK  status: ('A' for Active; 'I' for Inactive)
REMARK    1  A    between atoms: C_4  and  C_6
REMARK    2  A    between atoms: C_10  and  N_23
REMARK                            x       y       z     vdW  Elec       q    Type
REMARK                         _______ _______ _______ _____ _____    ______ ____
ROOT
ATOM      6  C   UNL     1      -6.771 -24.105 144.495  0.00  0.00    +0.023 A 
ATOM      7  C   UNL     1      -6.251 -24.110 145.827  0.00  0.00    +0.059 A 
ATOM     19  C   UNL     1      -6.990 -24.791 146.803  0.00  0.00    +0.081 A 
ATOM     20 CL   UNL     1      -6.498 -24.871 148.465  0.00  0.00    -0.080 Cl
ATOM     21  C   UNL     1      -8.157 -25.430 146.445  0.00  0.00    +0.132 A 
ATOM     22  N   UNL     1      -8.610 -25.418 145.204  0.00  0.00    -0.261 NA
ATOM     23  C   UNL     1      -7.961 -24.785 144.238  0.00  0.00    +0.121 A 
ENDROOT
BRANCH   6   5
ATOM      1  C   UNL     1      -4.001 -21.319 140.401  0.00  0.00    +0.146 A 
ATOM      2  C   UNL     1      -4.605 -22.210 141.292  0.00  0.00    +0.041 A 
ATOM      3  C   UNL     1      -4.662 -23.624 141.421  0.00  0.00    +0.014 A 
ATOM      4  C   UNL     1      -5.356 -24.197 142.446  0.00  0.00    +0.009 A 
ATOM      5  C   UNL     1      -6.056 -23.411 143.387  0.00  0.00    -0.013 A 
ATOM     24  C   UNL     1      -6.027 -22.024 143.325  0.00  0.00    +0.036 A 
ATOM     25  C   UNL     1      -5.315 -21.373 142.284  0.00  0.00    +0.068 A 
ATOM     26  N   UNL     1      -5.106 -20.110 141.940  0.00  0.00    -0.275 N 
ATOM     27  H   UNL     1      -5.493 -19.256 142.455  0.00  0.00    +0.189 HD
ATOM     28  N   UNL     1      -4.303 -20.071 140.802  0.00  0.00    -0.158 NA
ATOM     29  N   UNL     1      -3.225 -21.656 139.299  0.00  0.00    -0.341 N 
ATOM     30  H   UNL     1      -3.044 -22.685 139.066  0.00  0.00    +0.144 HD
ATOM     31  H   UNL     1      -2.808 -20.887 138.683  0.00  0.00    +0.144 HD
ENDBRANCH   6   5
BRANCH   7   8
ATOM      8  N   UNL     1      -5.065 -23.434 146.151  0.00  0.00    -0.328 N 
ATOM      9  C   UNL     1      -5.103 -22.284 147.078  0.00  0.00    +0.106 C 
ATOM     10  C   UNL     1      -3.876 -22.247 147.997  0.00  0.00    +0.035 C 
ATOM     11  C   UNL     1      -2.580 -22.437 147.219  0.00  0.00    +0.056 C 
ATOM     12  C   UNL     1      -1.443 -22.496 148.198  0.00  0.00    +0.242 C 
ATOM     13  N   UNL     1      -0.781 -21.321 148.203  0.00  0.00    -0.193 NA
ATOM     14  C   UNL     1      -1.375 -20.371 147.256  0.00  0.00    +0.074 C 
ATOM     15  O   UNL     1      -1.174 -23.464 148.883  0.00  0.00    -0.273 OA
ATOM     16  C   UNL     1      -2.260 -21.226 146.313  0.00  0.00    +0.061 C 
ATOM     17  C   UNL     1      -2.609 -23.751 146.442  0.00  0.00    +0.035 C 
ATOM     18  C   UNL     1      -3.796 -23.804 145.493  0.00  0.00    +0.106 C 
ENDBRANCH   7   8
TORSDOF 2
