REMARK  Name = PTV
REMARK  5 active torsions:
REMARK  status: ('A' for Active; 'I' for Inactive)
REMARK    1  A    between atoms: C15_5  and  C14_6
REMARK    2  A    between atoms: C14_6  and  C4_8
REMARK    3  A    between atoms: C4_8  and  S11_9
REMARK    4  A    between atoms: S11_9  and  C19_10
REMARK    5  A    between atoms: C10_14  and  C9_15
REMARK                            x       y       z     vdW  Elec       q    Type
REMARK                         _______ _______ _______ _____ _____    ______ ____
ROOT
ATOM      7  C   UNL     1       9.021   9.843   3.085  0.00  0.00    +0.262 C 
ATOM      8  N   UNL     1       7.919   9.898   3.810  0.00  0.00    -0.354 NA
ATOM      9  C   UNL     1       6.915   9.843   2.945  0.00  0.00    +0.235 C 
ATOM     16  N   UNL     1       7.454   9.715   1.723  0.00  0.00    -0.112 NA
ATOM     17  N   UNL     1       8.685   9.718   1.805  0.00  0.00    -0.106 NA
ENDROOT
BRANCH   9  10
ATOM     10  C   UNL     1       5.553   9.832   3.271  0.00  0.00    +0.053 A 
ATOM     11  C   UNL     1       5.128   9.792   4.608  0.00  0.00    +0.025 A 
ATOM     12  C   UNL     1       3.758   9.696   4.882  0.00  0.00    +0.099 A 
ATOM     13  N   UNL     1       2.871   9.649   3.890  0.00  0.00    -0.242 NA
ATOM     14  C   UNL     1       3.235   9.666   2.609  0.00  0.00    +0.099 A 
ATOM     15  C   UNL     1       4.584   9.774   2.264  0.00  0.00    +0.025 A 
ENDBRANCH   9  10
BRANCH   7   6
ATOM      6  S   UNL     1      10.643   9.911   3.775  0.00  0.00    -0.053 S 
BRANCH   6   5
ATOM      5  C   UNL     1      11.724  10.056   2.326  0.00  0.00    +0.136 C 
BRANCH   5   3
ATOM      3  C   UNL     1      11.805  11.528   1.931  0.00  0.00    +0.190 C 
ATOM      4  O   UNL     1      11.340  12.404   2.664  0.00  0.00    -0.290 OA
BRANCH   3   2
ATOM      1  C   UNL     1      13.051  11.095  -0.259  0.00  0.00    +0.010 A 
ATOM      2  C   UNL     1      12.517  11.919   0.643  0.00  0.00    +0.065 A 
ATOM     18  S   UNL     1      12.725  13.498   0.157  0.00  0.00    -0.084 S 
ATOM     19  C   UNL     1      13.551  13.088  -1.256  0.00  0.00    +0.035 A 
ATOM     20  C   UNL     1      13.611  11.741  -1.299  0.00  0.00    +0.008 A 
ENDBRANCH   3   2
ENDBRANCH   5   3
ENDBRANCH   6   5
ENDBRANCH   7   6
TORSDOF 5
