REMARK  Name = 3zos_ligand
REMARK  9 active torsions:
REMARK  status: ('A' for Active; 'I' for Inactive)
REMARK    1  A    between atoms: N3_2  and  C20_12
REMARK    2  A    between atoms: C4_3  and  C5_4
REMARK    3  A    between atoms: C6_5  and  C11_26
REMARK    4  A    between atoms: C13_9  and  N2_29
REMARK    5  A    between atoms: C17_11  and  C19_33
REMARK    6  A    between atoms: C20_12  and  C16_31
REMARK    7  A    between atoms: C2_23  and  C3_24
REMARK    8  A    between atoms: C9_25  and  C12_27
REMARK    9  A    between atoms: C25_38  and  N4_39
REMARK                            x       y       z     vdW  Elec       q    Type
REMARK                         _______ _______ _______ _____ _____    ______ ____
ROOT
ATOM      9  C   UNL     1      -8.317   4.204 -40.551  0.00  0.00    +0.226 C 
ATOM     10  N   UNL     1      -7.400   5.288 -40.297  0.00  0.00    -0.232 N 
ATOM     11  H   UNL     1      -7.779   6.207 -40.407  0.00  0.00    +0.224 HD
ATOM     32  O   UNL     1      -7.978   3.022 -40.471  0.00  0.00    -0.377 OA
ENDROOT
BRANCH   9   8
ATOM      6  C   UNL     1     -11.788   3.703 -42.080  0.00  0.00    +0.026 A 
ATOM      7  C   UNL     1     -10.510   3.446 -41.460  0.00  0.00    +0.030 A 
ATOM      8  C   UNL     1      -9.688   4.521 -41.128  0.00  0.00    +0.048 A 
ATOM     33  C   UNL     1     -10.128   5.808 -41.467  0.00  0.00    +0.014 A 
ATOM     34  C   UNL     1     -11.378   6.018 -42.101  0.00  0.00    +0.002 A 
ATOM     35  C   UNL     1     -12.202   4.946 -42.437  0.00  0.00    -0.027 A 
ATOM     36  C   UNL     1     -13.529   5.110 -43.095  0.00  0.00    +0.093 C 
BRANCH   6   5
ATOM      4  C   UNL     1     -13.057   1.485 -42.650  0.00  0.00    -0.047 C 
ATOM      5  C   UNL     1     -12.532   2.474 -42.390  0.00  0.00    -0.077 C 
BRANCH   4   3
ATOM      1  N   UNL     1     -14.008  -1.416 -44.439  0.00  0.00    -0.325 NA
ATOM      2  C   UNL     1     -13.419  -0.239 -44.333  0.00  0.00    +0.056 A 
ATOM      3  C   UNL     1     -13.652   0.225 -43.039  0.00  0.00    +0.159 A 
ATOM     37  N   UNL     1     -14.347  -0.696 -42.352  0.00  0.00    -0.119 N 
ATOM     38  N   UNL     1     -14.804  -0.731 -41.082  0.00  0.00    -0.141 NA
ATOM     39  C   UNL     1     -15.520  -1.824 -40.685  0.00  0.00    +0.149 A 
ATOM     40  C   UNL     1     -15.802  -2.863 -41.532  0.00  0.00    +0.046 A 
ATOM     41  C   UNL     1     -15.349  -2.838 -42.828  0.00  0.00    +0.080 A 
ATOM     42  C   UNL     1     -14.582  -1.721 -43.246  0.00  0.00    +0.169 A 
ENDBRANCH   4   3
ENDBRANCH   6   5
ENDBRANCH   9   8
BRANCH  10  12
ATOM     12  C   UNL     1      -6.005   5.232 -39.905  0.00  0.00    +0.088 A 
ATOM     13  C   UNL     1      -5.269   4.083 -40.255  0.00  0.00    +0.045 A 
ATOM     14  C   UNL     1      -3.892   3.990 -39.993  0.00  0.00    +0.039 A 
ATOM     19  C   UNL     1      -3.247   5.045 -39.374  0.00  0.00    +0.025 A 
ATOM     30  C   UNL     1      -3.966   6.202 -39.051  0.00  0.00    +0.030 A 
ATOM     31  C   UNL     1      -5.338   6.279 -39.333  0.00  0.00    +0.062 A 
BRANCH  14  15
ATOM     15  C   UNL     1      -3.155   2.699 -40.323  0.00  0.00    +0.364 C 
ATOM     16  F   UNL     1      -2.880   2.114 -39.165  0.00  0.00    -0.229 F 
ATOM     17  F   UNL     1      -3.906   1.840 -41.029  0.00  0.00    -0.229 F 
ATOM     18  F   UNL     1      -2.013   2.982 -40.980  0.00  0.00    -0.229 F 
ENDBRANCH  14  15
BRANCH  19  20
ATOM     20  C   UNL     1      -1.748   5.067 -39.029  0.00  0.00    +0.222 C 
BRANCH  20  21
ATOM     21  N   UNL     1      -1.493   5.744 -37.756  0.00  0.00    +0.259 N 
ATOM     22  H   UNL     1      -1.961   6.634 -37.828  0.00  0.00    +0.206 HD
ATOM     23  C   UNL     1      -2.076   5.100 -36.596  0.00  0.00    +0.185 C 
ATOM     24  C   UNL     1      -1.900   5.904 -35.331  0.00  0.00    +0.183 C 
ATOM     25  N   UNL     1      -0.488   6.185 -35.170  0.00  0.00    +0.240 N 
ATOM     26  H   UNL     1      -0.020   5.294 -35.118  0.00  0.00    +0.203 HD
ATOM     27  C   UNL     1      -0.212   6.879 -33.902  0.00  0.00    +0.191 C 
ATOM     28  C   UNL     1       0.065   6.871 -36.312  0.00  0.00    +0.183 C 
ATOM     29  C   UNL     1      -0.086   6.051 -37.581  0.00  0.00    +0.185 C 
ENDBRANCH  20  21
ENDBRANCH  19  20
ENDBRANCH  10  12
TORSDOF 7
