REMARK  Name = 3thb_ligand
REMARK  9 active torsions:
REMARK  status: ('A' for Active; 'I' for Inactive)
REMARK    1  A    between atoms: C10_11  and  S16_17
REMARK    2  A    between atoms: N18_18  and  C19_19
REMARK    3  A    between atoms: C21_21  and  C25_25
REMARK    4  A    between atoms: C24_24  and  C31_31
REMARK    5  A    between atoms: C25_25  and  C26_26
REMARK    6  A    between atoms: C26_26  and  C27_27
REMARK    7  A    between atoms: C27_27  and  N28_28
REMARK    8  A    between atoms: N28_28  and  C29_29
REMARK    9  A    between atoms: N28_28  and  C30_30
REMARK                            x       y       z     vdW  Elec       q    Type
REMARK                         _______ _______ _______ _____ _____    ______ ____
ROOT
ATOM      1  C   UNL     1     -43.704  14.592  10.192  0.00  0.00    +0.023 A 
ATOM      2  C   UNL     1     -43.151  15.465  11.312  0.00  0.00    +0.206 C 
ATOM      3  C   UNL     1     -41.935  14.799  11.940  0.00  0.00    +0.098 C 
ATOM      6  N   UNL     1     -41.872  13.528  12.368  0.00  0.00    -0.299 NA
ATOM      7  C   UNL     1     -42.771  12.535  12.278  0.00  0.00    +0.019 A 
ATOM      8  C   UNL     1     -42.639  11.564  13.274  0.00  0.00    +0.021 A 
ATOM      9  C   UNL     1     -43.500  10.458  13.284  0.00  0.00    +0.038 A 
ATOM     10  C   UNL     1     -44.476  10.317  12.300  0.00  0.00    +0.007 A 
ATOM     11  C   UNL     1     -44.603  11.277  11.301  0.00  0.00    +0.009 A 
ATOM     12 CL   UNL     1     -43.387   9.234  14.507  0.00  0.00    -0.070 Cl
ATOM     13  C   UNL     1     -43.749  12.377  11.296  0.00  0.00    +0.010 A 
ATOM     14  C   UNL     1     -43.973  13.239  10.234  0.00  0.00    +0.059 A 
ATOM     15  N   UNL     1     -44.451  12.626   9.143  0.00  0.00    -0.255 NA
ATOM     16  C   UNL     1     -44.695  13.324   8.024  0.00  0.00    +0.202 A 
ATOM     17  N   UNL     1     -45.169  12.721   6.951  0.00  0.00    -0.243 N 
ATOM     18  H   UNL     1     -45.160  13.229   6.066  0.00  0.00    +0.216 HD
ATOM     32  N   UNL     1     -44.459  14.639   7.971  0.00  0.00    -0.262 NA
ATOM     33  C   UNL     1     -43.972  15.287   9.020  0.00  0.00    +0.098 A 
ENDROOT
BRANCH  17  19
ATOM     19  C   UNL     1     -45.661  11.478   6.964  0.00  0.00    +0.088 A 
ATOM     20  C   UNL     1     -46.962  11.244   6.507  0.00  0.00    +0.042 A 
ATOM     21  C   UNL     1     -47.836  12.390   6.006  0.00  0.00    +0.095 C 
ATOM     22  N   UNL     1     -47.479  10.010   6.504  0.00  0.00    -0.317 NA
ATOM     23  C   UNL     1     -46.775   8.977   6.918  0.00  0.00    +0.055 A 
ATOM     24  C   UNL     1     -45.474   9.131   7.387  0.00  0.00    -0.033 A 
ATOM     31  C   UNL     1     -44.899  10.399   7.407  0.00  0.00    +0.032 A 
BRANCH  24  25
ATOM     25  C   UNL     1     -44.702   7.880   7.855  0.00  0.00    +0.064 C 
BRANCH  25  26
ATOM     26  C   UNL     1     -44.683   7.695   9.373  0.00  0.00    -0.008 C 
BRANCH  26  27
ATOM     27  C   UNL     1     -43.952   6.409   9.792  0.00  0.00    -0.108 C 
BRANCH  27  28
ATOM     28  N   UNL     1     -42.583   6.250   9.225  0.00  0.00    +0.399 NA
ATOM     29  C   UNL     1     -42.031   4.981   9.750  0.00  0.00    -0.132 C 
ATOM     30  C   UNL     1     -41.629   7.351   9.513  0.00  0.00    -0.132 C 
ENDBRANCH  27  28
ENDBRANCH  26  27
ENDBRANCH  25  26
ENDBRANCH  24  25
ENDBRANCH  17  19
BRANCH   3   4
ATOM      4  S   UNL     1     -40.511  15.809  12.138  0.00  0.00    -0.061 S 
ATOM      5  H   UNL     1     -40.761  17.024  11.659  0.00  0.00    +0.139 HD
ENDBRANCH   3   4
TORSDOF 6
