REMARK  Name = 5NEV
REMARK  5 active torsions:
REMARK  status: ('A' for Active; 'I' for Inactive)
REMARK    1  A    between atoms: C_2  and  N_16
REMARK    2  A    between atoms: C_6  and  S_17
REMARK    3  A    between atoms: C_11  and  C_21
REMARK    4  A    between atoms: S_17  and  N_19
REMARK    5  A    between atoms: C_25  and  C_27
REMARK                            x       y       z     vdW  Elec       q    Type
REMARK                         _______ _______ _______ _____ _____    ______ ____
ROOT
ATOM      1  C   UNL     1      -9.358 -20.551  22.199  0.00  0.00    +0.199 A 
ATOM      2  N   UNL     1      -8.109 -20.571  21.739  0.00  0.00    -0.341 N 
ATOM      3  H   UNL     1      -7.699 -20.026  20.914  0.00  0.00    +0.167 HD
ATOM      4  C   UNL     1      -7.424 -21.522  22.635  0.00  0.00    +0.112 A 
ATOM      5  C   UNL     1      -8.375 -21.985  23.540  0.00  0.00    +0.183 A 
ATOM      6  N   UNL     1      -8.044 -22.883  24.510  0.00  0.00    -0.193 NA
ATOM      7  C   UNL     1      -6.776 -23.330  24.608  0.00  0.00    +0.222 A 
ATOM      8  N   UNL     1      -6.414 -24.289  25.612  0.00  0.00    -0.284 N 
ATOM      9  H   UNL     1      -6.292 -23.736  26.520  0.00  0.00    +0.155 HD
ATOM     22  N   UNL     1      -5.848 -22.878  23.742  0.00  0.00    -0.212 NA
ATOM     23  C   UNL     1      -6.113 -21.981  22.751  0.00  0.00    +0.102 A 
ATOM     36  N   UNL     1      -9.519 -21.390  23.250  0.00  0.00    -0.216 NA
ENDROOT
BRANCH   8  10
ATOM     10  C   UNL     1      -5.232 -25.146  25.497  0.00  0.00    +0.034 A 
ATOM     11  C   UNL     1      -4.532 -25.347  24.300  0.00  0.00    +0.025 A 
ATOM     12  C   UNL     1      -3.420 -26.157  24.266  0.00  0.00    +0.030 A 
ATOM     13  C   UNL     1      -3.013 -26.797  25.406  0.00  0.00    +0.105 A 
ATOM     20  C   UNL     1      -3.678 -26.612  26.602  0.00  0.00    +0.030 A 
ATOM     21  C   UNL     1      -4.785 -25.799  26.646  0.00  0.00    +0.025 A 
BRANCH  13  14
ATOM     14  S   UNL     1      -1.617 -27.793  25.270  0.00  0.00    +0.056 S 
ATOM     15  O   UNL     1      -1.336 -28.561  26.429  0.00  0.00    -0.153 OA
ATOM     19  O   UNL     1      -1.736 -28.650  24.162  0.00  0.00    -0.153 OA
BRANCH  14  16
ATOM     16  N   UNL     1      -0.498 -26.594  24.966  0.00  0.00    -0.203 NA
ATOM     17  H   UNL     1      -0.766 -26.074  24.070  0.00  0.00    +0.144 HD
ATOM     18  H   UNL     1      -0.480 -25.906  25.786  0.00  0.00    +0.144 HD
ENDBRANCH  14  16
ENDBRANCH  13  14
ENDBRANCH   8  10
BRANCH  23  24
ATOM     24  C   UNL     1      -5.015 -21.573  21.820  0.00  0.00    +0.003 A 
ATOM     25  C   UNL     1      -3.753 -22.133  22.035  0.00  0.00    +0.018 A 
ATOM     26  C   UNL     1      -2.708 -21.817  21.202  0.00  0.00    -0.017 A 
ATOM     33  C   UNL     1      -2.845 -20.974  20.124  0.00  0.00    +0.008 A 
ATOM     34  C   UNL     1      -4.090 -20.406  19.876  0.00  0.00    +0.001 A 
ATOM     35  C   UNL     1      -5.176 -20.702  20.706  0.00  0.00    +0.010 A 
BRANCH  26  27
ATOM     27  C   UNL     1      -1.419 -22.429  21.493  0.00  0.00    -0.018 A 
ATOM     28  C   UNL     1      -0.375 -21.651  21.920  0.00  0.00    +0.008 A 
ATOM     29  C   UNL     1       0.816 -22.243  22.187  0.00  0.00    +0.001 A 
ATOM     30  C   UNL     1       0.931 -23.601  22.020  0.00  0.00    +0.000 A 
ATOM     31  C   UNL     1      -0.145 -24.359  21.589  0.00  0.00    +0.001 A 
ATOM     32  C   UNL     1      -1.326 -23.772  21.322  0.00  0.00    +0.008 A 
ENDBRANCH  26  27
ENDBRANCH  23  24
TORSDOF 5
