REMARK  Name = 5A4T
REMARK  3 active torsions:
REMARK  status: ('A' for Active; 'I' for Inactive)
REMARK    1  A    between atoms: C_5  and  C_6
REMARK    2  A    between atoms: N_12  and  C_13
REMARK    3  A    between atoms: C_13  and  C_15
REMARK                            x       y       z     vdW  Elec       q    Type
REMARK                         _______ _______ _______ _____ _____    ______ ____
ROOT
ATOM      1  N   UNL     1       8.364 -15.032  48.105  0.00  0.00    -0.223 NA
ATOM      2  C   UNL     1       9.035 -16.187  48.026  0.00  0.00    +0.186 C 
ATOM      3  N   UNL     1      10.000 -16.517  48.899  0.00  0.00    -0.155 NA
ATOM      7  S   UNL     1       8.459 -16.984  46.704  0.00  0.00    -0.051 S 
ATOM      8  C   UNL     1       7.383 -15.921  46.262  0.00  0.00    +0.039 C 
ATOM      9  C   UNL     1       6.545 -15.950  45.232  0.00  0.00    +0.018 C 
ATOM     10  C   UNL     1       5.674 -14.892  45.018  0.00  0.00    +0.120 C 
ATOM     13  C   UNL     1       5.712 -13.810  45.894  0.00  0.00    +0.003 C 
ATOM     14  C   UNL     1       6.617 -13.832  46.951  0.00  0.00    +0.027 C 
ATOM     15  C   UNL     1       7.439 -14.871  47.131  0.00  0.00    +0.080 C 
ENDROOT
BRANCH   3   4
ATOM      4  C   UNL     1      10.711 -17.677  48.881  0.00  0.00    +0.235 C 
ATOM      5  C   UNL     1      10.408 -18.763  47.847  0.00  0.00    +0.111 C 
ATOM      6  O   UNL     1      11.599 -17.894  49.705  0.00  0.00    -0.274 OA
ENDBRANCH   3   4
BRANCH  10  11
ATOM     11  C   UNL     1       4.792 -14.931  43.921  0.00  0.00    +0.080 C 
ATOM     12  N   UNL     1       4.064 -14.971  43.011  0.00  0.00    -0.195 NA
ENDBRANCH  10  11
TORSDOF 2
