REMARK  Name = 3bv3_ligand
REMARK  10 active torsions:
REMARK  status: ('A' for Active; 'I' for Inactive)
REMARK    1  A    between atoms: C16_3  and  C14_26
REMARK    2  A    between atoms: C15_4  and  C14_26
REMARK    3  A    between atoms: C23_8  and  N22_27
REMARK    4  A    between atoms: C24_9  and  C29_31
REMARK    5  A    between atoms: C11_10  and  C8_21
REMARK    6  A    between atoms: C27_12  and  N30_32
REMARK    7  A    between atoms: C33_13  and  C31_33
REMARK    8  A    between atoms: C7_20  and  C10_23
REMARK    9  A    between atoms: N13_25  and  C14_26
REMARK   10  A    between atoms: C35_35  and  N39_39
REMARK                            x       y       z     vdW  Elec       q    Type
REMARK                         _______ _______ _______ _____ _____    ______ ____
ROOT
ATOM     11  C   UNL     1      -1.539  38.735  15.940  0.00  0.00    +0.043 A 
ATOM     12  C   UNL     1      -1.460  37.344  15.518  0.00  0.00    +0.163 A 
ATOM     13  N   UNL     1      -1.778  36.565  16.553  0.00  0.00    -0.165 N 
ATOM     14  C   UNL     1      -2.082  37.364  17.662  0.00  0.00    +0.154 A 
ATOM     15  C   UNL     1      -2.458  36.628  18.823  0.00  0.00    +0.167 A 
ATOM     16  N   UNL     1      -2.814  37.250  20.022  0.00  0.00    -0.252 N 
ATOM     17  H   UNL     1      -2.707  38.273  20.075  0.00  0.00    +0.218 HD
ATOM     41  N   UNL     1      -2.516  35.356  18.956  0.00  0.00    -0.278 NA
ATOM     42  C   UNL     1      -2.208  34.609  17.839  0.00  0.00    +0.179 A 
ATOM     43  N   UNL     1      -1.832  35.257  16.708  0.00  0.00    -0.169 NA
ATOM     44  C   UNL     1      -1.924  38.770  17.347  0.00  0.00    -0.021 A 
ATOM     45  C   UNL     1      -2.168  40.065  18.281  0.00  0.00    +0.059 C 
ENDROOT
BRANCH  16  18
ATOM     18  C   UNL     1      -3.301  36.599  21.150  0.00  0.00    +0.057 A 
ATOM     19  C   UNL     1      -2.434  35.909  21.975  0.00  0.00    +0.017 A 
ATOM     20  C   UNL     1      -2.763  35.191  23.174  0.00  0.00    +0.050 A 
ATOM     37  C   UNL     1      -4.170  35.233  23.487  0.00  0.00    -0.019 A 
ATOM     38  C   UNL     1      -5.076  35.943  22.632  0.00  0.00    -0.033 A 
ATOM     39  C   UNL     1      -4.666  36.637  21.448  0.00  0.00    -0.035 A 
ATOM     40  C   UNL     1      -5.649  37.363  20.547  0.00  0.00    +0.063 C 
BRANCH  20  21
ATOM     21  N   UNL     1      -1.886  34.526  24.021  0.00  0.00    -0.239 N 
ATOM     22  H   UNL     1      -2.198  33.755  24.577  0.00  0.00    +0.223 HD
ATOM     23  C   UNL     1      -0.611  34.941  24.077  0.00  0.00    +0.227 C 
ATOM     24  O   UNL     1      -0.092  35.784  23.328  0.00  0.00    -0.374 OA
BRANCH  23  25
ATOM     25  C   UNL     1       0.377  34.281  25.032  0.00  0.00    +0.044 A 
ATOM     26  C   UNL     1       0.145  32.996  25.536  0.00  0.00    +0.001 A 
ATOM     27  C   UNL     1       1.018  32.428  26.394  0.00  0.00    -0.009 A 
ATOM     28  C   UNL     1       2.073  33.137  26.700  0.00  0.00    +0.015 A 
ATOM     29  C   UNL     1       2.444  34.344  26.303  0.00  0.00    +0.046 A 
ATOM     36  C   UNL     1       1.606  34.955  25.450  0.00  0.00    +0.032 A 
BRANCH  29  30
ATOM     30  N   UNL     1       3.613  34.884  26.700  0.00  0.00    -0.304 N 
ATOM     31  C   UNL     1       4.685  34.059  27.356  0.00  0.00    +0.157 C 
ATOM     32  C   UNL     1       5.503  34.903  28.407  0.00  0.00    +0.183 C 
ATOM     33  O   UNL     1       6.089  35.879  27.588  0.00  0.00    -0.376 OA
ATOM     34  C   UNL     1       5.262  36.691  26.764  0.00  0.00    +0.183 C 
ATOM     35  C   UNL     1       3.825  36.237  26.357  0.00  0.00    +0.157 C 
ENDBRANCH  29  30
ENDBRANCH  23  25
ENDBRANCH  20  21
ENDBRANCH  16  18
BRANCH  11   9
ATOM      7  N   UNL     1      -1.007  39.539  13.813  0.00  0.00    -0.277 N 
ATOM      8  H   UNL     1      -1.029  38.606  13.454  0.00  0.00    +0.187 HD
ATOM      9  C   UNL     1      -1.330  39.862  15.057  0.00  0.00    +0.183 C 
ATOM     10  O   UNL     1      -1.533  41.078  15.365  0.00  0.00    -0.399 OA
BRANCH   7   6
ATOM      6  C   UNL     1      -0.626  40.674  13.051  0.00  0.00    +0.143 C 
ATOM     46  C   UNL     1       0.581  40.554  12.195  0.00  0.00    +0.050 C 
BRANCH   6   5
ATOM      1  C   UNL     1      -3.121  42.011  10.578  0.00  0.00    -0.009 A 
ATOM      2  C   UNL     1      -3.778  40.770  10.240  0.00  0.00    -0.013 A 
ATOM      3  C   UNL     1      -3.432  39.525  10.811  0.00  0.00    -0.009 A 
ATOM      4  C   UNL     1      -2.386  39.557  11.734  0.00  0.00    -0.003 A 
ATOM      5  C   UNL     1      -1.705  40.768  12.083  0.00  0.00    -0.018 A 
ATOM     47  C   UNL     1      -2.057  42.058  11.518  0.00  0.00    -0.003 A 
ENDBRANCH   6   5
ENDBRANCH   7   6
ENDBRANCH  11   9
TORSDOF 7
