REMARK  Name = 4g9c_ligand
REMARK  10 active torsions:
REMARK  status: ('A' for Active; 'I' for Inactive)
REMARK    1  A    between atoms: C1_1  and  C2_2
REMARK    2  A    between atoms: C5_5  and  N11_11
REMARK    3  A    between atoms: N12_12  and  C24_24
REMARK    4  A    between atoms: C13_13  and  C14_14
REMARK    5  A    between atoms: C19_19  and  C21_21
REMARK    6  A    between atoms: C21_21  and  C22_22
REMARK    7  A    between atoms: C21_21  and  C23_23
REMARK    8  A    between atoms: C21_21  and  C33_33
REMARK    9  A    between atoms: C30_30  and  O35_35
REMARK   10  A    between atoms: O35_35  and  C36_36
REMARK                            x       y       z     vdW  Elec       q    Type
REMARK                         _______ _______ _______ _____ _____    ______ ____
ROOT
ATOM     17  C   UNL     1      41.171 -25.237  -3.168  0.00  0.00    +0.110 A 
ATOM     18  C   UNL     1      41.377 -24.380  -2.099  0.00  0.00    +0.136 A 
ATOM     19  F   UNL     1      40.931 -24.729  -0.867  0.00  0.00    -0.191 F 
ATOM     20  C   UNL     1      42.046 -23.152  -2.291  0.00  0.00    +0.015 A 
ATOM     21  C   UNL     1      42.500 -22.797  -3.566  0.00  0.00    +0.012 A 
ATOM     22  C   UNL     1      42.290 -23.664  -4.640  0.00  0.00    +0.102 A 
ATOM     38  C   UNL     1      41.622 -24.887  -4.432  0.00  0.00    +0.172 A 
ATOM     39  F   UNL     1      41.415 -25.726  -5.466  0.00  0.00    -0.188 F 
ENDROOT
BRANCH  17   1
ATOM      1  C   UNL     1      40.468 -26.508  -2.931  0.00  0.00    +0.230 C 
ATOM      2  N   UNL     1      39.189 -26.377  -2.531  0.00  0.00    -0.228 N 
ATOM      3  H   UNL     1      38.853 -25.418  -2.440  0.00  0.00    +0.228 HD
ATOM     16  O   UNL     1      41.049 -27.582  -3.094  0.00  0.00    -0.377 OA
BRANCH   2   4
ATOM      4  C   UNL     1      38.243 -27.388  -2.218  0.00  0.00    +0.096 A 
ATOM      5  C   UNL     1      36.877 -27.068  -2.104  0.00  0.00    +0.102 A 
ATOM      6  N   UNL     1      35.892 -27.957  -1.806  0.00  0.00    -0.317 NA
ATOM      7  C   UNL     1      36.339 -29.222  -1.619  0.00  0.00    +0.012 A 
ATOM      8  N   UNL     1      35.630 -30.372  -1.306  0.00  0.00    -0.419 NA
ATOM      9  N   UNL     1      36.433 -31.477  -1.197  0.00  0.00    -0.239 N 
ATOM     10  H   UNL     1      36.159 -32.435  -0.978  0.00  0.00    +0.262 HD
ATOM     11  C   UNL     1      37.647 -31.010  -1.443  0.00  0.00    +0.301 A 
ATOM     14  C   UNL     1      37.630 -29.649  -1.703  0.00  0.00    +0.101 A 
ATOM     15  C   UNL     1      38.635 -28.726  -2.010  0.00  0.00    +0.066 A 
BRANCH  11  12
ATOM     12  O   UNL     1      38.755 -31.795  -1.437  0.00  0.00    -0.232 OA
ATOM     13  C   UNL     1      38.586 -33.182  -1.153  0.00  0.00    +0.273 C 
ENDBRANCH  11  12
ENDBRANCH   2   4
ENDBRANCH  17   1
BRANCH  22  23
ATOM     23  N   UNL     1      42.736 -23.305  -5.941  0.00  0.00    -0.233 N 
ATOM     24  H   UNL     1      43.661 -22.879  -6.000  0.00  0.00    +0.223 HD
ATOM     25  C   UNL     1      42.075 -23.464  -7.106  0.00  0.00    +0.238 C 
ATOM     26  O   UNL     1      40.954 -23.960  -7.208  0.00  0.00    -0.373 OA
BRANCH  25  27
ATOM     27  C   UNL     1      42.680 -23.043  -8.150  0.00  0.00    +0.085 A 
ATOM     28  C   UNL     1      41.850 -22.855  -9.252  0.00  0.00    +0.074 A 
ATOM     29  C   UNL     1      42.364 -22.395 -10.462  0.00  0.00    -0.016 A 
ATOM     35  C   UNL     1      43.736 -22.115 -10.580  0.00  0.00    +0.055 A 
ATOM     36  C   UNL     1      44.586 -22.302  -9.467  0.00  0.00    +0.043 A 
ATOM     37  C   UNL     1      44.050 -22.771  -8.243  0.00  0.00    +0.076 A 
BRANCH  29  30
ATOM     30  C   UNL     1      41.426 -22.198 -11.654  0.00  0.00    +0.082 C 
ATOM     33  C   UNL     1      40.079 -21.631 -11.186  0.00  0.00    -0.011 C 
ATOM     34  C   UNL     1      41.186 -23.528 -12.395  0.00  0.00    -0.011 C 
BRANCH  30  31
ATOM     31  C   UNL     1      42.008 -21.240 -12.603  0.00  0.00    +0.057 C 
ATOM     32  N   UNL     1      42.464 -20.484 -13.348  0.00  0.00    -0.314 NA
ENDBRANCH  30  31
ENDBRANCH  29  30
ENDBRANCH  25  27
ENDBRANCH  22  23
TORSDOF 7
