REMARK  Name = 5EBZ
REMARK  5 active torsions:
REMARK  status: ('A' for Active; 'I' for Inactive)
REMARK    1  A    between atoms: S_2  and  N_4
REMARK    2  A    between atoms: S_2  and  C_5
REMARK    3  A    between atoms: N_10  and  C_11
REMARK    4  A    between atoms: C_12  and  C_13
REMARK    5  A    between atoms: C_17  and  C_18
REMARK                            x       y       z     vdW  Elec       q    Type
REMARK                         _______ _______ _______ _____ _____    ______ ____
ROOT
ATOM      7  C   UNL     1      87.852  65.700  -0.047  0.00  0.00    +0.004 C 
ATOM      8  C   UNL     1      87.548  64.958   1.046  0.00  0.00    +0.015 C 
ATOM      9  C   UNL     1      87.289  63.627   0.965  0.00  0.00    -0.035 C 
ATOM     10  C   UNL     1      86.929  62.937   2.127  0.00  0.00    -0.022 C 
ATOM     11  C   UNL     1      86.612  61.565   2.047  0.00  0.00    +0.004 C 
ATOM     12  C   UNL     1      86.224  60.886   3.221  0.00  0.00    -0.022 C 
ATOM     13  C   UNL     1      86.147  61.572   4.450  0.00  0.00    +0.054 C 
ATOM     14  C   UNL     1      86.454  62.947   4.519  0.00  0.00    -0.022 C 
ATOM     15  C   UNL     1      86.850  63.633   3.349  0.00  0.00    +0.004 C 
ATOM     16  C   UNL     1      87.363  62.945  -0.269  0.00  0.00    +0.078 C 
ATOM     17  C   UNL     1      87.727  63.700  -1.387  0.00  0.00    +0.040 C 
ATOM     23  C   UNL     1      87.942  65.011  -1.248  0.00  0.00    +0.041 C 
ENDROOT
BRANCH   7   6
ATOM      3  C   UNL     1      89.401  69.262   0.183  0.00  0.00    +0.105 A 
ATOM      4  C   UNL     1      89.455  68.546  -1.083  0.00  0.00    +0.029 A 
ATOM      5  C   UNL     1      88.623  67.415  -1.291  0.00  0.00    +0.010 A 
ATOM      6  C   UNL     1      88.221  67.129  -0.061  0.00  0.00    -0.016 A 
ATOM     27  C   UNL     1      88.167  67.619   1.220  0.00  0.00    +0.010 A 
ATOM     28  C   UNL     1      88.719  68.881   1.405  0.00  0.00    +0.029 A 
BRANCH   3   2
ATOM      1  O   UNL     1      90.390  71.105   1.913  0.00  0.00    -0.153 OA
ATOM      2  S   UNL     1      90.307  70.811   0.521  0.00  0.00    +0.056 S 
ATOM     32  O   UNL     1      89.499  71.819  -0.095  0.00  0.00    -0.153 OA
BRANCH   2  29
ATOM     29  N   UNL     1      91.655  70.829  -0.105  0.00  0.00    -0.203 NA
ATOM     30  H   UNL     1      92.092  71.798   0.017  0.00  0.00    +0.144 HD
ATOM     31  H   UNL     1      92.277  70.096   0.365  0.00  0.00    +0.144 HD
ENDBRANCH   2  29
ENDBRANCH   3   2
ENDBRANCH   7   6
BRANCH  17  18
ATOM     18  C   UNL     1      87.800  62.969  -2.658  0.00  0.00    +0.240 C 
ATOM     19  N   UNL     1      87.580  61.581  -2.751  0.00  0.00    -0.326 N 
ATOM     20  H   UNL     1      87.644  61.092  -3.700  0.00  0.00    +0.145 HD
ATOM     21  H   UNL     1      87.349  61.016  -1.872  0.00  0.00    +0.145 HD
ATOM     22  O   UNL     1      88.072  63.570  -3.709  0.00  0.00    -0.271 OA
ENDBRANCH  17  18
BRANCH  23  24
ATOM     24  N   UNL     1      88.267  65.823  -2.447  0.00  0.00    -0.357 N 
ATOM     25  H   UNL     1      89.165  65.453  -2.897  0.00  0.00    +0.142 HD
ATOM     26  H   UNL     1      87.463  65.759  -3.151  0.00  0.00    +0.142 HD
ENDBRANCH  23  24
TORSDOF 5
