REMARK  Name = 1q4l_ligand
REMARK  4 active torsions:
REMARK  status: ('A' for Active; 'I' for Inactive)
REMARK    1  A    between atoms: C6_6  and  C8_8
REMARK    2  A    between atoms: C9_9  and  N15_15
REMARK    3  A    between atoms: N15_15  and  C16_16
REMARK    4  A    between atoms: C20_20  and  C23_23
REMARK                            x       y       z     vdW  Elec       q    Type
REMARK                         _______ _______ _______ _____ _____    ______ ____
ROOT
ATOM      3  C   UNL     1      39.225   8.315  35.856  0.00  0.00    +0.202 C 
ATOM      4  C   UNL     1      39.274   9.323  36.862  0.00  0.00    +0.224 C 
ATOM      5  N   UNL     1      40.226   9.038  37.750  0.00  0.00    -0.196 N 
ATOM      6  H   UNL     1      40.480   9.609  38.530  0.00  0.00    +0.226 HD
ATOM      7  C   UNL     1      40.790   7.861  37.430  0.00  0.00    +0.234 C 
ATOM      8  O   UNL     1      41.659   7.273  38.083  0.00  0.00    -0.383 OA
ATOM      9  O   UNL     1      38.534  10.317  36.920  0.00  0.00    -0.383 OA
ATOM     10  C   UNL     1      40.252   7.386  36.238  0.00  0.00    +0.245 C 
ENDROOT
BRANCH   3   2
ATOM      1  C   UNL     1      37.664   7.074  34.367  0.00  0.00    -0.001 A 
ATOM      2  C   UNL     1      38.310   8.289  34.760  0.00  0.00    -0.016 A 
ATOM     23  C   UNL     1      38.011   9.479  34.028  0.00  0.00    +0.013 A 
ATOM     24  C   UNL     1      37.096   9.446  32.944  0.00  0.00    +0.034 A 
ATOM     25 CL   UNL     1      36.744  10.886  32.102  0.00  0.00    -0.072 Cl
ATOM     26  C   UNL     1      36.467   8.230  32.563  0.00  0.00    +0.002 A 
ATOM     27  C   UNL     1      36.756   7.046  33.277  0.00  0.00    -0.008 A 
ENDBRANCH   3   2
BRANCH  10  11
ATOM     11  N   UNL     1      40.736   6.213  35.617  0.00  0.00    -0.298 N 
ATOM     12  H   UNL     1      41.257   5.606  36.265  0.00  0.00    +0.179 HD
BRANCH  11  13
ATOM     13  C   UNL     1      40.668   5.689  34.322  0.00  0.00    +0.044 A 
ATOM     14  C   UNL     1      40.462   4.285  34.157  0.00  0.00    +0.025 A 
ATOM     15  C   UNL     1      40.363   3.690  32.848  0.00  0.00    +0.012 A 
ATOM     19  C   UNL     1      40.478   4.591  31.721  0.00  0.00    +0.040 A 
ATOM     20 CL   UNL     1      40.378   4.146  30.103  0.00  0.00    -0.079 Cl
ATOM     21  C   UNL     1      40.686   5.983  31.878  0.00  0.00    +0.004 A 
ATOM     22  C   UNL     1      40.784   6.532  33.164  0.00  0.00    +0.013 A 
BRANCH  15  16
ATOM     16  C   UNL     1      40.170   2.338  32.742  0.00  0.00    +0.060 C 
ATOM     17  O   UNL     1      39.129   1.828  32.241  0.00  0.00    -0.561 OA
ATOM     18  O   UNL     1      41.117   1.609  33.131  0.00  0.00    -0.561 OA
ENDBRANCH  15  16
ENDBRANCH  11  13
ENDBRANCH  10  11
TORSDOF 4
