REMARK  Name = 87G
REMARK  6 active torsions:
REMARK  status: ('A' for Active; 'I' for Inactive)
REMARK    1  A    between atoms: C8_5  and  C9_16
REMARK    2  A    between atoms: C13_7  and  O29_29
REMARK    3  A    between atoms: C22_12  and  S32_32
REMARK    4  A    between atoms: C11_17  and  N25_25
REMARK    5  A    between atoms: C12_18  and  O29_29
REMARK    6  A    between atoms: N25_25  and  S32_32
REMARK                            x       y       z     vdW  Elec       q    Type
REMARK                         _______ _______ _______ _____ _____    ______ ____
ROOT
ATOM      8  C   UNL     1       1.623  -6.955  11.451  0.00  0.00    +0.145 A 
ATOM      9  C   UNL     1       1.971  -6.041  12.422  0.00  0.00    +0.039 A 
ATOM     10  C   UNL     1       1.008  -5.288  13.046  0.00  0.00    +0.021 A 
ATOM     11  C   UNL     1      -0.317  -5.476  12.701  0.00  0.00    +0.091 A 
ATOM     18  C   UNL     1      -0.660  -6.402  11.728  0.00  0.00    +0.021 A 
ATOM     19  C   UNL     1       0.298  -7.135  11.074  0.00  0.00    +0.037 A 
ENDROOT
BRANCH  19  20
ATOM     20  C   UNL     1      -0.153  -8.085  10.079  0.00  0.00    +0.018 A 
ATOM     21  C   UNL     1      -1.308  -8.825  10.238  0.00  0.00    +0.076 A 
ATOM     22  N   UNL     1      -1.483  -9.629   9.150  0.00  0.00    -0.321 N 
ATOM     23  C   UNL     1      -2.580 -10.586   9.023  0.00  0.00    +0.131 C 
ATOM     24  C   UNL     1      -0.464  -9.420   8.257  0.00  0.00    +0.112 A 
ATOM     25  C   UNL     1      -0.231 -10.040   6.989  0.00  0.00    +0.284 C 
ATOM     26  O   UNL     1      -0.981 -10.865   6.463  0.00  0.00    -0.266 OA
ATOM     27  N   UNL     1       0.955  -9.595   6.409  0.00  0.00    -0.177 NA
ATOM     28  C   UNL     1       1.755  -8.600   6.929  0.00  0.00    +0.067 C 
ATOM     29  C   UNL     1       1.494  -8.042   8.108  0.00  0.00    +0.072 C 
ATOM     30  C   UNL     1       0.359  -8.475   8.821  0.00  0.00    +0.005 A 
ENDBRANCH  19  20
BRANCH   8   7
ATOM      7  O   UNL     1       2.642  -7.643  10.831  0.00  0.00    -0.451 OA
BRANCH   7   6
ATOM      1  C   UNL     1       3.480 -10.244  13.299  0.00  0.00    +0.033 A 
ATOM      2  C   UNL     1       4.645 -10.698  12.724  0.00  0.00    +0.143 A 
ATOM      3  F   UNL     1       5.323 -11.695  13.313  0.00  0.00    -0.204 F 
ATOM      4  C   UNL     1       5.123 -10.149  11.557  0.00  0.00    +0.062 A 
ATOM      5  C   UNL     1       4.417  -9.129  10.962  0.00  0.00    +0.177 A 
ATOM      6  C   UNL     1       3.236  -8.678  11.514  0.00  0.00    +0.173 A 
ATOM     31  F   UNL     1       4.887  -8.564   9.834  0.00  0.00    -0.201 F 
ATOM     32  C   UNL     1       2.759  -9.238  12.690  0.00  0.00    +0.042 A 
ENDBRANCH   7   6
ENDBRANCH   8   7
BRANCH  11  12
ATOM     12  N   UNL     1      -1.306  -4.724  13.420  0.00  0.00    -0.101 NA
BRANCH  12  13
ATOM     13  S   UNL     1      -2.829  -4.280  12.755  0.00  0.00    +0.073 S 
ATOM     14  O   UNL     1      -3.405  -3.260  13.620  0.00  0.00    -0.153 OA
ATOM     17  O   UNL     1      -2.676  -4.106  11.327  0.00  0.00    -0.153 OA
BRANCH  13  15
ATOM     15  C   UNL     1      -3.805  -5.742  13.062  0.00  0.00    +0.174 C 
ATOM     16  C   UNL     1      -3.779  -6.166  14.516  0.00  0.00    +0.029 C 
ENDBRANCH  13  15
ENDBRANCH  12  13
ENDBRANCH  11  12
TORSDOF 6
