REMARK  Name = 5UBR
REMARK  5 active torsions:
REMARK  status: ('A' for Active; 'I' for Inactive)
REMARK    1  A    between atoms: C_4  and  C_8
REMARK    2  A    between atoms: C_6  and  C_7
REMARK    3  A    between atoms: N_14  and  C_17
REMARK    4  A    between atoms: C_26  and  N_28
REMARK    5  A    between atoms: C_34  and  C_35
REMARK                            x       y       z     vdW  Elec       q    Type
REMARK                         _______ _______ _______ _____ _____    ______ ____
ROOT
ATOM      1  C   UNL     1     -16.479  13.709  29.570  0.00  0.00    +0.219 C 
ATOM      2  N   UNL     1     -17.620  14.157  30.232  0.00  0.00    -0.210 N 
ATOM      3  N   UNL     1     -17.652  15.049  31.277  0.00  0.00    -0.143 NA
ATOM      4  C   UNL     1     -16.459  15.456  31.607  0.00  0.00    +0.382 C 
ATOM      5  N   UNL     1     -15.262  15.124  31.074  0.00  0.00    -0.030 NA
ATOM      6  C   UNL     1     -18.767  13.574  29.692  0.00  0.00    +0.128 C 
ATOM     22  C   UNL     1     -18.323  12.744  28.670  0.00  0.00    +0.016 C 
ATOM     23  C   UNL     1     -16.895  12.827  28.591  0.00  0.00    +0.016 C 
ATOM     35  C   UNL     1     -15.244  14.248  30.049  0.00  0.00    +0.319 C 
ATOM     36  N   UNL     1     -14.070  13.910  29.513  0.00  0.00    -0.248 N 
ATOM     37  H   UNL     1     -13.165  14.333  29.897  0.00  0.00    +0.288 HD
ATOM     38  H   UNL     1     -14.033  13.216  28.700  0.00  0.00    +0.288 HD
ENDROOT
BRANCH   6   7
ATOM      7  C   UNL     1     -20.159  13.818  30.149  0.00  0.00    -0.014 A 
ATOM      8  C   UNL     1     -20.449  13.808  31.515  0.00  0.00    +0.029 A 
ATOM      9  C   UNL     1     -21.757  14.034  31.969  0.00  0.00    +0.030 A 
ATOM     19  C   UNL     1     -22.773  14.272  31.034  0.00  0.00    +0.023 A 
ATOM     20  C   UNL     1     -22.481  14.281  29.677  0.00  0.00    +0.002 A 
ATOM     21  C   UNL     1     -21.186  14.056  29.235  0.00  0.00    +0.006 A 
BRANCH   9  10
ATOM     10  N   UNL     1     -22.046  14.024  33.338  0.00  0.00    -0.327 N 
ATOM     11  C   UNL     1     -21.725  12.805  34.086  0.00  0.00    +0.124 C 
ATOM     12  C   UNL     1     -22.402  12.817  35.452  0.00  0.00    +0.126 C 
ATOM     13  N   UNL     1     -22.030  14.033  36.191  0.00  0.00    -0.299 N 
ATOM     14  C   UNL     1     -21.421  14.027  37.418  0.00  0.00    +0.213 C 
ATOM     15  O   UNL     1     -21.146  12.975  37.980  0.00  0.00    -0.276 OA
ATOM     16  C   UNL     1     -21.098  15.346  38.058  0.00  0.00    +0.109 C 
ATOM     17  C   UNL     1     -22.398  15.242  35.440  0.00  0.00    +0.126 C 
ATOM     18  C   UNL     1     -21.711  15.241  34.084  0.00  0.00    +0.124 C 
ENDBRANCH   9  10
ENDBRANCH   6   7
BRANCH  23  24
ATOM     24  C   UNL     1     -16.059  12.090  27.629  0.00  0.00    +0.068 A 
ATOM     25  C   UNL     1     -15.081  12.611  26.798  0.00  0.00    +0.049 A 
ATOM     26  C   UNL     1     -14.587  11.519  26.089  0.00  0.00    +0.135 A 
ATOM     27  N   UNL     1     -15.180  10.376  26.416  0.00  0.00    -0.179 NA
ATOM     28  N   UNL     1     -16.092  10.744  27.373  0.00  0.00    -0.261 N 
BRANCH  28  29
ATOM     29  C   UNL     1     -16.983   9.765  28.024  0.00  0.00    +0.112 C 
ATOM     30  C   UNL     1     -17.938   9.146  27.008  0.00  0.00    +0.055 C 
ATOM     31  C   UNL     1     -18.748   8.077  27.702  0.00  0.00    +0.162 C 
ATOM     32  O   UNL     1     -17.897   7.063  28.279  0.00  0.00    -0.380 OA
ATOM     33  C   UNL     1     -17.063   7.613  29.298  0.00  0.00    +0.162 C 
ATOM     34  C   UNL     1     -16.164   8.695  28.747  0.00  0.00    +0.055 C 
ENDBRANCH  28  29
ENDBRANCH  23  24
TORSDOF 4
