REMARK  Name = 8QH
REMARK  2 active torsions:
REMARK  status: ('A' for Active; 'I' for Inactive)
REMARK    1  A    between atoms: CAF_2  and  NAN_21
REMARK    2  A    between atoms: CAT_14  and  NAN_21
REMARK                            x       y       z     vdW  Elec       q    Type
REMARK                         _______ _______ _______ _____ _____    ______ ____
ROOT
ATOM      7  C   UNL     1     -16.420  12.921  43.406  0.00  0.00    +0.091 C 
ATOM      8  C   UNL     1     -16.564  12.731  44.764  0.00  0.00    +0.085 C 
ATOM      9  C   UNL     1     -16.530  11.528  45.467  0.00  0.00    +0.178 C 
ATOM     10  C   UNL     1     -16.376  11.708  46.816  0.00  0.00    +0.074 C 
ATOM     11  C   UNL     1     -17.197  12.835  47.360  0.00  0.00    +0.038 C 
ATOM     12  C   UNL     1     -16.842  14.017  46.716  0.00  0.00    +0.016 A 
ATOM     13  C   UNL     1     -16.885  15.326  46.992  0.00  0.00    +0.038 A 
ATOM     14  C   UNL     1     -17.073  16.006  48.125  0.00  0.00    +0.046 A 
ATOM     15  C   UNL     1     -16.970  17.395  48.103  0.00  0.00    +0.207 A 
ATOM     16  O   UNL     1     -17.148  18.175  49.202  0.00  0.00    -0.286 OA
ATOM     17  C   UNL     1     -16.677  18.054  46.922  0.00  0.00    +0.110 A 
ATOM     18 CL   UNL     1     -16.543  19.764  46.851  0.00  0.00    -0.078 Cl
ATOM     19  C   UNL     1     -16.492  17.294  45.784  0.00  0.00    +0.106 A 
ATOM     20 CL   UNL     1     -16.126  18.056  44.268  0.00  0.00    -0.078 Cl
ATOM     21  C   UNL     1     -16.603  15.972  45.850  0.00  0.00    +0.156 A 
ATOM     22  O   UNL     1     -16.467  15.090  44.902  0.00  0.00    -0.453 OA
ATOM     23  O   UNL     1     -16.352  10.439  44.919  0.00  0.00    -0.291 OA
ATOM     24  C   UNL     1     -16.675  13.898  45.397  0.00  0.00    +0.145 A 
ENDROOT
BRANCH   7   6
ATOM      6  N   UNL     1     -16.317  11.948  42.501  0.00  0.00    -0.211 NA
BRANCH   6   5
ATOM      1  C   UNL     1     -15.822  14.536  37.670  0.00  0.00    +0.031 C 
ATOM      2  C   UNL     1     -15.948  13.844  38.860  0.00  0.00    -0.022 A 
ATOM      3  C   UNL     1     -16.061  14.573  40.028  0.00  0.00    -0.003 A 
ATOM      4  C   UNL     1     -16.188  13.891  41.222  0.00  0.00    +0.016 A 
ATOM      5  C   UNL     1     -16.191  12.497  41.288  0.00  0.00    +0.070 A 
ATOM     25  C   UNL     1     -16.084  11.771  40.108  0.00  0.00    +0.016 A 
ATOM     26  C   UNL     1     -15.958  12.451  38.896  0.00  0.00    -0.003 A 
ENDBRANCH   6   5
ENDBRANCH   7   6
TORSDOF 2
