REMARK  Name = 5OQ8
REMARK  7 active torsions:
REMARK  status: ('A' for Active; 'I' for Inactive)
REMARK    1  A    between atoms: C_2  and  C_11
REMARK    2  A    between atoms: C_3  and  O_7
REMARK    3  A    between atoms: C_6  and  N_10
REMARK    4  A    between atoms: O_7  and  C_8
REMARK    5  A    between atoms: C_8  and  C_9
REMARK    6  A    between atoms: N_12  and  C_14
REMARK    7  A    between atoms: N_27  and  C_30
REMARK                            x       y       z     vdW  Elec       q    Type
REMARK                         _______ _______ _______ _____ _____    ______ ____
ROOT
ATOM      1  C   UNL     1       1.277  -4.573  19.342  0.00  0.00    +0.040 A 
ATOM      2  C   UNL     1       0.018  -5.062  19.180  0.00  0.00    +0.031 A 
ATOM     10  C   UNL     1      -0.301  -5.923  18.112  0.00  0.00    +0.027 A 
ATOM     11  C   UNL     1       0.676  -6.287  17.219  0.00  0.00    +0.048 A 
ATOM     12  C   UNL     1       1.949  -5.769  17.401  0.00  0.00    +0.133 A 
ATOM     21  C   UNL     1       2.245  -4.961  18.474  0.00  0.00    +0.080 A 
ENDROOT
BRANCH   2   3
ATOM      3  N   UNL     1      -0.927  -4.712  20.133  0.00  0.00    -0.327 N 
ATOM      4  C   UNL     1      -2.296  -5.255  19.977  0.00  0.00    +0.120 C 
ATOM      5  C   UNL     1      -3.223  -4.472  20.866  0.00  0.00    +0.103 C 
ATOM      6  N   UNL     1      -2.648  -4.454  22.234  0.00  0.00    -0.302 NA
ATOM      7  C   UNL     1      -3.656  -3.832  23.101  0.00  0.00    +0.105 C 
ATOM      8  C   UNL     1      -1.401  -3.673  22.330  0.00  0.00    +0.103 C 
ATOM      9  C   UNL     1      -0.370  -4.315  21.448  0.00  0.00    +0.120 C 
ENDBRANCH   2   3
BRANCH  21  22
ATOM     22  C   UNL     1       3.623  -4.451  18.654  0.00  0.00    +0.252 C 
ATOM     23  O   UNL     1       3.830  -3.560  19.469  0.00  0.00    -0.270 OA
ATOM     24  N   UNL     1       4.614  -4.993  17.932  0.00  0.00    -0.280 N 
ATOM     25  H   UNL     1       4.400  -5.922  17.447  0.00  0.00    +0.155 HD
BRANCH  24  26
ATOM     26  C   UNL     1       5.885  -4.476  17.749  0.00  0.00    +0.052 A 
ATOM     27  C   UNL     1       6.679  -5.103  16.812  0.00  0.00    +0.134 A 
ATOM     28  N   UNL     1       7.891  -4.633  16.563  0.00  0.00    -0.261 NA
ATOM     29  C   UNL     1       8.374  -3.598  17.213  0.00  0.00    +0.111 A 
ATOM     30  C   UNL     1       7.620  -2.957  18.175  0.00  0.00    +0.021 A 
ATOM     31  C   UNL     1       6.351  -3.398  18.418  0.00  0.00    +0.026 A 
ENDBRANCH  24  26
ENDBRANCH  21  22
BRANCH  12  13
ATOM     13  O   UNL     1       2.988  -6.073  16.588  0.00  0.00    -0.487 OA
BRANCH  13  14
ATOM     14  C   UNL     1       2.680  -6.937  15.472  0.00  0.00    +0.264 C 
BRANCH  14  15
ATOM     15  C   UNL     1       4.031  -7.209  14.748  0.00  0.00    -0.010 A 
ATOM     16  C   UNL     1       4.839  -8.269  15.141  0.00  0.00    +0.007 A 
ATOM     17  C   UNL     1       6.059  -8.477  14.505  0.00  0.00    +0.000 A 
ATOM     18  C   UNL     1       6.502  -7.640  13.498  0.00  0.00    +0.000 A 
ATOM     19  C   UNL     1       5.695  -6.568  13.122  0.00  0.00    +0.000 A 
ATOM     20  C   UNL     1       4.468  -6.364  13.722  0.00  0.00    +0.007 A 
ENDBRANCH  14  15
ENDBRANCH  13  14
ENDBRANCH  12  13
TORSDOF 6
