REMARK  Name = 8BY
REMARK  5 active torsions:
REMARK  status: ('A' for Active; 'I' for Inactive)
REMARK    1  A    between atoms: C13_4  and  C12_17
REMARK    2  A    between atoms: C16_8  and  C19_9
REMARK    3  A    between atoms: C2_11  and  O4_13
REMARK    4  A    between atoms: O4_13  and  C5_14
REMARK    5  A    between atoms: C22_22  and  C23_23
REMARK                            x       y       z     vdW  Elec       q    Type
REMARK                         _______ _______ _______ _____ _____    ______ ____
ROOT
ATOM      1  C   UNL     1      -8.324  17.451  11.146  0.00  0.00    +0.003 A 
ATOM      2  C   UNL     1      -7.639  17.498  12.406  0.00  0.00    +0.000 C 
ATOM     11  C   UNL     1      -6.269  17.631  12.421  0.00  0.00    +0.000 C 
ATOM     12  C   UNL     1      -5.538  17.802  11.254  0.00  0.00    +0.000 C 
ATOM     13  C   UNL     1      -6.162  17.820  10.044  0.00  0.00    +0.000 C 
ATOM     14  C   UNL     1      -9.726  17.211  11.020  0.00  0.00    +0.037 A 
ATOM     15  C   UNL     1     -10.326  17.192   9.797  0.00  0.00    +0.143 A 
ATOM     20  C   UNL     1      -9.577  17.371   8.620  0.00  0.00    +0.090 A 
ATOM     21  C   UNL     1      -8.227  17.601   8.710  0.00  0.00    +0.008 A 
ATOM     25  C   UNL     1      -7.564  17.635   9.952  0.00  0.00    +0.000 A 
ENDROOT
BRANCH   2   3
ATOM      3  C   UNL     1      -8.355  17.621  13.706  0.00  0.00    +0.000 A 
ATOM      4  C   UNL     1      -8.125  16.709  14.730  0.00  0.00    +0.001 A 
ATOM      5  C   UNL     1      -8.594  16.936  16.008  0.00  0.00    +0.010 A 
ATOM      6  C   UNL     1      -9.325  18.081  16.293  0.00  0.00    +0.068 A 
ATOM      9  C   UNL     1      -9.616  18.976  15.270  0.00  0.00    +0.010 A 
ATOM     10  C   UNL     1      -9.136  18.744  13.995  0.00  0.00    +0.001 A 
BRANCH   6   7
ATOM      7  C   UNL     1      -9.791  18.323  17.636  0.00  0.00    +0.100 C 
ATOM      8  N   UNL     1     -10.150  18.479  18.709  0.00  0.00    -0.191 NA
ENDBRANCH   6   7
ENDBRANCH   2   3
BRANCH  20  22
ATOM     22  C   UNL     1     -10.117  17.323   7.218  0.00  0.00    +0.287 C 
ATOM     23  N   UNL     1     -11.433  17.199   7.043  0.00  0.00    -0.084 NA
ATOM     24  O   UNL     1      -9.326  17.326   6.257  0.00  0.00    -0.267 OA
ENDBRANCH  20  22
BRANCH  15  16
ATOM     16  O   UNL     1     -11.680  17.037   9.615  0.00  0.00    -0.479 OA
BRANCH  16  17
ATOM     17  C   UNL     1     -12.631  16.928  10.706  0.00  0.00    +0.166 C 
ATOM     18  C   UNL     1     -12.690  15.503  11.140  0.00  0.00    +0.047 C 
ATOM     19  C   UNL     1     -13.924  17.406  10.098  0.00  0.00    +0.047 C 
ENDBRANCH  16  17
ENDBRANCH  15  16
TORSDOF 5
