REMARK  Name = 2c1a_ligand
REMARK  10 active torsions:
REMARK  status: ('A' for Active; 'I' for Inactive)
REMARK    1  A    between atoms: C5_5  and  C6_6
REMARK    2  A    between atoms: C6_6  and  O7_7
REMARK    3  A    between atoms: O7_7  and  C8_8
REMARK    4  A    between atoms: C8_8  and  C9_9
REMARK    5  A    between atoms: C9_9  and  N10_10
REMARK    6  A    between atoms: N10_10  and  C13_11
REMARK    7  A    between atoms: C13_11  and  C14_12
REMARK    8  A    between atoms: C14_12  and  N15_13
REMARK    9  A    between atoms: N15_13  and  S16_14
REMARK   10  A    between atoms: S16_14  and  C19_17
REMARK                            x       y       z     vdW  Elec       q    Type
REMARK                         _______ _______ _______ _____ _____    ______ ____
ROOT
ATOM     14  C   UNL     1       9.589   7.832   3.442  0.00  0.00    +0.172 C 
ENDROOT
BRANCH  14  15
ATOM     15  N   UNL     1       8.971   8.668   4.478  0.00  0.00    -0.242 NA
ATOM     16  H   UNL     1       8.698   8.271   5.354  0.00  0.00    +0.168 HD
BRANCH  15  17
ATOM     17  S   UNL     1       8.736  10.257   4.179  0.00  0.00    +0.071 S 
ATOM     28  O   UNL     1       9.734  10.766   3.312  0.00  0.00    -0.150 OA
ATOM     29  O   UNL     1       8.488  10.699   5.478  0.00  0.00    -0.150 OA
BRANCH  17  18
ATOM     18  C   UNL     1       7.311  10.293   3.149  0.00  0.00    +0.123 A 
ATOM     19  C   UNL     1       5.983  10.265   3.671  0.00  0.00    +0.024 A 
ATOM     20  C   UNL     1       5.646  10.175   5.040  0.00  0.00    +0.042 A 
ATOM     21  C   UNL     1       4.310  10.100   5.427  0.00  0.00    +0.085 A 
ATOM     22  N   UNL     1       3.313  10.108   4.529  0.00  0.00    -0.297 NA
ATOM     23  C   UNL     1       3.563  10.200   3.242  0.00  0.00    +0.107 A 
ATOM     24  C   UNL     1       4.892  10.274   2.748  0.00  0.00    +0.011 A 
ATOM     25  C   UNL     1       5.124  10.348   1.360  0.00  0.00    +0.021 A 
ATOM     26  C   UNL     1       6.402  10.405   0.890  0.00  0.00    +0.011 A 
ATOM     27  C   UNL     1       7.490  10.408   1.791  0.00  0.00    +0.039 A 
ENDBRANCH  17  18
ENDBRANCH  15  17
ENDBRANCH  14  15
BRANCH  14  13
ATOM     13  C   UNL     1      11.099   7.846   3.753  0.00  0.00    +0.150 C 
BRANCH  13  10
ATOM     10  N   UNL     1      11.837   7.279   2.638  0.00  0.00    +0.230 N 
ATOM     11  H   UNL     1      11.966   7.993   1.938  0.00  0.00    +0.202 HD
ATOM     12  H   UNL     1      11.302   6.519   2.248  0.00  0.00    +0.202 HD
BRANCH  10   9
ATOM      9  C   UNL     1      13.163   6.767   3.045  0.00  0.00    +0.158 C 
BRANCH   9   8
ATOM      8  C   UNL     1      14.237   7.840   3.224  0.00  0.00    +0.213 C 
BRANCH   8   7
ATOM      7  O   UNL     1      13.741   9.145   3.136  0.00  0.00    -0.362 OA
BRANCH   7   6
ATOM      6  C   UNL     1      14.761  10.112   3.444  0.00  0.00    +0.227 C 
BRANCH   6   5
ATOM      1 CL   UNL     1      12.980  14.464  -0.200  0.00  0.00    -0.077 Cl
ATOM      2  C   UNL     1      13.467  13.215   0.860  0.00  0.00    +0.033 A 
ATOM      3  C   UNL     1      14.562  12.435   0.489  0.00  0.00    +0.006 A 
ATOM      4  C   UNL     1      14.990  11.429   1.329  0.00  0.00    -0.002 A 
ATOM      5  C   UNL     1      14.341  11.232   2.539  0.00  0.00    -0.017 A 
ATOM     30  C   UNL     1      13.232  11.996   2.901  0.00  0.00    -0.002 A 
ATOM     31  C   UNL     1      12.806  13.007   2.061  0.00  0.00    +0.006 A 
ENDBRANCH   6   5
ENDBRANCH   7   6
ENDBRANCH   8   7
ENDBRANCH   9   8
ENDBRANCH  10   9
ENDBRANCH  13  10
ENDBRANCH  14  13
TORSDOF 10
