REMARK  Name = 3myg_ligand
REMARK  12 active torsions:
REMARK  status: ('A' for Active; 'I' for Inactive)
REMARK    1  A    between atoms: C1_1  and  C7_15
REMARK    2  A    between atoms: N1_2  and  C11_21
REMARK    3  A    between atoms: O1_3  and  C17_27
REMARK    4  A    between atoms: C3_7  and  C19_29
REMARK    5  A    between atoms: C4_9  and  N8_18
REMARK    6  A    between atoms: C4_9  and  C16_26
REMARK    7  A    between atoms: N8_18  and  C13_23
REMARK    8  A    between atoms: N8_18  and  C15_25
REMARK    9  A    between atoms: C13_23  and  C14_24
REMARK   10  A    between atoms: C15_25  and  C17_27
REMARK   11  A    between atoms: C15_25  and  C18_28
REMARK   12  A    between atoms: C15_25  and  C20_30
REMARK                            x       y       z     vdW  Elec       q    Type
REMARK                         _______ _______ _______ _____ _____    ______ ____
ROOT
ATOM      7  C   UNL     1      -5.558  29.878  76.721  0.00  0.00    +0.080 A 
ATOM      8  C   UNL     1      -4.820  30.745  75.873  0.00  0.00    +0.025 A 
ATOM      9  N   UNL     1      -4.014  31.609  76.524  0.00  0.00    -0.330 NA
ATOM     10  C   UNL     1      -4.248  31.273  77.863  0.00  0.00    +0.197 A 
ATOM     11  C   UNL     1      -3.739  31.851  79.028  0.00  0.00    +0.195 A 
ATOM     12  N   UNL     1      -4.248  31.387  80.225  0.00  0.00    -0.284 NA
ATOM     13  C   UNL     1      -5.161  30.347  80.330  0.00  0.00    +0.028 A 
ATOM     14  C   UNL     1      -5.583  29.875  81.678  0.00  0.00    +0.091 C 
ATOM     15  C   UNL     1      -5.639  29.771  79.177  0.00  0.00    +0.165 A 
ATOM     16  N   UNL     1      -2.804  32.875  78.979  0.00  0.00    -0.218 N 
ATOM     17  H   UNL     1      -2.537  33.227  78.049  0.00  0.00    +0.233 HD
ATOM     34  N   UNL     1      -5.163  30.268  77.983  0.00  0.00    -0.214 N 
ENDROOT
BRANCH   7   1
ATOM      1  C   UNL     1      -6.609  28.849  76.349  0.00  0.00    +0.020 A 
ATOM      2  C   UNL     1      -6.615  27.996  75.204  0.00  0.00    +0.154 A 
ATOM      3  N   UNL     1      -7.737  27.278  75.278  0.00  0.00    -0.221 N 
ATOM      4  H   UNL     1      -8.043  26.570  74.595  0.00  0.00    +0.258 HD
ATOM      5  N   UNL     1      -8.402  27.632  76.393  0.00  0.00    -0.218 NA
ATOM      6  C   UNL     1      -7.764  28.598  77.085  0.00  0.00    +0.071 A 
ENDBRANCH   7   1
BRANCH  16  18
ATOM     18  C   UNL     1      -2.195  33.468  80.087  0.00  0.00    +0.148 A 
ATOM     19  C   UNL     1      -1.264  34.513  80.093  0.00  0.00    +0.022 A 
ATOM     20  C   UNL     1      -0.893  34.865  81.391  0.00  0.00    +0.033 A 
ATOM     32  N   UNL     1      -1.484  34.149  82.375  0.00  0.00    -0.306 NA
ATOM     33  S   UNL     1      -2.440  33.080  81.757  0.00  0.00    +0.021 S 
BRANCH  20  21
ATOM     21  C   UNL     1       0.102  35.941  81.761  0.00  0.00    +0.221 C 
BRANCH  21  22
ATOM     22  N   UNL     1      -0.008  36.543  83.147  0.00  0.00    +0.256 N 
ATOM     23  H   UNL     1      -0.640  35.870  83.552  0.00  0.00    +0.206 HD
BRANCH  22  24
ATOM     24  C   UNL     1      -0.809  37.765  83.387  0.00  0.00    +0.010 C 
ATOM     25  C   UNL     1       0.068  39.049  83.402  0.00  0.00    +0.070 C 
ATOM     26  C   UNL     1      -1.840  38.043  82.348  0.00  0.00    +0.070 C 
BRANCH  24  27
ATOM     27  C   UNL     1      -1.715  37.635  84.633  0.00  0.00    +0.212 C 
BRANCH  27  28
ATOM     28  O   UNL     1      -1.981  36.259  84.964  0.00  0.00    -0.389 OA
ATOM     29  H   UNL     1      -2.539  36.221  85.732  0.00  0.00    +0.210 HD
ENDBRANCH  27  28
ENDBRANCH  24  27
ENDBRANCH  22  24
BRANCH  22  30
ATOM     30  C   UNL     1       1.149  36.344  84.023  0.00  0.00    +0.130 C 
ATOM     31  C   UNL     1       1.930  35.062  84.015  0.00  0.00    +0.060 C 
ENDBRANCH  22  30
ENDBRANCH  21  22
ENDBRANCH  20  21
ENDBRANCH  16  18
TORSDOF 8
