REMARK  Name = 3mj1_ligand
REMARK  5 active torsions:
REMARK  status: ('A' for Active; 'I' for Inactive)
REMARK    1  A    between atoms: N2_2  and  C16_16
REMARK    2  A    between atoms: C12_12  and  C32_32
REMARK    3  A    between atoms: N13_13  and  C20_20
REMARK    4  A    between atoms: N14_14  and  C29_29
REMARK    5  A    between atoms: C19_19  and  C20_20
REMARK                            x       y       z     vdW  Elec       q    Type
REMARK                         _______ _______ _______ _____ _____    ______ ____
ROOT
ATOM      1  N   UNL     1      15.346   5.907  -2.965  0.00  0.00    -0.180 NA
ATOM      2  C   UNL     1      14.352   6.705  -3.234  0.00  0.00    +0.146 A 
ATOM      3  N   UNL     1      13.059   6.211  -3.428  0.00  0.00    -0.269 N 
ATOM      4  H   UNL     1      12.324   6.890  -3.625  0.00  0.00    +0.203 HD
ATOM      5  C   UNL     1      12.687   4.857  -3.374  0.00  0.00    +0.090 A 
ATOM      6  C   UNL     1      13.508   3.715  -3.329  0.00  0.00    -0.006 A 
ATOM      7  C   UNL     1      12.704   2.625  -3.285  0.00  0.00    +0.055 A 
ATOM      8  C   UNL     1      13.125   1.178  -3.226  0.00  0.00    +0.127 C 
ATOM      9  N   UNL     1      11.429   3.057  -3.302  0.00  0.00    -0.235 N 
ATOM     10  H   UNL     1      10.596   2.468  -3.277  0.00  0.00    +0.245 HD
ATOM     11  N   UNL     1      11.446   4.450  -3.360  0.00  0.00    -0.232 NA
ATOM     12  C   UNL     1      14.601   8.154  -3.345  0.00  0.00    +0.030 A 
ATOM     13  C   UNL     1      13.579   9.053  -3.664  0.00  0.00    +0.008 A 
ATOM     14  C   UNL     1      13.857  10.400  -3.757  0.00  0.00    +0.001 A 
ATOM     15  C   UNL     1      15.143  10.884  -3.547  0.00  0.00    -0.059 A 
ATOM     24  C   UNL     1      16.176  10.018  -3.238  0.00  0.00    +0.016 A 
ATOM     25  C   UNL     1      15.919   8.641  -3.126  0.00  0.00    +0.057 A 
ATOM     26  C   UNL     1      16.976   7.663  -2.811  0.00  0.00    +0.232 A 
ATOM     27  O   UNL     1      18.127   8.031  -2.626  0.00  0.00    -0.396 OA
ATOM     28  N   UNL     1      16.657   6.347  -2.756  0.00  0.00    -0.167 N 
ENDROOT
BRANCH  28  29
ATOM     29  C   UNL     1      17.707   5.359  -2.465  0.00  0.00    +0.150 C 
ATOM     30  C   UNL     1      18.307   4.878  -3.801  0.00  0.00    +0.065 C 
ATOM     31  C   UNL     1      19.368   3.803  -3.534  0.00  0.00    +0.163 C 
ATOM     32  O   UNL     1      18.781   2.728  -2.789  0.00  0.00    -0.380 OA
ATOM     33  C   UNL     1      18.250   3.092  -1.507  0.00  0.00    +0.163 C 
ATOM     34  C   UNL     1      17.159   4.163  -1.666  0.00  0.00    +0.065 C 
ENDBRANCH  28  29
BRANCH  15  16
ATOM     16  C   UNL     1      15.386  12.372  -3.670  0.00  0.00    -0.039 C 
BRANCH  16  17
ATOM     17  N   UNL     1      15.880  12.957  -2.409  0.00  0.00    +0.405 NA
ATOM     18  C   UNL     1      16.639  14.214  -2.600  0.00  0.00    -0.130 C 
ATOM     19  C   UNL     1      15.716  15.443  -2.624  0.00  0.00    -0.133 C 
ATOM     20  N   UNL     1      14.869  15.461  -1.421  0.00  0.00    +0.398 NA
ATOM     21  C   UNL     1      14.038  16.675  -1.392  0.00  0.00    -0.132 C 
ATOM     22  C   UNL     1      14.012  14.264  -1.354  0.00  0.00    -0.133 C 
ATOM     23  C   UNL     1      14.878  12.995  -1.321  0.00  0.00    -0.130 C 
ENDBRANCH  16  17
ENDBRANCH  15  16
TORSDOF 3
