REMARK  Name = 3rwp_ligand
REMARK  7 active torsions:
REMARK  status: ('A' for Active; 'I' for Inactive)
REMARK    1  A    between atoms: C10_10  and  C17_17
REMARK    2  A    between atoms: C11_11  and  C20_20
REMARK    3  A    between atoms: C13_13  and  C17_17
REMARK    4  A    between atoms: C21_21  and  N31_31
REMARK    5  A    between atoms: C22_22  and  C24_24
REMARK    6  A    between atoms: C23_23  and  C24_24
REMARK    7  A    between atoms: C24_24  and  N29_29
REMARK                            x       y       z     vdW  Elec       q    Type
REMARK                         _______ _______ _______ _____ _____    ______ ____
ROOT
ATOM      5  N   UNL     1      39.276  26.556  26.152  0.00  0.00    -0.293 N 
ATOM      6  H   UNL     1      38.709  25.697  26.116  0.00  0.00    +0.183 HD
ATOM      7  C   UNL     1      38.673  27.793  26.473  0.00  0.00    +0.147 A 
ATOM      8  N   UNL     1      37.359  27.719  26.780  0.00  0.00    -0.243 NA
ATOM      9  C   UNL     1      36.759  28.905  27.038  0.00  0.00    +0.114 A 
ATOM     27  C   UNL     1      37.406  30.114  26.989  0.00  0.00    +0.130 A 
ATOM     28  N   UNL     1      38.737  30.199  26.677  0.00  0.00    -0.280 NA
ATOM     29  C   UNL     1      39.332  29.007  26.445  0.00  0.00    +0.150 A 
ENDROOT
BRANCH   5   4
ATOM      3  C   UNL     1      41.593  26.021  27.063  0.00  0.00    +0.089 C 
ATOM      4  C   UNL     1      40.715  26.505  25.871  0.00  0.00    +0.137 C 
ATOM     30  C   UNL     1      40.875  25.342  24.889  0.00  0.00    +0.190 C 
ATOM     31  O   UNL     1      41.579  24.231  25.500  0.00  0.00    -0.375 OA
ATOM     32  C   UNL     1      41.701  24.507  26.919  0.00  0.00    +0.179 C 
BRANCH   3   2
ATOM      1  C   UNL     1      41.617  27.589  28.917  0.00  0.00    -0.007 A 
ATOM      2  C   UNL     1      41.061  26.423  28.402  0.00  0.00    -0.039 A 
ATOM     33  C   UNL     1      40.057  25.732  29.104  0.00  0.00    -0.007 A 
ATOM     34  C   UNL     1      39.612  26.212  30.342  0.00  0.00    +0.024 A 
ATOM     35  C   UNL     1      40.182  27.371  30.816  0.00  0.00    +0.125 A 
ATOM     36  F   UNL     1      39.822  27.878  32.013  0.00  0.00    -0.189 F 
ATOM     37  C   UNL     1      41.164  28.065  30.126  0.00  0.00    +0.024 A 
ENDBRANCH   3   2
ENDBRANCH   5   4
BRANCH   9  10
ATOM     10  C   UNL     1      35.308  28.829  27.392  0.00  0.00    +0.159 C 
ATOM     11  O   UNL     1      34.573  29.689  26.855  0.00  0.00    -0.377 OA
BRANCH  10  12
ATOM     12  C   UNL     1      34.729  27.674  28.089  0.00  0.00    +0.048 A 
ATOM     13  C   UNL     1      33.317  27.403  28.331  0.00  0.00    +0.062 A 
ATOM     14  C   UNL     1      32.105  28.063  28.130  0.00  0.00    +0.118 A 
ATOM     15  N   UNL     1      31.979  29.319  27.551  0.00  0.00    -0.316 N 
ATOM     16  H   UNL     1      32.818  29.828  27.236  0.00  0.00    +0.182 HD
ATOM     17  H   UNL     1      31.047  29.742  27.436  0.00  0.00    +0.182 HD
ATOM     18  N   UNL     1      30.960  27.451  28.490  0.00  0.00    -0.272 NA
ATOM     19  C   UNL     1      31.037  26.256  29.063  0.00  0.00    +0.149 A 
ATOM     20  N   UNL     1      32.103  25.524  29.322  0.00  0.00    -0.275 NA
ATOM     21  C   UNL     1      33.224  26.156  28.945  0.00  0.00    +0.144 A 
ATOM     22  N   UNL     1      34.512  25.650  29.097  0.00  0.00    -0.239 N 
ATOM     26  C   UNL     1      35.409  26.559  28.582  0.00  0.00    +0.162 A 
BRANCH  22  23
ATOM     23  C   UNL     1      34.789  24.327  29.684  0.00  0.00    +0.128 C 
ATOM     24  C   UNL     1      34.576  23.378  28.511  0.00  0.00    +0.043 C 
ATOM     25  C   UNL     1      36.246  24.271  30.197  0.00  0.00    +0.043 C 
ENDBRANCH  22  23
ENDBRANCH  10  12
ENDBRANCH   9  10
TORSDOF 5
