REMARK  Name = 1h1q_ligand
REMARK  4 active torsions:
REMARK  status: ('A' for Active; 'I' for Inactive)
REMARK    1  A    between atoms: C10_3  and  C11_4
REMARK    2  A    between atoms: C10_3  and  O6_16
REMARK    3  A    between atoms: C6_15  and  O6_16
REMARK    4  A    between atoms: N2_22  and  C17_23
REMARK                            x       y       z     vdW  Elec       q    Type
REMARK                         _______ _______ _______ _____ _____    ______ ____
ROOT
ATOM      1  C   UNL     1       7.821  43.702  49.399  0.00  0.00    +0.179 A 
ATOM      2  N   UNL     1       6.870  44.489  50.181  0.00  0.00    -0.240 NA
ATOM      3  C   UNL     1       7.237  45.385  51.037  0.00  0.00    +0.176 A 
ATOM     12  C   UNL     1       8.659  45.625  51.199  0.00  0.00    +0.104 A 
ATOM     13  N   UNL     1       9.549  46.452  51.963  0.00  0.00    -0.302 NA
ATOM     14  C   UNL     1      10.739  46.155  51.647  0.00  0.00    +0.235 A 
ATOM     15  N   UNL     1      10.773  45.213  50.736  0.00  0.00    -0.240 N 
ATOM     16  H   UNL     1      11.612  44.795  50.310  0.00  0.00    +0.238 HD
ATOM     17  C   UNL     1       9.534  44.912  50.478  0.00  0.00    +0.145 A 
ATOM     18  N   UNL     1       9.061  43.920  49.571  0.00  0.00    -0.257 NA
ATOM     19  N   UNL     1       7.600  42.762  48.532  0.00  0.00    -0.249 N 
ATOM     20  H   UNL     1       8.302  42.551  47.809  0.00  0.00    +0.216 HD
ENDROOT
BRANCH  19  21
ATOM     21  C   UNL     1       6.445  42.061  48.581  0.00  0.00    +0.064 A 
ATOM     22  C   UNL     1       5.852  41.789  49.808  0.00  0.00    +0.015 A 
ATOM     23  C   UNL     1       4.645  41.093  49.815  0.00  0.00    -0.013 A 
ATOM     24  C   UNL     1       4.059  40.648  48.633  0.00  0.00    -0.022 A 
ATOM     25  C   UNL     1       4.667  40.917  47.403  0.00  0.00    -0.013 A 
ATOM     26  C   UNL     1       5.855  41.632  47.396  0.00  0.00    +0.015 A 
ENDBRANCH  19  21
BRANCH   3   4
ATOM      4  O   UNL     1       6.320  46.074  51.736  0.00  0.00    -0.293 OA
BRANCH   4   5
ATOM      5  C   UNL     1       5.116  45.274  51.617  0.00  0.00    +0.206 C 
BRANCH   5   6
ATOM      6  C   UNL     1       4.107  45.724  52.703  0.00  0.00    +0.021 C 
ATOM      7  C   UNL     1       2.766  45.986  51.986  0.00  0.00    +0.006 C 
ATOM      8  C   UNL     1       1.562  46.086  52.939  0.00  0.00    +0.000 C 
ATOM      9  C   UNL     1       1.448  44.969  53.987  0.00  0.00    +0.000 C 
ATOM     10  C   UNL     1       2.787  44.740  54.725  0.00  0.00    +0.000 C 
ATOM     11  C   UNL     1       4.009  44.609  53.792  0.00  0.00    +0.006 C 
ENDBRANCH   5   6
ENDBRANCH   4   5
ENDBRANCH   3   4
TORSDOF 4
