REMARK  Name = 5NK2
REMARK  12 active torsions:
REMARK  status: ('A' for Active; 'I' for Inactive)
REMARK    1  A    between atoms: C_7  and  N_8
REMARK    2  A    between atoms: C_9  and  C_11
REMARK    3  A    between atoms: C_16  and  N_17
REMARK    4  A    between atoms: C_22  and  C_23
REMARK    5  A    between atoms: N_25  and  C_26
REMARK    6  A    between atoms: C_32  and  C_33
REMARK    7  A    between atoms: C_40  and  N_41
REMARK    8  A    between atoms: C_42  and  C_44
REMARK    9  A    between atoms: C_49  and  N_50
REMARK   10  A    between atoms: C_55  and  C_56
REMARK   11  A    between atoms: N_58  and  C_59
REMARK   12  A    between atoms: C_65  and  C_66
REMARK                            x       y       z     vdW  Elec       q    Type
REMARK                         _______ _______ _______ _____ _____    ______ ____
ROOT
ATOM     12  N   UNL     1     -87.044 -15.317   5.327  0.00  0.00    -0.294 N 
ATOM     13  H   UNL     1     -87.236 -14.832   4.393  0.00  0.00    +0.154 HD
ATOM     14  C   UNL     1     -88.091 -15.869   5.976  0.00  0.00    +0.163 A 
ATOM     15  N   UNL     1     -89.348 -15.855   5.486  0.00  0.00    -0.232 NA
ATOM     16  C   UNL     1     -90.281 -16.462   6.265  0.00  0.00    +0.133 A 
ATOM     17  C   UNL     1     -89.814 -16.980   7.414  0.00  0.00    +0.095 A 
ATOM     30  S   UNL     1     -88.134 -16.669   7.467  0.00  0.00    -0.048 S 
ENDROOT
BRANCH  12  11
ATOM      7  C   UNL     1     -84.063 -15.224   7.518  0.00  0.00    +0.038 A 
ATOM      8  C   UNL     1     -83.072 -15.336   6.556  0.00  0.00    +0.013 A 
ATOM      9  C   UNL     1     -83.422 -15.424   5.215  0.00  0.00    +0.003 A 
ATOM     10  C   UNL     1     -84.759 -15.423   4.824  0.00  0.00    +0.023 A 
ATOM     11  C   UNL     1     -85.769 -15.335   5.777  0.00  0.00    +0.033 A 
ATOM     31  C   UNL     1     -85.403 -15.213   7.120  0.00  0.00    +0.036 A 
BRANCH   7   6
ATOM      4  N   UNL     1     -82.485 -15.585   9.177  0.00  0.00    -0.306 N 
ATOM      5  H   UNL     1     -81.901 -15.976   8.370  0.00  0.00    +0.149 HD
ATOM      6  C   UNL     1     -83.713 -15.118   8.868  0.00  0.00    +0.244 C 
ATOM     32  O   UNL     1     -84.502 -14.626   9.672  0.00  0.00    -0.270 OA
BRANCH   4   3
ATOM      1  F   UNL     1     -80.573 -13.963  10.224  0.00  0.00    -0.242 F 
ATOM      2  C   UNL     1     -81.509 -14.206  11.013  0.00  0.00    +0.200 C 
ATOM      3  C   UNL     1     -81.861 -15.611  10.530  0.00  0.00    +0.110 C 
ATOM     33  C   UNL     1     -82.717 -16.321  11.557  0.00  0.00    +0.040 C 
ATOM     34  C   UNL     1     -81.979 -16.313  12.897  0.00  0.00    +0.083 C 
ATOM     35  N   UNL     1     -80.676 -15.637  12.829  0.00  0.00    -0.313 NA
ATOM     36  H   UNL     1     -80.201 -15.660  13.787  0.00  0.00    +0.122 HD
ATOM     37  C   UNL     1     -80.929 -14.249  12.426  0.00  0.00    +0.119 C 
ENDBRANCH   4   3
ENDBRANCH   7   6
ENDBRANCH  12  11
BRANCH  17  18
ATOM     18  C   UNL     1     -90.484 -17.642   8.398  0.00  0.00    +0.256 C 
ATOM     19  N   UNL     1     -91.814 -17.909   8.239  0.00  0.00    -0.280 N 
ATOM     20  H   UNL     1     -92.322 -17.620   7.342  0.00  0.00    +0.155 HD
ATOM     29  O   UNL     1     -89.870 -17.966   9.418  0.00  0.00    -0.269 OA
BRANCH  19  21
ATOM     21  C   UNL     1     -92.490 -18.552   9.244  0.00  0.00    +0.055 A 
ATOM     22  C   UNL     1     -93.106 -17.802  10.251  0.00  0.00    -0.028 A 
ATOM     23  C   UNL     1     -93.042 -16.407  10.251  0.00  0.00    +0.046 C 
ATOM     24  C   UNL     1     -93.807 -18.448  11.270  0.00  0.00    +0.005 A 
ATOM     25  C   UNL     1     -93.896 -19.841  11.297  0.00  0.00    +0.002 A 
ATOM     26  C   UNL     1     -93.292 -20.585  10.284  0.00  0.00    +0.022 A 
ATOM     27  C   UNL     1     -92.592 -19.944   9.258  0.00  0.00    +0.062 A 
ATOM     28 CL   UNL     1     -91.851 -20.937   8.022  0.00  0.00    -0.082 Cl
ENDBRANCH  19  21
ENDBRANCH  17  18
TORSDOF 5
