REMARK  Name = 8OU
REMARK  0 active torsions:
REMARK  status: ('A' for Active; 'I' for Inactive)
REMARK                            x       y       z     vdW  Elec       q    Type
REMARK                         _______ _______ _______ _____ _____    ______ ____
ROOT
ATOM      1  C   UNL     1       3.735  -7.109  -2.282  0.00  0.00    +0.075 A 
ATOM      2  C   UNL     1       3.070  -6.232  -1.388  0.00  0.00    +0.104 A 
ATOM      3  C   UNL     1       3.810  -5.201  -0.823  0.00  0.00    +0.273 C 
ATOM      4  O   UNL     1       3.326  -4.386  -0.058  0.00  0.00    -0.268 OA
ATOM      5  N   UNL     1       5.171  -5.062  -1.133  0.00  0.00    -0.178 NA
ATOM      6  C   UNL     1       5.789  -5.888  -1.958  0.00  0.00    +0.069 C 
ATOM      7  C   UNL     1       1.701  -6.486  -1.266  0.00  0.00    +0.156 A 
ATOM      8  N   UNL     1       0.741  -6.054  -0.463  0.00  0.00    -0.289 N 
ATOM      9  C   UNL     1       0.047  -4.960  -0.141  0.00  0.00    +0.082 A 
ATOM     10  C   UNL     1      -0.594  -4.039   0.720  0.00  0.00    +0.021 A 
ATOM     11  C   UNL     1      -1.945  -3.745   0.840  0.00  0.00    +0.020 A 
ATOM     12  C   UNL     1      -2.842  -4.554   0.348  0.00  0.00    +0.081 A 
ATOM     13  N   UNL     1      -4.170  -4.589   0.329  0.00  0.00    -0.249 N 
ATOM     14  C   UNL     1      -5.084  -3.597   0.963  0.00  0.00    +0.154 C 
ATOM     15  N   UNL     1      -4.521  -5.587  -0.300  0.00  0.00    -0.168 NA
ATOM     16  C   UNL     1      -3.446  -6.253  -0.726  0.00  0.00    +0.123 A 
ATOM     17  C   UNL     1      -2.384  -5.582  -0.307  0.00  0.00    +0.056 A 
ATOM     18  C   UNL     1      -1.087  -5.787  -0.464  0.00  0.00    +0.084 A 
ATOM     19  N   UNL     1       1.176  -7.552  -1.859  0.00  0.00    -0.196 NA
ATOM     20  C   UNL     1       1.787  -8.368  -2.679  0.00  0.00    +0.221 A 
ATOM     21  N   UNL     1       0.992  -9.315  -3.218  0.00  0.00    -0.278 N 
ATOM     22  C   UNL     1      -0.419  -9.533  -2.757  0.00  0.00    +0.096 C 
ATOM     23  C   UNL     1      -1.314  -8.987  -3.741  0.00  0.00    +0.054 C 
ATOM     24  C   UNL     1      -0.964  -9.510  -5.176  0.00  0.00    +0.155 C 
ATOM     25  C   UNL     1       0.470  -9.300  -5.572  0.00  0.00    +0.054 C 
ATOM     26  O   UNL     1      -1.786  -8.786  -6.119  0.00  0.00    -0.223 OA
ATOM     27  C   UNL     1       1.298 -10.002  -4.478  0.00  0.00    +0.096 C 
ATOM     28  C   UNL     1       5.090  -6.931  -2.559  0.00  0.00    +0.090 C 
ATOM     29  N   UNL     1       3.096  -8.142  -2.899  0.00  0.00    -0.217 NA
ENDROOT
TORSDOF 0
